MODEL 1
REMARK VINA RESULT:    -7.455      0.000      0.000
REMARK INTER + INTRA:         -11.366
REMARK INTER:                 -10.506
REMARK INTRA:                  -0.860
REMARK UNBOUND:                -0.860
REMARK  Name = 
REMARK  7 active torsions:
REMARK  status: ('A' for Active; 'I' for Inactive)
REMARK    1  A    between atoms: C_2  and  C_3
REMARK    2  A    between atoms: C_6  and  C_7
REMARK    3  A    between atoms: N_9  and  C_10
REMARK    4  A    between atoms: C_10  and  C_11
REMARK    5  A    between atoms: C_14  and  C_15
REMARK    6  A    between atoms: C_15  and  N_16
REMARK    7  A    between atoms: C_17  and  C_19
REMARK                            x       y       z     vdW  Elec       q    Type
REMARK                         _______ _______ _______ _____ _____    ______ ____
ROOT
ATOM      1  C   UNL     1      44.135   6.498  11.986  0.00  0.00    +0.000 C 
ATOM      2  C   UNL     1      44.537   7.858  11.396  0.00  0.00    +0.000 C 
ATOM      3  C   UNL     1      45.497   8.625  12.302  0.00  0.00    +0.000 C 
ATOM      4  C   UNL     1      46.756   7.807  12.623  0.00  0.00    +0.000 C 
ATOM      5  C   UNL     1      46.359   6.456  13.240  0.00  0.00    +0.000 C 
ATOM      6  C   UNL     1      45.390   5.679  12.344  0.00  0.00    +0.000 C 
ENDROOT
BRANCH   1   7
ATOM      7  C   UNL     1      43.231   5.713  11.012  0.00  0.00    +0.000 C 
BRANCH   7  10
ATOM      8  C   UNL     1      43.876   3.454  10.203  0.00  0.00    +0.000 C 
ATOM      9  O   UNL     1      43.211   2.878  11.055  0.00  0.00    +0.000 OA
ATOM     10  N   UNL     1      43.975   4.828  10.122  0.00  0.00    +0.000 N 
ATOM     11  H   UNL     1      44.518   5.250   9.382  0.00  0.00    +0.000 HD
BRANCH   8  15
ATOM     12  C   UNL     1      46.688   2.338   7.891  0.00  0.00    +0.000 C 
ATOM     13  C   UNL     1      45.737   3.067   6.938  0.00  0.00    +0.000 C 
ATOM     14  C   UNL     1      44.426   3.292   7.705  0.00  0.00    +0.000 C 
ATOM     15  C   UNL     1      44.629   2.702   9.101  0.00  0.00    +0.000 C 
ATOM     16  C   UNL     1      46.152   2.691   9.276  0.00  0.00    +0.000 C 
BRANCH  12  18
ATOM     17  N   UNL     1      46.701  -0.264   7.471  0.00  0.00    +0.000 NA
ATOM     18  C   UNL     1      46.698   0.879   7.651  0.00  0.00    +0.000 C 
ENDBRANCH  12  18
ENDBRANCH   8  15
ENDBRANCH   7  10
ENDBRANCH   1   7
BRANCH   4  19
ATOM     19  C   UNL     1      47.699   8.571  13.566  0.00  0.00    +0.000 C 
BRANCH  19  20
ATOM     20  N   UNL     1      47.852   7.921  14.852  0.00  0.00    +0.000 N 
ATOM     21  C   UNL     1      48.935   7.132  15.151  0.00  0.00    +0.000 C 
ATOM     22  O   UNL     1      49.849   6.942  14.352  0.00  0.00    +0.000 OA
ATOM     23  H   UNL     1      47.037   7.896  15.458  0.00  0.00    +0.000 HD
BRANCH  21  24
ATOM     24  C   UNL     1      48.976   6.557  16.499  0.00  0.00    +0.000 A 
ATOM     25  C   UNL     1      49.506   7.289  17.553  0.00  0.00    +0.000 A 
ATOM     26  S   UNL     1      49.518   6.441  19.034  0.00  0.00    +0.000 S 
ATOM     27  C   UNL     1      48.824   5.064  18.314  0.00  0.00    +0.000 A 
ATOM     28  N   UNL     1      48.592   3.932  19.033  0.00  0.00    +0.000 NA
ATOM     29  C   UNL     1      48.058   2.971  18.357  0.00  0.00    +0.000 A 
ATOM     30  N   UNL     1      47.726   3.040  17.028  0.00  0.00    +0.000 N 
ATOM     31  C   UNL     1      47.949   4.156  16.259  0.00  0.00    +0.000 A 
ATOM     32  O   UNL     1      47.622   4.190  15.078  0.00  0.00    +0.000 OA
ATOM     33  C   UNL     1      48.557   5.262  16.971  0.00  0.00    +0.000 A 
ATOM     34  H   UNL     1      47.294   2.258  16.558  0.00  0.00    +0.000 HD
ENDBRANCH  21  24
ENDBRANCH  19  20
ENDBRANCH   4  19
TORSDOF 7
ENDMDL
MODEL 2
REMARK VINA RESULT:    -7.342      1.375      1.615
REMARK INTER + INTRA:         -11.207
REMARK INTER:                 -10.144
REMARK INTRA:                  -1.063
REMARK UNBOUND:                -0.860
REMARK  Name = 
REMARK  7 active torsions:
REMARK  status: ('A' for Active; 'I' for Inactive)
REMARK    1  A    between atoms: C_2  and  C_3
REMARK    2  A    between atoms: C_6  and  C_7
REMARK    3  A    between atoms: N_9  and  C_10
REMARK    4  A    between atoms: C_10  and  C_11
REMARK    5  A    between atoms: C_14  and  C_15
REMARK    6  A    between atoms: C_15  and  N_16
REMARK    7  A    between atoms: C_17  and  C_19
REMARK                            x       y       z     vdW  Elec       q    Type
REMARK                         _______ _______ _______ _____ _____    ______ ____
ROOT
ATOM      1  C   UNL     1      44.517   4.872  12.896  0.00  0.00    +0.000 C 
ATOM      2  C   UNL     1      44.775   6.192  12.153  0.00  0.00    +0.000 C 
ATOM      3  C   UNL     1      45.869   7.028  12.814  0.00  0.00    +0.000 C 
ATOM      4  C   UNL     1      47.182   6.244  12.950  0.00  0.00    +0.000 C 
ATOM      5  C   UNL     1      46.934   4.936  13.718  0.00  0.00    +0.000 C 
ATOM      6  C   UNL     1      45.834   4.091  13.069  0.00  0.00    +0.000 C 
ENDROOT
BRANCH   1   7
ATOM      7  C   UNL     1      43.467   4.014  12.160  0.00  0.00    +0.000 C 
BRANCH   7  10
ATOM      8  C   UNL     1      44.029   3.706   9.759  0.00  0.00    +0.000 C 
ATOM      9  O   UNL     1      43.518   4.768   9.427  0.00  0.00    +0.000 OA
ATOM     10  N   UNL     1      44.026   3.239  11.058  0.00  0.00    +0.000 N 
ATOM     11  H   UNL     1      44.485   2.366  11.278  0.00  0.00    +0.000 HD
BRANCH   8  15
ATOM     12  C   UNL     1      46.863   2.178   7.728  0.00  0.00    +0.000 C 
ATOM     13  C   UNL     1      46.041   2.909   6.663  0.00  0.00    +0.000 C 
ATOM     14  C   UNL     1      44.712   3.304   7.322  0.00  0.00    +0.000 C 
ATOM     15  C   UNL     1      44.775   2.809   8.767  0.00  0.00    +0.000 C 
ATOM     16  C   UNL     1      46.278   2.682   9.044  0.00  0.00    +0.000 C 
BRANCH  12  18
ATOM     17  N   UNL     1      46.671  -0.441   7.499  0.00  0.00    +0.000 NA
ATOM     18  C   UNL     1      46.756   0.708   7.595  0.00  0.00    +0.000 C 
ENDBRANCH  12  18
ENDBRANCH   8  15
ENDBRANCH   7  10
ENDBRANCH   1   7
BRANCH   4  19
ATOM     19  C   UNL     1      48.266   7.080  13.650  0.00  0.00    +0.000 C 
BRANCH  19  20
ATOM     20  N   UNL     1      48.140   7.064  15.094  0.00  0.00    +0.000 N 
ATOM     21  C   UNL     1      49.211   6.840  15.922  0.00  0.00    +0.000 C 
ATOM     22  O   UNL     1      50.347   6.655  15.490  0.00  0.00    +0.000 OA
ATOM     23  H   UNL     1      47.200   7.019  15.475  0.00  0.00    +0.000 HD
BRANCH  21  24
ATOM     24  C   UNL     1      48.946   6.877  17.363  0.00  0.00    +0.000 A 
ATOM     25  C   UNL     1      48.759   8.093  18.006  0.00  0.00    +0.000 A 
ATOM     26  S   UNL     1      48.514   7.945  19.688  0.00  0.00    +0.000 S 
ATOM     27  C   UNL     1      48.661   6.251  19.615  0.00  0.00    +0.000 A 
ATOM     28  N   UNL     1      48.586   5.487  20.739  0.00  0.00    +0.000 NA
ATOM     29  C   UNL     1      48.710   4.219  20.531  0.00  0.00    +0.000 A 
ATOM     30  N   UNL     1      48.892   3.643  19.300  0.00  0.00    +0.000 N 
ATOM     31  C   UNL     1      48.983   4.372  18.139  0.00  0.00    +0.000 A 
ATOM     32  O   UNL     1      49.127   3.823  17.053  0.00  0.00    +0.000 OA
ATOM     33  C   UNL     1      48.859   5.804  18.321  0.00  0.00    +0.000 A 
ATOM     34  H   UNL     1      48.966   2.640  19.199  0.00  0.00    +0.000 HD
ENDBRANCH  21  24
ENDBRANCH  19  20
ENDBRANCH   4  19
TORSDOF 7
ENDMDL
MODEL 3
REMARK VINA RESULT:    -7.096      1.941      2.538
REMARK INTER + INTRA:         -10.860
REMARK INTER:                  -9.695
REMARK INTRA:                  -1.165
REMARK UNBOUND:                -0.860
REMARK  Name = 
REMARK  7 active torsions:
REMARK  status: ('A' for Active; 'I' for Inactive)
REMARK    1  A    between atoms: C_2  and  C_3
REMARK    2  A    between atoms: C_6  and  C_7
REMARK    3  A    between atoms: N_9  and  C_10
REMARK    4  A    between atoms: C_10  and  C_11
REMARK    5  A    between atoms: C_14  and  C_15
REMARK    6  A    between atoms: C_15  and  N_16
REMARK    7  A    between atoms: C_17  and  C_19
REMARK                            x       y       z     vdW  Elec       q    Type
REMARK                         _______ _______ _______ _____ _____    ______ ____
ROOT
ATOM      1  C   UNL     1      44.393   4.703  12.826  0.00  0.00    +0.000 C 
ATOM      2  C   UNL     1      44.661   6.082  12.203  0.00  0.00    +0.000 C 
ATOM      3  C   UNL     1      45.748   6.854  12.946  0.00  0.00    +0.000 C 
ATOM      4  C   UNL     1      47.059   6.059  13.030  0.00  0.00    +0.000 C 
ATOM      5  C   UNL     1      46.800   4.690  13.679  0.00  0.00    +0.000 C 
ATOM      6  C   UNL     1      45.706   3.906  12.947  0.00  0.00    +0.000 C 
ENDROOT
BRANCH   1   7
ATOM      7  C   UNL     1      43.350   3.914  12.006  0.00  0.00    +0.000 C 
BRANCH   7  10
ATOM      8  C   UNL     1      44.037   3.661   9.632  0.00  0.00    +0.000 C 
ATOM      9  O   UNL     1      43.595   4.756   9.310  0.00  0.00    +0.000 OA
ATOM     10  N   UNL     1      43.937   3.150  10.910  0.00  0.00    +0.000 N 
ATOM     11  H   UNL     1      44.342   2.250  11.125  0.00  0.00    +0.000 HD
BRANCH   8  15
ATOM     12  C   UNL     1      46.902   2.131   7.644  0.00  0.00    +0.000 C 
ATOM     13  C   UNL     1      46.095   2.861   6.566  0.00  0.00    +0.000 C 
ATOM     14  C   UNL     1      44.756   3.257   7.205  0.00  0.00    +0.000 C 
ATOM     15  C   UNL     1      44.798   2.762   8.652  0.00  0.00    +0.000 C 
ATOM     16  C   UNL     1      46.297   2.636   8.951  0.00  0.00    +0.000 C 
BRANCH  12  18
ATOM     17  N   UNL     1      46.705  -0.487   7.407  0.00  0.00    +0.000 NA
ATOM     18  C   UNL     1      46.796   0.662   7.510  0.00  0.00    +0.000 C 
ENDBRANCH  12  18
ENDBRANCH   8  15
ENDBRANCH   7  10
ENDBRANCH   1   7
BRANCH   4  19
ATOM     19  C   UNL     1      48.136   6.829  13.812  0.00  0.00    +0.000 C 
BRANCH  19  20
ATOM     20  N   UNL     1      48.115   6.532  15.230  0.00  0.00    +0.000 N 
ATOM     21  C   UNL     1      49.257   6.517  15.993  0.00  0.00    +0.000 C 
ATOM     22  O   UNL     1      50.364   6.769  15.523  0.00  0.00    +0.000 OA
ATOM     23  H   UNL     1      47.261   6.134  15.608  0.00  0.00    +0.000 HD
BRANCH  21  24
ATOM     24  C   UNL     1      49.088   6.228  17.421  0.00  0.00    +0.000 A 
ATOM     25  C   UNL     1      49.515   5.013  17.940  0.00  0.00    +0.000 A 
ATOM     26  S   UNL     1      49.191   4.833  19.606  0.00  0.00    +0.000 S 
ATOM     27  C   UNL     1      48.460   6.367  19.686  0.00  0.00    +0.000 A 
ATOM     28  N   UNL     1      47.921   6.833  20.845  0.00  0.00    +0.000 NA
ATOM     29  C   UNL     1      47.406   8.014  20.758  0.00  0.00    +0.000 A 
ATOM     30  N   UNL     1      47.388   8.776  19.618  0.00  0.00    +0.000 N 
ATOM     31  C   UNL     1      47.912   8.346  18.422  0.00  0.00    +0.000 A 
ATOM     32  O   UNL     1      47.896   9.062  17.427  0.00  0.00    +0.000 OA
ATOM     33  C   UNL     1      48.495   7.020  18.467  0.00  0.00    +0.000 A 
ATOM     34  H   UNL     1      46.984   9.701  19.616  0.00  0.00    +0.000 HD
ENDBRANCH  21  24
ENDBRANCH  19  20
ENDBRANCH   4  19
TORSDOF 7
ENDMDL
MODEL 4
REMARK VINA RESULT:    -6.880      5.393      8.096
REMARK INTER + INTRA:         -10.555
REMARK INTER:                  -9.525
REMARK INTRA:                  -1.030
REMARK UNBOUND:                -0.860
REMARK  Name = 
REMARK  7 active torsions:
REMARK  status: ('A' for Active; 'I' for Inactive)
REMARK    1  A    between atoms: C_2  and  C_3
REMARK    2  A    between atoms: C_6  and  C_7
REMARK    3  A    between atoms: N_9  and  C_10
REMARK    4  A    between atoms: C_10  and  C_11
REMARK    5  A    between atoms: C_14  and  C_15
REMARK    6  A    between atoms: C_15  and  N_16
REMARK    7  A    between atoms: C_17  and  C_19
REMARK                            x       y       z     vdW  Elec       q    Type
REMARK                         _______ _______ _______ _____ _____    ______ ____
ROOT
ATOM      1  C   UNL     1      50.905   9.276  11.440  0.00  0.00    +0.000 C 
ATOM      2  C   UNL     1      50.573   7.778  11.356  0.00  0.00    +0.000 C 
ATOM      3  C   UNL     1      49.351   7.404  12.191  0.00  0.00    +0.000 C 
ATOM      4  C   UNL     1      48.118   8.232  11.802  0.00  0.00    +0.000 C 
ATOM      5  C   UNL     1      48.438   9.731  11.913  0.00  0.00    +0.000 C 
ATOM      6  C   UNL     1      49.666  10.119  11.084  0.00  0.00    +0.000 C 
ENDROOT
BRANCH   1   7
ATOM      7  C   UNL     1      52.092   9.636  10.523  0.00  0.00    +0.000 C 
BRANCH   7  10
ATOM      8  C   UNL     1      52.936   8.640   8.409  0.00  0.00    +0.000 C 
ATOM      9  O   UNL     1      52.828   9.688   7.785  0.00  0.00    +0.000 OA
ATOM     10  N   UNL     1      52.574   8.507   9.734  0.00  0.00    +0.000 N 
ATOM     11  H   UNL     1      52.709   7.624  10.205  0.00  0.00    +0.000 HD
BRANCH   8  15
ATOM     12  C   UNL     1      53.325   5.020   7.294  0.00  0.00    +0.000 C 
ATOM     13  C   UNL     1      54.372   5.145   8.404  0.00  0.00    +0.000 C 
ATOM     14  C   UNL     1      54.513   6.642   8.714  0.00  0.00    +0.000 C 
ATOM     15  C   UNL     1      53.539   7.375   7.790  0.00  0.00    +0.000 C 
ATOM     16  C   UNL     1      52.507   6.302   7.423  0.00  0.00    +0.000 C 
BRANCH  12  18
ATOM     17  N   UNL     1      54.433   4.791   4.913  0.00  0.00    +0.000 NA
ATOM     18  C   UNL     1      53.949   4.887   5.960  0.00  0.00    +0.000 C 
ENDBRANCH  12  18
ENDBRANCH   8  15
ENDBRANCH   7  10
ENDBRANCH   1   7
BRANCH   4  19
ATOM     19  C   UNL     1      46.903   7.876  12.674  0.00  0.00    +0.000 C 
BRANCH  19  20
ATOM     20  N   UNL     1      46.313   6.602  12.317  0.00  0.00    +0.000 N 
ATOM     21  C   UNL     1      45.102   6.508  11.676  0.00  0.00    +0.000 C 
ATOM     22  O   UNL     1      44.452   7.500  11.353  0.00  0.00    +0.000 OA
ATOM     23  H   UNL     1      46.719   5.771  12.734  0.00  0.00    +0.000 HD
BRANCH  21  24
ATOM     24  C   UNL     1      44.635   5.157  11.350  0.00  0.00    +0.000 A 
ATOM     25  C   UNL     1      43.818   4.470  12.237  0.00  0.00    +0.000 A 
ATOM     26  S   UNL     1      43.417   2.895  11.714  0.00  0.00    +0.000 S 
ATOM     27  C   UNL     1      44.331   3.076  10.290  0.00  0.00    +0.000 A 
ATOM     28  N   UNL     1      44.445   2.062   9.391  0.00  0.00    +0.000 NA
ATOM     29  C   UNL     1      45.165   2.344   8.357  0.00  0.00    +0.000 A 
ATOM     30  N   UNL     1      45.774   3.552   8.134  0.00  0.00    +0.000 N 
ATOM     31  C   UNL     1      45.695   4.603   9.017  0.00  0.00    +0.000 A 
ATOM     32  O   UNL     1      46.237   5.676   8.777  0.00  0.00    +0.000 OA
ATOM     33  C   UNL     1      44.904   4.332  10.200  0.00  0.00    +0.000 A 
ATOM     34  H   UNL     1      46.312   3.719   7.296  0.00  0.00    +0.000 HD
ENDBRANCH  21  24
ENDBRANCH  19  20
ENDBRANCH   4  19
TORSDOF 7
ENDMDL
MODEL 5
REMARK VINA RESULT:    -6.745      3.229      8.692
REMARK INTER + INTRA:         -10.366
REMARK INTER:                  -9.324
REMARK INTRA:                  -1.042
REMARK UNBOUND:                -0.860
REMARK  Name = 
REMARK  7 active torsions:
REMARK  status: ('A' for Active; 'I' for Inactive)
REMARK    1  A    between atoms: C_2  and  C_3
REMARK    2  A    between atoms: C_6  and  C_7
REMARK    3  A    between atoms: N_9  and  C_10
REMARK    4  A    between atoms: C_10  and  C_11
REMARK    5  A    between atoms: C_14  and  C_15
REMARK    6  A    between atoms: C_15  and  N_16
REMARK    7  A    between atoms: C_17  and  C_19
REMARK                            x       y       z     vdW  Elec       q    Type
REMARK                         _______ _______ _______ _____ _____    ______ ____
ROOT
ATOM      1  C   UNL     1      48.639   7.896  16.312  0.00  0.00    +0.000 C 
ATOM      2  C   UNL     1      48.935   6.656  15.455  0.00  0.00    +0.000 C 
ATOM      3  C   UNL     1      48.140   6.645  14.152  0.00  0.00    +0.000 C 
ATOM      4  C   UNL     1      48.379   7.917  13.325  0.00  0.00    +0.000 C 
ATOM      5  C   UNL     1      48.057   9.159  14.171  0.00  0.00    +0.000 C 
ATOM      6  C   UNL     1      48.844   9.179  15.484  0.00  0.00    +0.000 C 
ENDROOT
BRANCH   1   7
ATOM      7  C   UNL     1      49.517   7.919  17.581  0.00  0.00    +0.000 C 
BRANCH   7  10
ATOM      8  C   UNL     1      49.724   5.635  18.536  0.00  0.00    +0.000 C 
ATOM      9  O   UNL     1      48.643   5.696  19.107  0.00  0.00    +0.000 OA
ATOM     10  N   UNL     1      50.249   6.676  17.798  0.00  0.00    +0.000 N 
ATOM     11  H   UNL     1      51.136   6.561  17.327  0.00  0.00    +0.000 HD
BRANCH   8  15
ATOM     12  C   UNL     1      52.237   2.996  17.434  0.00  0.00    +0.000 C 
ATOM     13  C   UNL     1      50.901   2.256  17.324  0.00  0.00    +0.000 C 
ATOM     14  C   UNL     1      49.853   3.125  18.033  0.00  0.00    +0.000 C 
ATOM     15  C   UNL     1      50.585   4.368  18.541  0.00  0.00    +0.000 C 
ATOM     16  C   UNL     1      51.828   4.451  17.646  0.00  0.00    +0.000 C 
BRANCH  12  18
ATOM     17  N   UNL     1      53.710   2.068  19.414  0.00  0.00    +0.000 NA
ATOM     18  C   UNL     1      53.063   2.479  18.548  0.00  0.00    +0.000 C 
ENDBRANCH  12  18
ENDBRANCH   8  15
ENDBRANCH   7  10
ENDBRANCH   1   7
BRANCH   4  19
ATOM     19  C   UNL     1      47.546   7.915  12.034  0.00  0.00    +0.000 C 
BRANCH  19  20
ATOM     20  N   UNL     1      46.794   6.689  11.856  0.00  0.00    +0.000 N 
ATOM     21  C   UNL     1      45.435   6.683  11.657  0.00  0.00    +0.000 C 
ATOM     22  O   UNL     1      44.776   7.719  11.602  0.00  0.00    +0.000 OA
ATOM     23  H   UNL     1      47.265   5.820  12.086  0.00  0.00    +0.000 HD
BRANCH  21  24
ATOM     24  C   UNL     1      44.805   5.373  11.465  0.00  0.00    +0.000 A 
ATOM     25  C   UNL     1      44.015   4.827  12.467  0.00  0.00    +0.000 A 
ATOM     26  S   UNL     1      43.409   3.278  12.089  0.00  0.00    +0.000 S 
ATOM     27  C   UNL     1      44.191   3.281  10.577  0.00  0.00    +0.000 A 
ATOM     28  N   UNL     1      44.113   2.211   9.740  0.00  0.00    +0.000 NA
ATOM     29  C   UNL     1      44.751   2.357   8.627  0.00  0.00    +0.000 A 
ATOM     30  N   UNL     1      45.454   3.480   8.270  0.00  0.00    +0.000 N 
ATOM     31  C   UNL     1      45.568   4.581   9.085  0.00  0.00    +0.000 A 
ATOM     32  O   UNL     1      46.189   5.575   8.726  0.00  0.00    +0.000 OA
ATOM     33  C   UNL     1      44.876   4.461  10.352  0.00  0.00    +0.000 A 
ATOM     34  H   UNL     1      45.920   3.541   7.377  0.00  0.00    +0.000 HD
ENDBRANCH  21  24
ENDBRANCH  19  20
ENDBRANCH   4  19
TORSDOF 7
ENDMDL
MODEL 6
REMARK VINA RESULT:    -6.613      2.831      3.917
REMARK INTER + INTRA:         -10.180
REMARK INTER:                  -9.285
REMARK INTRA:                  -0.895
REMARK UNBOUND:                -0.860
REMARK  Name = 
REMARK  7 active torsions:
REMARK  status: ('A' for Active; 'I' for Inactive)
REMARK    1  A    between atoms: C_2  and  C_3
REMARK    2  A    between atoms: C_6  and  C_7
REMARK    3  A    between atoms: N_9  and  C_10
REMARK    4  A    between atoms: C_10  and  C_11
REMARK    5  A    between atoms: C_14  and  C_15
REMARK    6  A    between atoms: C_15  and  N_16
REMARK    7  A    between atoms: C_17  and  C_19
REMARK                            x       y       z     vdW  Elec       q    Type
REMARK                         _______ _______ _______ _____ _____    ______ ____
ROOT
ATOM      1  C   UNL     1      47.429   7.927  13.617  0.00  0.00    +0.000 C 
ATOM      2  C   UNL     1      48.289   9.175  13.868  0.00  0.00    +0.000 C 
ATOM      3  C   UNL     1      48.804   9.249  15.303  0.00  0.00    +0.000 C 
ATOM      4  C   UNL     1      49.591   7.990  15.693  0.00  0.00    +0.000 C 
ATOM      5  C   UNL     1      48.724   6.741  15.471  0.00  0.00    +0.000 C 
ATOM      6  C   UNL     1      48.195   6.657  14.036  0.00  0.00    +0.000 C 
ENDROOT
BRANCH   1   7
ATOM      7  C   UNL     1      46.992   7.838  12.140  0.00  0.00    +0.000 C 
BRANCH   7  10
ATOM      8  C   UNL     1      45.451   5.902  11.911  0.00  0.00    +0.000 C 
ATOM      9  O   UNL     1      44.541   6.462  12.511  0.00  0.00    +0.000 OA
ATOM     10  N   UNL     1      46.689   6.477  11.709  0.00  0.00    +0.000 N 
ATOM     11  H   UNL     1      47.395   5.979  11.185  0.00  0.00    +0.000 HD
BRANCH   8  15
ATOM     12  C   UNL     1      44.073   3.080   9.758  0.00  0.00    +0.000 C 
ATOM     13  C   UNL     1      43.725   2.623  11.178  0.00  0.00    +0.000 C 
ATOM     14  C   UNL     1      44.501   3.533  12.140  0.00  0.00    +0.000 C 
ATOM     15  C   UNL     1      45.286   4.519  11.274  0.00  0.00    +0.000 C 
ATOM     16  C   UNL     1      44.520   4.527   9.945  0.00  0.00    +0.000 C 
BRANCH  12  18
ATOM     17  N   UNL     1      45.965   1.592   8.683  0.00  0.00    +0.000 NA
ATOM     18  C   UNL     1      45.132   2.242   9.153  0.00  0.00    +0.000 C 
ENDBRANCH  12  18
ENDBRANCH   8  15
ENDBRANCH   7  10
ENDBRANCH   1   7
BRANCH   4  19
ATOM     19  C   UNL     1      50.073   8.057  17.151  0.00  0.00    +0.000 C 
BRANCH  19  20
ATOM     20  N   UNL     1      50.930   6.944  17.508  0.00  0.00    +0.000 N 
ATOM     21  C   UNL     1      50.537   5.969  18.391  0.00  0.00    +0.000 C 
ATOM     22  O   UNL     1      49.429   5.973  18.922  0.00  0.00    +0.000 OA
ATOM     23  H   UNL     1      51.909   7.011  17.246  0.00  0.00    +0.000 HD
BRANCH  21  24
ATOM     24  C   UNL     1      51.493   4.886  18.641  0.00  0.00    +0.000 A 
ATOM     25  C   UNL     1      52.617   5.116  19.424  0.00  0.00    +0.000 A 
ATOM     26  S   UNL     1      53.640   3.758  19.563  0.00  0.00    +0.000 S 
ATOM     27  C   UNL     1      52.622   2.821  18.573  0.00  0.00    +0.000 A 
ATOM     28  N   UNL     1      52.937   1.537  18.250  0.00  0.00    +0.000 NA
ATOM     29  C   UNL     1      52.070   0.948  17.496  0.00  0.00    +0.000 A 
ATOM     30  N   UNL     1      50.910   1.523  17.042  0.00  0.00    +0.000 N 
ATOM     31  C   UNL     1      50.553   2.817  17.334  0.00  0.00    +0.000 A 
ATOM     32  O   UNL     1      49.499   3.293  16.927  0.00  0.00    +0.000 OA
ATOM     33  C   UNL     1      51.501   3.525  18.171  0.00  0.00    +0.000 A 
ATOM     34  H   UNL     1      50.262   1.004  16.468  0.00  0.00    +0.000 HD
ENDBRANCH  21  24
ENDBRANCH  19  20
ENDBRANCH   4  19
TORSDOF 7
ENDMDL
MODEL 7
REMARK VINA RESULT:    -6.443      1.873      2.157
REMARK INTER + INTRA:          -9.940
REMARK INTER:                  -8.762
REMARK INTRA:                  -1.177
REMARK UNBOUND:                -0.860
REMARK  Name = 
REMARK  7 active torsions:
REMARK  status: ('A' for Active; 'I' for Inactive)
REMARK    1  A    between atoms: C_2  and  C_3
REMARK    2  A    between atoms: C_6  and  C_7
REMARK    3  A    between atoms: N_9  and  C_10
REMARK    4  A    between atoms: C_10  and  C_11
REMARK    5  A    between atoms: C_14  and  C_15
REMARK    6  A    between atoms: C_15  and  N_16
REMARK    7  A    between atoms: C_17  and  C_19
REMARK                            x       y       z     vdW  Elec       q    Type
REMARK                         _______ _______ _______ _____ _____    ______ ____
ROOT
ATOM      1  C   UNL     1      44.429   6.757  12.064  0.00  0.00    +0.000 C 
ATOM      2  C   UNL     1      44.678   8.098  11.358  0.00  0.00    +0.000 C 
ATOM      3  C   UNL     1      45.682   8.972  12.105  0.00  0.00    +0.000 C 
ATOM      4  C   UNL     1      47.017   8.247  12.327  0.00  0.00    +0.000 C 
ATOM      5  C   UNL     1      46.775   6.918  13.060  0.00  0.00    +0.000 C 
ATOM      6  C   UNL     1      45.764   6.033  12.323  0.00  0.00    +0.000 C 
ENDROOT
BRANCH   1   7
ATOM      7  C   UNL     1      43.475   5.864  11.244  0.00  0.00    +0.000 C 
BRANCH   7  10
ATOM      8  C   UNL     1      43.913   3.604  10.309  0.00  0.00    +0.000 C 
ATOM      9  O   UNL     1      43.133   3.054  11.076  0.00  0.00    +0.000 OA
ATOM     10  N   UNL     1      44.171   4.959  10.335  0.00  0.00    +0.000 N 
ATOM     11  H   UNL     1      44.806   5.363   9.660  0.00  0.00    +0.000 HD
BRANCH   8  15
ATOM     12  C   UNL     1      46.683   2.476   7.953  0.00  0.00    +0.000 C 
ATOM     13  C   UNL     1      45.710   3.192   7.011  0.00  0.00    +0.000 C 
ATOM     14  C   UNL     1      44.414   3.419   7.802  0.00  0.00    +0.000 C 
ATOM     15  C   UNL     1      44.646   2.843   9.200  0.00  0.00    +0.000 C 
ATOM     16  C   UNL     1      46.173   2.840   9.344  0.00  0.00    +0.000 C 
BRANCH  12  18
ATOM     17  N   UNL     1      46.711  -0.129   7.551  0.00  0.00    +0.000 NA
ATOM     18  C   UNL     1      46.694   1.014   7.727  0.00  0.00    +0.000 C 
ENDBRANCH  12  18
ENDBRANCH   8  15
ENDBRANCH   7  10
ENDBRANCH   1   7
BRANCH   4  19
ATOM     19  C   UNL     1      48.008   9.120  13.114  0.00  0.00    +0.000 C 
BRANCH  19  20
ATOM     20  N   UNL     1      49.043   8.343  13.765  0.00  0.00    +0.000 N 
ATOM     21  C   UNL     1      49.963   8.910  14.613  0.00  0.00    +0.000 C 
ATOM     22  O   UNL     1      49.955  10.109  14.882  0.00  0.00    +0.000 OA
ATOM     23  H   UNL     1      49.200   7.401  13.421  0.00  0.00    +0.000 HD
BRANCH  21  24
ATOM     24  C   UNL     1      50.938   8.002  15.225  0.00  0.00    +0.000 A 
ATOM     25  C   UNL     1      52.294   8.167  14.976  0.00  0.00    +0.000 A 
ATOM     26  S   UNL     1      53.273   6.990  15.729  0.00  0.00    +0.000 S 
ATOM     27  C   UNL     1      51.917   6.214  16.403  0.00  0.00    +0.000 A 
ATOM     28  N   UNL     1      52.049   5.086  17.154  0.00  0.00    +0.000 NA
ATOM     29  C   UNL     1      50.935   4.612  17.603  0.00  0.00    +0.000 A 
ATOM     30  N   UNL     1      49.702   5.167  17.379  0.00  0.00    +0.000 N 
ATOM     31  C   UNL     1      49.517   6.299  16.622  0.00  0.00    +0.000 A 
ATOM     32  O   UNL     1      48.401   6.779  16.458  0.00  0.00    +0.000 OA
ATOM     33  C   UNL     1      50.738   6.865  16.086  0.00  0.00    +0.000 A 
ATOM     34  H   UNL     1      48.867   4.757  17.773  0.00  0.00    +0.000 HD
ENDBRANCH  21  24
ENDBRANCH  19  20
ENDBRANCH   4  19
TORSDOF 7
ENDMDL
MODEL 8
REMARK VINA RESULT:    -5.957      5.631      7.778
REMARK INTER + INTRA:          -9.255
REMARK INTER:                  -8.669
REMARK INTRA:                  -0.585
REMARK UNBOUND:                -0.860
REMARK  Name = 
REMARK  7 active torsions:
REMARK  status: ('A' for Active; 'I' for Inactive)
REMARK    1  A    between atoms: C_2  and  C_3
REMARK    2  A    between atoms: C_6  and  C_7
REMARK    3  A    between atoms: N_9  and  C_10
REMARK    4  A    between atoms: C_10  and  C_11
REMARK    5  A    between atoms: C_14  and  C_15
REMARK    6  A    between atoms: C_15  and  N_16
REMARK    7  A    between atoms: C_17  and  C_19
REMARK                            x       y       z     vdW  Elec       q    Type
REMARK                         _______ _______ _______ _____ _____    ______ ____
ROOT
ATOM      1  C   UNL     1      51.632   9.441  10.739  0.00  0.00    +0.000 C 
ATOM      2  C   UNL     1      51.951   9.832  12.190  0.00  0.00    +0.000 C 
ATOM      3  C   UNL     1      50.838   9.439  13.157  0.00  0.00    +0.000 C 
ATOM      4  C   UNL     1      50.520   7.939  13.082  0.00  0.00    +0.000 C 
ATOM      5  C   UNL     1      50.171   7.550  11.637  0.00  0.00    +0.000 C 
ATOM      6  C   UNL     1      51.277   7.944  10.654  0.00  0.00    +0.000 C 
ENDROOT
BRANCH   1   7
ATOM      7  C   UNL     1      52.808   9.778   9.798  0.00  0.00    +0.000 C 
BRANCH   7  10
ATOM      8  C   UNL     1      54.505   8.263   8.798  0.00  0.00    +0.000 C 
ATOM      9  O   UNL     1      55.443   8.837   9.338  0.00  0.00    +0.000 OA
ATOM     10  N   UNL     1      53.192   8.666   8.936  0.00  0.00    +0.000 N 
ATOM     11  H   UNL     1      52.456   8.139   8.487  0.00  0.00    +0.000 HD
BRANCH   8  15
ATOM     12  C   UNL     1      53.924   4.787   7.357  0.00  0.00    +0.000 C 
ATOM     13  C   UNL     1      55.211   4.606   8.167  0.00  0.00    +0.000 C 
ATOM     14  C   UNL     1      55.702   6.011   8.541  0.00  0.00    +0.000 C 
ATOM     15  C   UNL     1      54.692   6.999   7.954  0.00  0.00    +0.000 C 
ATOM     16  C   UNL     1      53.418   6.162   7.786  0.00  0.00    +0.000 C 
BRANCH  12  18
ATOM     17  N   UNL     1      54.364   4.649   4.762  0.00  0.00    +0.000 NA
ATOM     18  C   UNL     1      54.174   4.713   5.901  0.00  0.00    +0.000 C 
ENDBRANCH  12  18
ENDBRANCH   8  15
ENDBRANCH   7  10
ENDBRANCH   1   7
BRANCH   4  19
ATOM     19  C   UNL     1      49.372   7.559  14.032  0.00  0.00    +0.000 C 
BRANCH  19  20
ATOM     20  N   UNL     1      48.138   7.268  13.330  0.00  0.00    +0.000 N 
ATOM     21  C   UNL     1      47.347   6.193  13.651  0.00  0.00    +0.000 C 
ATOM     22  O   UNL     1      47.630   5.420  14.564  0.00  0.00    +0.000 OA
ATOM     23  H   UNL     1      47.975   7.762  12.459  0.00  0.00    +0.000 HD
BRANCH  21  24
ATOM     24  C   UNL     1      46.112   6.032  12.877  0.00  0.00    +0.000 A 
ATOM     25  C   UNL     1      45.461   7.147  12.367  0.00  0.00    +0.000 A 
ATOM     26  S   UNL     1      44.016   6.772  11.540  0.00  0.00    +0.000 S 
ATOM     27  C   UNL     1      44.208   5.109  11.846  0.00  0.00    +0.000 A 
ATOM     28  N   UNL     1      43.280   4.203  11.432  0.00  0.00    +0.000 NA
ATOM     29  C   UNL     1      43.561   2.979  11.729  0.00  0.00    +0.000 A 
ATOM     30  N   UNL     1      44.689   2.575  12.396  0.00  0.00    +0.000 N 
ATOM     31  C   UNL     1      45.649   3.452  12.840  0.00  0.00    +0.000 A 
ATOM     32  O   UNL     1      46.655   3.054  13.416  0.00  0.00    +0.000 OA
ATOM     33  C   UNL     1      45.375   4.842  12.538  0.00  0.00    +0.000 A 
ATOM     34  H   UNL     1      44.861   1.598  12.585  0.00  0.00    +0.000 HD
ENDBRANCH  21  24
ENDBRANCH  19  20
ENDBRANCH   4  19
TORSDOF 7
ENDMDL
MODEL 9
REMARK VINA RESULT:    -5.779      3.083      8.756
REMARK INTER + INTRA:          -9.005
REMARK INTER:                  -8.460
REMARK INTRA:                  -0.545
REMARK UNBOUND:                -0.860
REMARK  Name = 
REMARK  7 active torsions:
REMARK  status: ('A' for Active; 'I' for Inactive)
REMARK    1  A    between atoms: C_2  and  C_3
REMARK    2  A    between atoms: C_6  and  C_7
REMARK    3  A    between atoms: N_9  and  C_10
REMARK    4  A    between atoms: C_10  and  C_11
REMARK    5  A    between atoms: C_14  and  C_15
REMARK    6  A    between atoms: C_15  and  N_16
REMARK    7  A    between atoms: C_17  and  C_19
REMARK                            x       y       z     vdW  Elec       q    Type
REMARK                         _______ _______ _______ _____ _____    ______ ____
ROOT
ATOM      1  C   UNL     1      50.210   8.691  12.858  0.00  0.00    +0.000 C 
ATOM      2  C   UNL     1      49.217   9.508  13.699  0.00  0.00    +0.000 C 
ATOM      3  C   UNL     1      47.853   9.638  13.026  0.00  0.00    +0.000 C 
ATOM      4  C   UNL     1      47.247   8.267  12.694  0.00  0.00    +0.000 C 
ATOM      5  C   UNL     1      48.225   7.457  11.829  0.00  0.00    +0.000 C 
ATOM      6  C   UNL     1      49.600   7.325  12.490  0.00  0.00    +0.000 C 
ENDROOT
BRANCH   1   7
ATOM      7  C   UNL     1      51.550   8.508  13.601  0.00  0.00    +0.000 C 
BRANCH   7  10
ATOM      8  C   UNL     1      51.474   7.980  16.028  0.00  0.00    +0.000 C 
ATOM      9  O   UNL     1      51.602   9.151  16.362  0.00  0.00    +0.000 OA
ATOM     10  N   UNL     1      51.470   7.565  14.712  0.00  0.00    +0.000 N 
ATOM     11  H   UNL     1      51.336   6.588  14.493  0.00  0.00    +0.000 HD
BRANCH   8  15
ATOM     12  C   UNL     1      51.602   4.551  17.677  0.00  0.00    +0.000 C 
ATOM     13  C   UNL     1      50.127   4.684  17.290  0.00  0.00    +0.000 C 
ATOM     14  C   UNL     1      49.902   6.150  16.894  0.00  0.00    +0.000 C 
ATOM     15  C   UNL     1      51.250   6.856  17.044  0.00  0.00    +0.000 C 
ATOM     16  C   UNL     1      52.272   5.716  16.954  0.00  0.00    +0.000 C 
BRANCH  12  18
ATOM     17  N   UNL     1      51.949   4.663  20.289  0.00  0.00    +0.000 NA
ATOM     18  C   UNL     1      51.795   4.618  19.143  0.00  0.00    +0.000 C 
ENDBRANCH  12  18
ENDBRANCH   8  15
ENDBRANCH   7  10
ENDBRANCH   1   7
BRANCH   4  19
ATOM     19  C   UNL     1      45.891   8.408  11.982  0.00  0.00    +0.000 C 
BRANCH  19  20
ATOM     20  N   UNL     1      45.390   7.145  11.479  0.00  0.00    +0.000 N 
ATOM     21  C   UNL     1      45.250   6.040  12.281  0.00  0.00    +0.000 C 
ATOM     22  O   UNL     1      45.527   6.058  13.478  0.00  0.00    +0.000 OA
ATOM     23  H   UNL     1      45.336   7.037  10.471  0.00  0.00    +0.000 HD
BRANCH  21  24
ATOM     24  C   UNL     1      44.706   4.834  11.648  0.00  0.00    +0.000 A 
ATOM     25  C   UNL     1      43.870   3.989  12.364  0.00  0.00    +0.000 A 
ATOM     26  S   UNL     1      43.377   2.612  11.484  0.00  0.00    +0.000 S 
ATOM     27  C   UNL     1      44.273   3.096  10.120  0.00  0.00    +0.000 A 
ATOM     28  N   UNL     1      44.316   2.330   8.996  0.00  0.00    +0.000 NA
ATOM     29  C   UNL     1      45.030   2.824   8.041  0.00  0.00    +0.000 A 
ATOM     30  N   UNL     1      45.699   4.020   8.103  0.00  0.00    +0.000 N 
ATOM     31  C   UNL     1      45.692   4.823   9.218  0.00  0.00    +0.000 A 
ATOM     32  O   UNL     1      46.286   5.895   9.232  0.00  0.00    +0.000 OA
ATOM     33  C   UNL     1      44.910   4.306  10.323  0.00  0.00    +0.000 A 
ATOM     34  H   UNL     1      46.229   4.362   7.315  0.00  0.00    +0.000 HD
ENDBRANCH  21  24
ENDBRANCH  19  20
ENDBRANCH   4  19
TORSDOF 7
ENDMDL
