MODEL 1
REMARK VINA RESULT:    -8.191      0.000      0.000
REMARK INTER + INTRA:         -10.451
REMARK INTER:                  -9.867
REMARK INTRA:                  -0.584
REMARK UNBOUND:                -0.584
REMARK  Name = 
REMARK  4 active torsions:
REMARK  status: ('A' for Active; 'I' for Inactive)
REMARK    1  A    between atoms: N_1  and  C_2
REMARK    2  A    between atoms: C_2  and  C_3
REMARK    3  A    between atoms: C_6  and  C_7
REMARK    4  A    between atoms: C_7  and  C_8
REMARK                            x       y       z     vdW  Elec       q    Type
REMARK                         _______ _______ _______ _____ _____    ______ ____
ROOT
ATOM      1  C   UNL     1      43.953   4.086  10.366  0.00  0.00    +0.000 C 
ENDROOT
BRANCH   1   2
ATOM      2  C   UNL     1      44.744   4.250  11.621  0.00  0.00    +0.000 A 
ATOM      3  N   UNL     1      44.534   3.436  12.668  0.00  0.00    +0.000 NA
ATOM      4  N   UNL     1      45.415   3.862  13.591  0.00  0.00    +0.000 N 
ATOM      5  C   UNL     1      46.157   4.936  13.197  0.00  0.00    +0.000 A 
ATOM      6  C   UNL     1      47.151   5.662  13.847  0.00  0.00    +0.000 A 
ATOM      7  F   UNL     1      47.544   5.344  15.086  0.00  0.00    +0.000 F 
ATOM      8  C   UNL     1      47.733   6.735  13.175  0.00  0.00    +0.000 A 
ATOM      9  C   UNL     1      47.315   7.071  11.887  0.00  0.00    +0.000 A 
ATOM     10  C   UNL     1      46.313   6.331  11.241  0.00  0.00    +0.000 A 
ATOM     11  C   UNL     1      45.731   5.236  11.910  0.00  0.00    +0.000 A 
ATOM     12  H   UNL     1      45.456   3.380  14.483  0.00  0.00    +0.000 HD
ENDBRANCH   1   2
BRANCH   1  16
ATOM     13  C   UNL     1      46.555   2.284   7.504  0.00  0.00    +0.000 A 
ATOM     14  C   UNL     1      46.344   3.658   7.431  0.00  0.00    +0.000 A 
ATOM     15  C   UNL     1      45.501   4.263   8.361  0.00  0.00    +0.000 A 
ATOM     16  C   UNL     1      44.885   3.488   9.348  0.00  0.00    +0.000 A 
ATOM     17  C   UNL     1      45.173   2.125   9.354  0.00  0.00    +0.000 A 
ATOM     18  N   UNL     1      45.981   1.511   8.459  0.00  0.00    +0.000 NA
BRANCH  13  19
ATOM     19  C   UNL     1      47.467   1.598   6.509  0.00  0.00    +0.000 C 
BRANCH  19  20
ATOM     20  N   UNL     1      48.637   2.411   6.161  0.00  0.00    +0.000 NA
ATOM     21  H   UNL     1      48.916   2.180   5.209  0.00  0.00    +0.000 HD
ATOM     22  H   UNL     1      49.408   2.108   6.757  0.00  0.00    +0.000 HD
ENDBRANCH  19  20
ENDBRANCH  13  19
ENDBRANCH   1  16
TORSDOF 4
ENDMDL
MODEL 2
REMARK VINA RESULT:    -7.848      2.674      5.933
REMARK INTER + INTRA:         -10.038
REMARK INTER:                  -9.460
REMARK INTRA:                  -0.578
REMARK UNBOUND:                -0.584
REMARK  Name = 
REMARK  4 active torsions:
REMARK  status: ('A' for Active; 'I' for Inactive)
REMARK    1  A    between atoms: N_1  and  C_2
REMARK    2  A    between atoms: C_2  and  C_3
REMARK    3  A    between atoms: C_6  and  C_7
REMARK    4  A    between atoms: C_7  and  C_8
REMARK                            x       y       z     vdW  Elec       q    Type
REMARK                         _______ _______ _______ _____ _____    ______ ____
ROOT
ATOM      1  C   UNL     1      44.052   4.751   9.839  0.00  0.00    +0.000 C 
ENDROOT
BRANCH   1   2
ATOM      2  C   UNL     1      44.557   3.409   9.423  0.00  0.00    +0.000 A 
ATOM      3  N   UNL     1      44.046   2.292   9.967  0.00  0.00    +0.000 NA
ATOM      4  N   UNL     1      44.717   1.299   9.356  0.00  0.00    +0.000 N 
ATOM      5  C   UNL     1      45.660   1.729   8.469  0.00  0.00    +0.000 A 
ATOM      6  C   UNL     1      46.549   1.033   7.656  0.00  0.00    +0.000 A 
ATOM      7  F   UNL     1      46.578  -0.305   7.646  0.00  0.00    +0.000 F 
ATOM      8  C   UNL     1      47.414   1.764   6.845  0.00  0.00    +0.000 A 
ATOM      9  C   UNL     1      47.389   3.159   6.863  0.00  0.00    +0.000 A 
ATOM     10  C   UNL     1      46.488   3.850   7.687  0.00  0.00    +0.000 A 
ATOM     11  C   UNL     1      45.600   3.115   8.499  0.00  0.00    +0.000 A 
ATOM     12  H   UNL     1      44.490   0.340   9.595  0.00  0.00    +0.000 HD
ENDBRANCH   1   2
BRANCH   1  16
ATOM     13  C   UNL     1      46.710   6.099  12.894  0.00  0.00    +0.000 A 
ATOM     14  C   UNL     1      46.888   6.585  11.602  0.00  0.00    +0.000 A 
ATOM     15  C   UNL     1      46.025   6.159  10.593  0.00  0.00    +0.000 A 
ATOM     16  C   UNL     1      45.000   5.258  10.891  0.00  0.00    +0.000 A 
ATOM     17  C   UNL     1      44.888   4.842  12.216  0.00  0.00    +0.000 A 
ATOM     18  N   UNL     1      45.715   5.234  13.213  0.00  0.00    +0.000 NA
BRANCH  13  19
ATOM     19  C   UNL     1      47.630   6.544  14.011  0.00  0.00    +0.000 C 
BRANCH  19  20
ATOM     20  N   UNL     1      47.773   5.532  15.063  0.00  0.00    +0.000 NA
ATOM     21  H   UNL     1      47.417   4.647  14.706  0.00  0.00    +0.000 HD
ATOM     22  H   UNL     1      47.151   5.795  15.827  0.00  0.00    +0.000 HD
ENDBRANCH  19  20
ENDBRANCH  13  19
ENDBRANCH   1  16
TORSDOF 4
ENDMDL
MODEL 3
REMARK VINA RESULT:    -7.451      2.714      6.345
REMARK INTER + INTRA:          -9.560
REMARK INTER:                  -9.094
REMARK INTRA:                  -0.466
REMARK UNBOUND:                -0.584
REMARK  Name = 
REMARK  4 active torsions:
REMARK  status: ('A' for Active; 'I' for Inactive)
REMARK    1  A    between atoms: N_1  and  C_2
REMARK    2  A    between atoms: C_2  and  C_3
REMARK    3  A    between atoms: C_6  and  C_7
REMARK    4  A    between atoms: C_7  and  C_8
REMARK                            x       y       z     vdW  Elec       q    Type
REMARK                         _______ _______ _______ _____ _____    ______ ____
ROOT
ATOM      1  C   UNL     1      44.374   4.367  10.072  0.00  0.00    +0.000 C 
ENDROOT
BRANCH   1   2
ATOM      2  C   UNL     1      45.389   4.116   9.007  0.00  0.00    +0.000 A 
ATOM      3  N   UNL     1      45.996   5.143   8.390  0.00  0.00    +0.000 NA
ATOM      4  N   UNL     1      46.835   4.550   7.523  0.00  0.00    +0.000 N 
ATOM      5  C   UNL     1      46.771   3.188   7.530  0.00  0.00    +0.000 A 
ATOM      6  C   UNL     1      47.457   2.226   6.795  0.00  0.00    +0.000 A 
ATOM      7  F   UNL     1      48.379   2.573   5.889  0.00  0.00    +0.000 F 
ATOM      8  C   UNL     1      47.162   0.884   7.025  0.00  0.00    +0.000 A 
ATOM      9  C   UNL     1      46.195   0.524   7.964  0.00  0.00    +0.000 A 
ATOM     10  C   UNL     1      45.509   1.503   8.699  0.00  0.00    +0.000 A 
ATOM     11  C   UNL     1      45.814   2.862   8.481  0.00  0.00    +0.000 A 
ATOM     12  H   UNL     1      47.427   5.135   6.942  0.00  0.00    +0.000 HD
ENDBRANCH   1   2
BRANCH   1  16
ATOM     13  C   UNL     1      46.525   4.403  13.758  0.00  0.00    +0.000 A 
ATOM     14  C   UNL     1      46.285   5.618  13.121  0.00  0.00    +0.000 A 
ATOM     15  C   UNL     1      45.579   5.624  11.919  0.00  0.00    +0.000 A 
ATOM     16  C   UNL     1      45.125   4.420  11.375  0.00  0.00    +0.000 A 
ATOM     17  C   UNL     1      45.395   3.258  12.094  0.00  0.00    +0.000 A 
ATOM     18  N   UNL     1      46.083   3.222  13.259  0.00  0.00    +0.000 NA
BRANCH  13  19
ATOM     19  C   UNL     1      47.286   4.364  15.066  0.00  0.00    +0.000 C 
BRANCH  19  20
ATOM     20  N   UNL     1      46.405   4.211  16.229  0.00  0.00    +0.000 NA
ATOM     21  H   UNL     1      46.382   5.096  16.732  0.00  0.00    +0.000 HD
ATOM     22  H   UNL     1      46.847   3.543  16.861  0.00  0.00    +0.000 HD
ENDBRANCH  19  20
ENDBRANCH  13  19
ENDBRANCH   1  16
TORSDOF 4
ENDMDL
MODEL 4
REMARK VINA RESULT:    -7.415      1.938      2.151
REMARK INTER + INTRA:          -9.516
REMARK INTER:                  -9.293
REMARK INTRA:                  -0.223
REMARK UNBOUND:                -0.584
REMARK  Name = 
REMARK  4 active torsions:
REMARK  status: ('A' for Active; 'I' for Inactive)
REMARK    1  A    between atoms: N_1  and  C_2
REMARK    2  A    between atoms: C_2  and  C_3
REMARK    3  A    between atoms: C_6  and  C_7
REMARK    4  A    between atoms: C_7  and  C_8
REMARK                            x       y       z     vdW  Elec       q    Type
REMARK                         _______ _______ _______ _____ _____    ______ ____
ROOT
ATOM      1  C   UNL     1      44.078   3.350  10.782  0.00  0.00    +0.000 C 
ENDROOT
BRANCH   1   2
ATOM      2  C   UNL     1      44.072   4.806  11.111  0.00  0.00    +0.000 A 
ATOM      3  N   UNL     1      43.033   5.580  10.753  0.00  0.00    +0.000 NA
ATOM      4  N   UNL     1      43.363   6.799  11.216  0.00  0.00    +0.000 N 
ATOM      5  C   UNL     1      44.582   6.851  11.825  0.00  0.00    +0.000 A 
ATOM      6  C   UNL     1      45.274   7.902  12.420  0.00  0.00    +0.000 A 
ATOM      7  F   UNL     1      44.753   9.133  12.473  0.00  0.00    +0.000 F 
ATOM      8  C   UNL     1      46.531   7.643  12.963  0.00  0.00    +0.000 A 
ATOM      9  C   UNL     1      47.076   6.360  12.899  0.00  0.00    +0.000 A 
ATOM     10  C   UNL     1      46.369   5.308  12.298  0.00  0.00    +0.000 A 
ATOM     11  C   UNL     1      45.091   5.561  11.759  0.00  0.00    +0.000 A 
ATOM     12  H   UNL     1      42.712   7.564  11.077  0.00  0.00    +0.000 HD
ENDBRANCH   1   2
BRANCH   1  16
ATOM     13  C   UNL     1      46.422   2.798   7.258  0.00  0.00    +0.000 A 
ATOM     14  C   UNL     1      46.068   4.095   7.620  0.00  0.00    +0.000 A 
ATOM     15  C   UNL     1      45.308   4.293   8.771  0.00  0.00    +0.000 A 
ATOM     16  C   UNL     1      44.914   3.196   9.541  0.00  0.00    +0.000 A 
ATOM     17  C   UNL     1      45.332   1.938   9.111  0.00  0.00    +0.000 A 
ATOM     18  N   UNL     1      46.065   1.716   7.995  0.00  0.00    +0.000 NA
BRANCH  13  19
ATOM     19  C   UNL     1      47.249   2.551   6.015  0.00  0.00    +0.000 C 
BRANCH  19  20
ATOM     20  N   UNL     1      48.496   1.832   6.300  0.00  0.00    +0.000 NA
ATOM     21  H   UNL     1      48.416   0.890   5.920  0.00  0.00    +0.000 HD
ATOM     22  H   UNL     1      48.559   1.720   7.312  0.00  0.00    +0.000 HD
ENDBRANCH  19  20
ENDBRANCH  13  19
ENDBRANCH   1  16
TORSDOF 4
ENDMDL
MODEL 5
REMARK VINA RESULT:    -6.112      4.235      7.230
REMARK INTER + INTRA:          -7.947
REMARK INTER:                  -7.706
REMARK INTRA:                  -0.241
REMARK UNBOUND:                -0.584
REMARK  Name = 
REMARK  4 active torsions:
REMARK  status: ('A' for Active; 'I' for Inactive)
REMARK    1  A    between atoms: N_1  and  C_2
REMARK    2  A    between atoms: C_2  and  C_3
REMARK    3  A    between atoms: C_6  and  C_7
REMARK    4  A    between atoms: C_7  and  C_8
REMARK                            x       y       z     vdW  Elec       q    Type
REMARK                         _______ _______ _______ _____ _____    ______ ____
ROOT
ATOM      1  C   UNL     1      46.978   4.219  16.306  0.00  0.00    +0.000 C 
ENDROOT
BRANCH   1   2
ATOM      2  C   UNL     1      47.252   5.028  15.082  0.00  0.00    +0.000 A 
ATOM      3  N   UNL     1      48.292   5.878  15.047  0.00  0.00    +0.000 NA
ATOM      4  N   UNL     1      48.235   6.409  13.812  0.00  0.00    +0.000 N 
ATOM      5  C   UNL     1      47.185   5.964  13.064  0.00  0.00    +0.000 A 
ATOM      6  C   UNL     1      46.781   6.266  11.767  0.00  0.00    +0.000 A 
ATOM      7  F   UNL     1      47.466   7.132  11.011  0.00  0.00    +0.000 F 
ATOM      8  C   UNL     1      45.638   5.643  11.269  0.00  0.00    +0.000 A 
ATOM      9  C   UNL     1      44.919   4.748  12.062  0.00  0.00    +0.000 A 
ATOM     10  C   UNL     1      45.337   4.450  13.368  0.00  0.00    +0.000 A 
ATOM     11  C   UNL     1      46.501   5.067  13.872  0.00  0.00    +0.000 A 
ATOM     12  H   UNL     1      48.943   7.082  13.540  0.00  0.00    +0.000 HD
ENDBRANCH   1   2
BRANCH   1  16
ATOM     13  C   UNL     1      50.616   2.170  17.190  0.00  0.00    +0.000 A 
ATOM     14  C   UNL     1      50.343   3.354  17.870  0.00  0.00    +0.000 A 
ATOM     15  C   UNL     1      49.157   4.033  17.597  0.00  0.00    +0.000 A 
ATOM     16  C   UNL     1      48.264   3.519  16.652  0.00  0.00    +0.000 A 
ATOM     17  C   UNL     1      48.614   2.319  16.038  0.00  0.00    +0.000 A 
ATOM     18  N   UNL     1      49.761   1.642  16.279  0.00  0.00    +0.000 NA
BRANCH  13  19
ATOM     19  C   UNL     1      51.895   1.409  17.466  0.00  0.00    +0.000 C 
BRANCH  19  20
ATOM     20  N   UNL     1      51.659   0.143  18.169  0.00  0.00    +0.000 NA
ATOM     21  H   UNL     1      52.007   0.236  19.122  0.00  0.00    +0.000 HD
ATOM     22  H   UNL     1      52.245  -0.565  17.727  0.00  0.00    +0.000 HD
ENDBRANCH  19  20
ENDBRANCH  13  19
ENDBRANCH   1  16
TORSDOF 4
ENDMDL
MODEL 6
REMARK VINA RESULT:    -6.019      4.611      7.230
REMARK INTER + INTRA:          -7.835
REMARK INTER:                  -7.267
REMARK INTRA:                  -0.568
REMARK UNBOUND:                -0.584
REMARK  Name = 
REMARK  4 active torsions:
REMARK  status: ('A' for Active; 'I' for Inactive)
REMARK    1  A    between atoms: N_1  and  C_2
REMARK    2  A    between atoms: C_2  and  C_3
REMARK    3  A    between atoms: C_6  and  C_7
REMARK    4  A    between atoms: C_7  and  C_8
REMARK                            x       y       z     vdW  Elec       q    Type
REMARK                         _______ _______ _______ _____ _____    ______ ____
ROOT
ATOM      1  C   UNL     1      47.122   4.303  16.730  0.00  0.00    +0.000 C 
ENDROOT
BRANCH   1   2
ATOM      2  C   UNL     1      47.097   4.742  15.303  0.00  0.00    +0.000 A 
ATOM      3  N   UNL     1      46.323   4.103  14.409  0.00  0.00    +0.000 NA
ATOM      4  N   UNL     1      46.542   4.767  13.260  0.00  0.00    +0.000 N 
ATOM      5  C   UNL     1      47.448   5.782  13.367  0.00  0.00    +0.000 A 
ATOM      6  C   UNL     1      47.941   6.683  12.429  0.00  0.00    +0.000 A 
ATOM      7  F   UNL     1      47.526   6.657  11.157  0.00  0.00    +0.000 F 
ATOM      8  C   UNL     1      48.883   7.621  12.846  0.00  0.00    +0.000 A 
ATOM      9  C   UNL     1      49.322   7.641  14.170  0.00  0.00    +0.000 A 
ATOM     10  C   UNL     1      48.816   6.727  15.108  0.00  0.00    +0.000 A 
ATOM     11  C   UNL     1      47.852   5.785  14.695  0.00  0.00    +0.000 A 
ATOM     12  H   UNL     1      46.045   4.472  12.426  0.00  0.00    +0.000 HD
ENDBRANCH   1   2
BRANCH   1  16
ATOM     13  C   UNL     1      50.739   2.084  17.183  0.00  0.00    +0.000 A 
ATOM     14  C   UNL     1      50.650   3.333  17.791  0.00  0.00    +0.000 A 
ATOM     15  C   UNL     1      49.474   4.069  17.657  0.00  0.00    +0.000 A 
ATOM     16  C   UNL     1      48.408   3.546  16.921  0.00  0.00    +0.000 A 
ATOM     17  C   UNL     1      48.582   2.280  16.366  0.00  0.00    +0.000 A 
ATOM     18  N   UNL     1      49.715   1.547  16.474  0.00  0.00    +0.000 NA
BRANCH  13  19
ATOM     19  C   UNL     1      52.003   1.261  17.312  0.00  0.00    +0.000 C 
BRANCH  19  20
ATOM     20  N   UNL     1      51.825   0.083  18.169  0.00  0.00    +0.000 NA
ATOM     21  H   UNL     1      52.123  -0.740  17.648  0.00  0.00    +0.000 HD
ATOM     22  H   UNL     1      50.823  -0.034  18.323  0.00  0.00    +0.000 HD
ENDBRANCH  19  20
ENDBRANCH  13  19
ENDBRANCH   1  16
TORSDOF 4
ENDMDL
MODEL 7
REMARK VINA RESULT:    -5.954      3.235      6.188
REMARK INTER + INTRA:          -7.757
REMARK INTER:                  -7.387
REMARK INTRA:                  -0.370
REMARK UNBOUND:                -0.584
REMARK  Name = 
REMARK  4 active torsions:
REMARK  status: ('A' for Active; 'I' for Inactive)
REMARK    1  A    between atoms: N_1  and  C_2
REMARK    2  A    between atoms: C_2  and  C_3
REMARK    3  A    between atoms: C_6  and  C_7
REMARK    4  A    between atoms: C_7  and  C_8
REMARK                            x       y       z     vdW  Elec       q    Type
REMARK                         _______ _______ _______ _____ _____    ______ ____
ROOT
ATOM      1  C   UNL     1      45.363   7.552  11.837  0.00  0.00    +0.000 C 
ENDROOT
BRANCH   1   2
ATOM      2  C   UNL     1      44.727   6.209  11.978  0.00  0.00    +0.000 A 
ATOM      3  N   UNL     1      44.094   5.872  13.114  0.00  0.00    +0.000 NA
ATOM      4  N   UNL     1      43.646   4.626  12.878  0.00  0.00    +0.000 N 
ATOM      5  C   UNL     1      43.992   4.133  11.654  0.00  0.00    +0.000 A 
ATOM      6  C   UNL     1      43.733   2.911  11.043  0.00  0.00    +0.000 A 
ATOM      7  F   UNL     1      43.019   1.963  11.662  0.00  0.00    +0.000 F 
ATOM      8  C   UNL     1      44.236   2.692   9.762  0.00  0.00    +0.000 A 
ATOM      9  C   UNL     1      44.988   3.677   9.122  0.00  0.00    +0.000 A 
ATOM     10  C   UNL     1      45.243   4.907   9.747  0.00  0.00    +0.000 A 
ATOM     11  C   UNL     1      44.724   5.139  11.037  0.00  0.00    +0.000 A 
ATOM     12  H   UNL     1      43.111   4.157  13.601  0.00  0.00    +0.000 HD
ENDBRANCH   1   2
BRANCH   1  16
ATOM     13  C   UNL     1      48.914   7.415  14.201  0.00  0.00    +0.000 A 
ATOM     14  C   UNL     1      48.050   8.494  14.368  0.00  0.00    +0.000 A 
ATOM     15  C   UNL     1      46.884   8.551  13.608  0.00  0.00    +0.000 A 
ATOM     16  C   UNL     1      46.599   7.532  12.695  0.00  0.00    +0.000 A 
ATOM     17  C   UNL     1      47.512   6.483  12.612  0.00  0.00    +0.000 A 
ATOM     18  N   UNL     1      48.655   6.406  13.332  0.00  0.00    +0.000 NA
BRANCH  13  19
ATOM     19  C   UNL     1      50.188   7.324  15.013  0.00  0.00    +0.000 C 
BRANCH  19  20
ATOM     20  N   UNL     1      50.138   6.262  16.024  0.00  0.00    +0.000 NA
ATOM     21  H   UNL     1      49.599   6.601  16.819  0.00  0.00    +0.000 HD
ATOM     22  H   UNL     1      51.088   6.125  16.371  0.00  0.00    +0.000 HD
ENDBRANCH  19  20
ENDBRANCH  13  19
ENDBRANCH   1  16
TORSDOF 4
ENDMDL
MODEL 8
REMARK VINA RESULT:    -5.937      4.177      7.201
REMARK INTER + INTRA:          -7.736
REMARK INTER:                  -7.323
REMARK INTRA:                  -0.413
REMARK UNBOUND:                -0.584
REMARK  Name = 
REMARK  4 active torsions:
REMARK  status: ('A' for Active; 'I' for Inactive)
REMARK    1  A    between atoms: N_1  and  C_2
REMARK    2  A    between atoms: C_2  and  C_3
REMARK    3  A    between atoms: C_6  and  C_7
REMARK    4  A    between atoms: C_7  and  C_8
REMARK                            x       y       z     vdW  Elec       q    Type
REMARK                         _______ _______ _______ _____ _____    ______ ____
ROOT
ATOM      1  C   UNL     1      47.741   5.863  13.197  0.00  0.00    +0.000 C 
ENDROOT
BRANCH   1   2
ATOM      2  C   UNL     1      46.292   6.060  12.896  0.00  0.00    +0.000 A 
ATOM      3  N   UNL     1      45.726   7.269  13.043  0.00  0.00    +0.000 NA
ATOM      4  N   UNL     1      44.446   7.074  12.676  0.00  0.00    +0.000 N 
ATOM      5  C   UNL     1      44.157   5.786  12.333  0.00  0.00    +0.000 A 
ATOM      6  C   UNL     1      42.976   5.185  11.910  0.00  0.00    +0.000 A 
ATOM      7  F   UNL     1      41.849   5.894  11.769  0.00  0.00    +0.000 F 
ATOM      8  C   UNL     1      42.990   3.819  11.634  0.00  0.00    +0.000 A 
ATOM      9  C   UNL     1      44.163   3.080  11.791  0.00  0.00    +0.000 A 
ATOM     10  C   UNL     1      45.349   3.696  12.217  0.00  0.00    +0.000 A 
ATOM     11  C   UNL     1      45.343   5.081  12.484  0.00  0.00    +0.000 A 
ATOM     12  H   UNL     1      43.811   7.864  12.689  0.00  0.00    +0.000 HD
ENDBRANCH   1   2
BRANCH   1  16
ATOM     13  C   UNL     1      48.036   5.057  17.378  0.00  0.00    +0.000 A 
ATOM     14  C   UNL     1      47.314   4.170  16.583  0.00  0.00    +0.000 A 
ATOM     15  C   UNL     1      47.212   4.416  15.215  0.00  0.00    +0.000 A 
ATOM     16  C   UNL     1      47.833   5.540  14.664  0.00  0.00    +0.000 A 
ATOM     17  C   UNL     1      48.550   6.358  15.534  0.00  0.00    +0.000 A 
ATOM     18  N   UNL     1      48.659   6.147  16.866  0.00  0.00    +0.000 NA
BRANCH  13  19
ATOM     19  C   UNL     1      48.166   4.816  18.867  0.00  0.00    +0.000 C 
BRANCH  19  20
ATOM     20  N   UNL     1      48.350   3.398  19.195  0.00  0.00    +0.000 NA
ATOM     21  H   UNL     1      48.463   2.879  18.326  0.00  0.00    +0.000 HD
ATOM     22  H   UNL     1      47.477   3.064  19.606  0.00  0.00    +0.000 HD
ENDBRANCH  19  20
ENDBRANCH  13  19
ENDBRANCH   1  16
TORSDOF 4
ENDMDL
MODEL 9
REMARK VINA RESULT:    -5.613      2.477      3.716
REMARK INTER + INTRA:          -7.346
REMARK INTER:                  -6.833
REMARK INTRA:                  -0.513
REMARK UNBOUND:                -0.584
REMARK  Name = 
REMARK  4 active torsions:
REMARK  status: ('A' for Active; 'I' for Inactive)
REMARK    1  A    between atoms: N_1  and  C_2
REMARK    2  A    between atoms: C_2  and  C_3
REMARK    3  A    between atoms: C_6  and  C_7
REMARK    4  A    between atoms: C_7  and  C_8
REMARK                            x       y       z     vdW  Elec       q    Type
REMARK                         _______ _______ _______ _____ _____    ______ ____
ROOT
ATOM      1  C   UNL     1      45.472   6.204  12.928  0.00  0.00    +0.000 C 
ENDROOT
BRANCH   1   2
ATOM      2  C   UNL     1      46.868   6.716  12.791  0.00  0.00    +0.000 A 
ATOM      3  N   UNL     1      47.914   5.917  13.058  0.00  0.00    +0.000 NA
ATOM      4  N   UNL     1      48.985   6.695  12.819  0.00  0.00    +0.000 N 
ATOM      5  C   UNL     1      48.674   7.969  12.444  0.00  0.00    +0.000 A 
ATOM      6  C   UNL     1      49.475   9.059  12.118  0.00  0.00    +0.000 A 
ATOM      7  F   UNL     1      50.810   8.966  12.133  0.00  0.00    +0.000 F 
ATOM      8  C   UNL     1      48.854  10.257  11.775  0.00  0.00    +0.000 A 
ATOM      9  C   UNL     1      47.462  10.354  11.769  0.00  0.00    +0.000 A 
ATOM     10  C   UNL     1      46.664   9.249  12.098  0.00  0.00    +0.000 A 
ATOM     11  C   UNL     1      47.287   8.029  12.433  0.00  0.00    +0.000 A 
ATOM     12  H   UNL     1      49.911   6.298  12.938  0.00  0.00    +0.000 HD
ENDBRANCH   1   2
BRANCH   1  16
ATOM     13  C   UNL     1      44.859   3.283   9.877  0.00  0.00    +0.000 A 
ATOM     14  C   UNL     1      45.200   4.578   9.493  0.00  0.00    +0.000 A 
ATOM     15  C   UNL     1      45.409   5.542  10.477  0.00  0.00    +0.000 A 
ATOM     16  C   UNL     1      45.276   5.199  11.825  0.00  0.00    +0.000 A 
ATOM     17  C   UNL     1      44.952   3.875  12.113  0.00  0.00    +0.000 A 
ATOM     18  N   UNL     1      44.737   2.920  11.178  0.00  0.00    +0.000 NA
BRANCH  13  19
ATOM     19  C   UNL     1      44.628   2.214   8.831  0.00  0.00    +0.000 C 
BRANCH  19  20
ATOM     20  N   UNL     1      45.745   1.268   8.733  0.00  0.00    +0.000 NA
ATOM     21  H   UNL     1      45.422   0.356   9.052  0.00  0.00    +0.000 HD
ATOM     22  H   UNL     1      46.454   1.563   9.406  0.00  0.00    +0.000 HD
ENDBRANCH  19  20
ENDBRANCH  13  19
ENDBRANCH   1  16
TORSDOF 4
ENDMDL
