MODEL 1
REMARK VINA RESULT:    -8.396      0.000      0.000
REMARK INTER + INTRA:         -13.316
REMARK INTER:                 -12.077
REMARK INTRA:                  -1.239
REMARK UNBOUND:                -1.239
REMARK  Name = 
REMARK  9 active torsions:
REMARK  status: ('A' for Active; 'I' for Inactive)
REMARK    1  A    between atoms: C_1  and  C_2
REMARK    2  A    between atoms: C_2  and  C_3
REMARK    3  A    between atoms: C_5  and  C_6
REMARK    4  A    between atoms: C_6  and  C_7
REMARK    5  A    between atoms: C_6  and  C_9
REMARK    6  A    between atoms: C_7  and  O_8
REMARK    7  A    between atoms: C_9  and  N_10
REMARK    8  A    between atoms: N_10  and  C_11
REMARK    9  A    between atoms: C_14  and  C_15
REMARK                            x       y       z     vdW  Elec       q    Type
REMARK                         _______ _______ _______ _____ _____    ______ ____
ROOT
ATOM      1  C   UNL     1      43.973   5.862  12.146  0.00  0.00    +0.000 C 
ENDROOT
BRANCH   1   4
ATOM      2  C   UNL     1      47.551   6.370  13.494  0.00  0.00    +0.000 A 
ATOM      3  C   UNL     1      46.298   6.628  12.928  0.00  0.00    +0.000 A 
ATOM      4  C   UNL     1      45.348   5.606  12.772  0.00  0.00    +0.000 A 
ATOM      5  C   UNL     1      45.689   4.339  13.246  0.00  0.00    +0.000 A 
ATOM      6  C   UNL     1      46.939   4.160  13.822  0.00  0.00    +0.000 A 
ATOM      7  N   UNL     1      47.868   5.136  13.944  0.00  0.00    +0.000 NA
BRANCH   2   9
ATOM      8  C   UNL     1      47.873   8.827  13.715  0.00  0.00    +0.000 C 
ATOM      9  C   UNL     1      48.618   7.478  13.553  0.00  0.00    +0.000 C 
ATOM     10  C   UNL     1      49.582   7.233  14.741  0.00  0.00    +0.000 C 
ATOM     11  C   UNL     1      50.761   8.202  14.738  0.00  0.00    +0.000 C 
ATOM     12  O   UNL     1      51.469   8.144  13.505  0.00  0.00    +0.000 OA
ATOM     13  C   UNL     1      50.655   8.480  12.384  0.00  0.00    +0.000 C 
ATOM     14  C   UNL     1      49.476   7.521  12.262  0.00  0.00    +0.000 C 
ENDBRANCH   2   9
ENDBRANCH   1   4
BRANCH   1  15
ATOM     15  C   UNL     1      43.993   7.194  11.382  0.00  0.00    +0.000 C 
BRANCH  15  16
ATOM     16  O   UNL     1      42.684   7.602  11.001  0.00  0.00    +0.000 OA
ATOM     17  H   UNL     1      42.210   7.835  11.822  0.00  0.00    +0.000 HD
ENDBRANCH  15  16
ENDBRANCH   1  15
BRANCH   1  18
ATOM     18  C   UNL     1      43.514   4.674  11.266  0.00  0.00    +0.000 C 
BRANCH  18  19
ATOM     19  N   UNL     1      43.696   4.885   9.820  0.00  0.00    +0.000 N 
ATOM     20  H   UNL     1      44.054   5.823   9.626  0.00  0.00    +0.000 HD
BRANCH  19  21
ATOM     21  C   UNL     1      44.558   3.943   9.205  0.00  0.00    +0.000 A 
ATOM     22  C   UNL     1      45.465   4.367   8.227  0.00  0.00    +0.000 A 
ATOM     23  C   UNL     1      46.314   3.444   7.605  0.00  0.00    +0.000 A 
ATOM     24  C   UNL     1      46.204   2.109   7.959  0.00  0.00    +0.000 A 
ATOM     25  N   UNL     1      45.300   1.637   8.854  0.00  0.00    +0.000 NA
ATOM     26  C   UNL     1      44.494   2.561   9.425  0.00  0.00    +0.000 A 
BRANCH  24  27
ATOM     27  C   UNL     1      47.117   1.086   7.356  0.00  0.00    +0.000 C 
ATOM     28  N   UNL     1      46.832  -0.211   7.687  0.00  0.00    +0.000 N 
ATOM     29  O   UNL     1      48.056   1.380   6.627  0.00  0.00    +0.000 OA
ATOM     30  H   UNL     1      46.043  -0.406   8.296  0.00  0.00    +0.000 HD
ATOM     31  H   UNL     1      47.404  -0.961   7.329  0.00  0.00    +0.000 HD
ENDBRANCH  24  27
ENDBRANCH  19  21
ENDBRANCH  18  19
ENDBRANCH   1  18
TORSDOF 8
ENDMDL
MODEL 2
REMARK VINA RESULT:    -8.367      1.700      2.160
REMARK INTER + INTRA:         -13.275
REMARK INTER:                 -11.812
REMARK INTRA:                  -1.463
REMARK UNBOUND:                -1.239
REMARK  Name = 
REMARK  9 active torsions:
REMARK  status: ('A' for Active; 'I' for Inactive)
REMARK    1  A    between atoms: C_1  and  C_2
REMARK    2  A    between atoms: C_2  and  C_3
REMARK    3  A    between atoms: C_5  and  C_6
REMARK    4  A    between atoms: C_6  and  C_7
REMARK    5  A    between atoms: C_6  and  C_9
REMARK    6  A    between atoms: C_7  and  O_8
REMARK    7  A    between atoms: C_9  and  N_10
REMARK    8  A    between atoms: N_10  and  C_11
REMARK    9  A    between atoms: C_14  and  C_15
REMARK                            x       y       z     vdW  Elec       q    Type
REMARK                         _______ _______ _______ _____ _____    ______ ____
ROOT
ATOM      1  C   UNL     1      43.528   4.344  12.588  0.00  0.00    +0.000 C 
ENDROOT
BRANCH   1   4
ATOM      2  C   UNL     1      46.925   6.052  13.234  0.00  0.00    +0.000 A 
ATOM      3  C   UNL     1      45.573   5.863  12.934  0.00  0.00    +0.000 A 
ATOM      4  C   UNL     1      45.005   4.578  12.923  0.00  0.00    +0.000 A 
ATOM      5  C   UNL     1      45.835   3.510  13.267  0.00  0.00    +0.000 A 
ATOM      6  C   UNL     1      47.161   3.774  13.579  0.00  0.00    +0.000 A 
ATOM      7  N   UNL     1      47.717   5.007  13.560  0.00  0.00    +0.000 NA
BRANCH   2   9
ATOM      8  C   UNL     1      48.167   7.787  14.515  0.00  0.00    +0.000 C 
ATOM      9  C   UNL     1      47.553   7.455  13.132  0.00  0.00    +0.000 C 
ATOM     10  C   UNL     1      48.637   7.478  12.026  0.00  0.00    +0.000 C 
ATOM     11  C   UNL     1      49.164   8.886  11.763  0.00  0.00    +0.000 C 
ATOM     12  O   UNL     1      48.105   9.778  11.437  0.00  0.00    +0.000 OA
ATOM     13  C   UNL     1      47.135   9.886  12.476  0.00  0.00    +0.000 C 
ATOM     14  C   UNL     1      46.498   8.532  12.769  0.00  0.00    +0.000 C 
ENDBRANCH   2   9
ENDBRANCH   1   4
BRANCH   1  15
ATOM     15  C   UNL     1      42.735   5.638  12.818  0.00  0.00    +0.000 C 
BRANCH  15  16
ATOM     16  O   UNL     1      41.964   5.994  11.675  0.00  0.00    +0.000 OA
ATOM     17  H   UNL     1      41.722   6.933  11.778  0.00  0.00    +0.000 HD
ENDBRANCH  15  16
ENDBRANCH   1  15
BRANCH   1  18
ATOM     18  C   UNL     1      43.347   3.775  11.160  0.00  0.00    +0.000 C 
BRANCH  18  19
ATOM     19  N   UNL     1      43.857   4.651  10.091  0.00  0.00    +0.000 N 
ATOM     20  H   UNL     1      44.293   5.491  10.478  0.00  0.00    +0.000 HD
BRANCH  19  21
ATOM     21  C   UNL     1      44.789   4.023   9.228  0.00  0.00    +0.000 A 
ATOM     22  C   UNL     1      44.944   2.633   9.268  0.00  0.00    +0.000 A 
ATOM     23  C   UNL     1      45.870   2.001   8.428  0.00  0.00    +0.000 A 
ATOM     24  C   UNL     1      46.642   2.791   7.592  0.00  0.00    +0.000 A 
ATOM     25  N   UNL     1      46.577   4.146   7.560  0.00  0.00    +0.000 NA
ATOM     26  C   UNL     1      45.675   4.715   8.393  0.00  0.00    +0.000 A 
BRANCH  24  27
ATOM     27  C   UNL     1      47.617   2.165   6.643  0.00  0.00    +0.000 C 
ATOM     28  N   UNL     1      47.911   2.914   5.537  0.00  0.00    +0.000 N 
ATOM     29  O   UNL     1      48.112   1.060   6.831  0.00  0.00    +0.000 OA
ATOM     30  H   UNL     1      47.475   3.824   5.424  0.00  0.00    +0.000 HD
ATOM     31  H   UNL     1      48.554   2.561   4.844  0.00  0.00    +0.000 HD
ENDBRANCH  24  27
ENDBRANCH  19  21
ENDBRANCH  18  19
ENDBRANCH   1  18
TORSDOF 8
ENDMDL
MODEL 3
REMARK VINA RESULT:    -8.144      1.905      2.542
REMARK INTER + INTRA:         -12.954
REMARK INTER:                 -11.890
REMARK INTRA:                  -1.064
REMARK UNBOUND:                -1.239
REMARK  Name = 
REMARK  9 active torsions:
REMARK  status: ('A' for Active; 'I' for Inactive)
REMARK    1  A    between atoms: C_1  and  C_2
REMARK    2  A    between atoms: C_2  and  C_3
REMARK    3  A    between atoms: C_5  and  C_6
REMARK    4  A    between atoms: C_6  and  C_7
REMARK    5  A    between atoms: C_6  and  C_9
REMARK    6  A    between atoms: C_7  and  O_8
REMARK    7  A    between atoms: C_9  and  N_10
REMARK    8  A    between atoms: N_10  and  C_11
REMARK    9  A    between atoms: C_14  and  C_15
REMARK                            x       y       z     vdW  Elec       q    Type
REMARK                         _______ _______ _______ _____ _____    ______ ____
ROOT
ATOM      1  C   UNL     1      45.559   5.107  11.716  0.00  0.00    +0.000 C 
ENDROOT
BRANCH   1   4
ATOM      2  C   UNL     1      47.684   8.301  12.115  0.00  0.00    +0.000 A 
ATOM      3  C   UNL     1      47.321   6.971  11.878  0.00  0.00    +0.000 A 
ATOM      4  C   UNL     1      45.980   6.560  11.961  0.00  0.00    +0.000 A 
ATOM      5  C   UNL     1      45.028   7.539  12.243  0.00  0.00    +0.000 A 
ATOM      6  C   UNL     1      45.456   8.844  12.440  0.00  0.00    +0.000 A 
ATOM      7  N   UNL     1      46.749   9.237  12.392  0.00  0.00    +0.000 NA
BRANCH   2   9
ATOM      8  C   UNL     1      49.607   8.801  13.613  0.00  0.00    +0.000 C 
ATOM      9  C   UNL     1      49.169   8.708  12.129  0.00  0.00    +0.000 C 
ATOM     10  C   UNL     1      50.019   7.664  11.365  0.00  0.00    +0.000 C 
ATOM     11  C   UNL     1      51.469   8.110  11.197  0.00  0.00    +0.000 C 
ATOM     12  O   UNL     1      51.545   9.377  10.554  0.00  0.00    +0.000 OA
ATOM     13  C   UNL     1      50.876  10.405  11.279  0.00  0.00    +0.000 C 
ATOM     14  C   UNL     1      49.396  10.081  11.443  0.00  0.00    +0.000 C 
ENDBRANCH   2   9
ENDBRANCH   1   4
BRANCH   1  15
ATOM     15  C   UNL     1      45.927   4.249  12.935  0.00  0.00    +0.000 C 
BRANCH  15  16
ATOM     16  O   UNL     1      45.567   2.885  12.748  0.00  0.00    +0.000 OA
ATOM     17  H   UNL     1      45.089   2.605  13.551  0.00  0.00    +0.000 HD
ENDBRANCH  15  16
ENDBRANCH   1  15
BRANCH   1  18
ATOM     18  C   UNL     1      44.062   5.000  11.338  0.00  0.00    +0.000 C 
BRANCH  18  19
ATOM     19  N   UNL     1      43.810   4.868   9.892  0.00  0.00    +0.000 N 
ATOM     20  H   UNL     1      43.919   5.766   9.416  0.00  0.00    +0.000 HD
BRANCH  19  21
ATOM     21  C   UNL     1      44.640   3.917   9.248  0.00  0.00    +0.000 A 
ATOM     22  C   UNL     1      45.573   4.342   8.296  0.00  0.00    +0.000 A 
ATOM     23  C   UNL     1      46.390   3.410   7.645  0.00  0.00    +0.000 A 
ATOM     24  C   UNL     1      46.223   2.069   7.944  0.00  0.00    +0.000 A 
ATOM     25  N   UNL     1      45.290   1.598   8.810  0.00  0.00    +0.000 NA
ATOM     26  C   UNL     1      44.517   2.531   9.412  0.00  0.00    +0.000 A 
BRANCH  24  27
ATOM     27  C   UNL     1      47.099   1.034   7.308  0.00  0.00    +0.000 C 
ATOM     28  N   UNL     1      46.837  -0.257   7.682  0.00  0.00    +0.000 N 
ATOM     29  O   UNL     1      47.993   1.313   6.518  0.00  0.00    +0.000 OA
ATOM     30  H   UNL     1      46.086  -0.439   8.340  0.00  0.00    +0.000 HD
ATOM     31  H   UNL     1      47.387  -1.014   7.305  0.00  0.00    +0.000 HD
ENDBRANCH  24  27
ENDBRANCH  19  21
ENDBRANCH  18  19
ENDBRANCH   1  18
TORSDOF 8
ENDMDL
MODEL 4
REMARK VINA RESULT:    -8.129      2.345      3.294
REMARK INTER + INTRA:         -12.933
REMARK INTER:                 -11.848
REMARK INTRA:                  -1.085
REMARK UNBOUND:                -1.239
REMARK  Name = 
REMARK  9 active torsions:
REMARK  status: ('A' for Active; 'I' for Inactive)
REMARK    1  A    between atoms: C_1  and  C_2
REMARK    2  A    between atoms: C_2  and  C_3
REMARK    3  A    between atoms: C_5  and  C_6
REMARK    4  A    between atoms: C_6  and  C_7
REMARK    5  A    between atoms: C_6  and  C_9
REMARK    6  A    between atoms: C_7  and  O_8
REMARK    7  A    between atoms: C_9  and  N_10
REMARK    8  A    between atoms: N_10  and  C_11
REMARK    9  A    between atoms: C_14  and  C_15
REMARK                            x       y       z     vdW  Elec       q    Type
REMARK                         _______ _______ _______ _____ _____    ______ ____
ROOT
ATOM      1  C   UNL     1      44.923   4.699  12.380  0.00  0.00    +0.000 C 
ENDROOT
BRANCH   1   4
ATOM      2  C   UNL     1      47.659   5.118  15.066  0.00  0.00    +0.000 A 
ATOM      3  C   UNL     1      46.589   4.592  14.335  0.00  0.00    +0.000 A 
ATOM      4  C   UNL     1      46.100   5.249  13.193  0.00  0.00    +0.000 A 
ATOM      5  C   UNL     1      46.753   6.417  12.798  0.00  0.00    +0.000 A 
ATOM      6  C   UNL     1      47.825   6.866  13.556  0.00  0.00    +0.000 A 
ATOM      7  N   UNL     1      48.278   6.253  14.674  0.00  0.00    +0.000 NA
BRANCH   2   9
ATOM      8  C   UNL     1      46.945   4.589  17.391  0.00  0.00    +0.000 C 
ATOM      9  C   UNL     1      48.107   4.443  16.376  0.00  0.00    +0.000 C 
ATOM     10  C   UNL     1      48.439   2.951  16.126  0.00  0.00    +0.000 C 
ATOM     11  C   UNL     1      49.056   2.283  17.351  0.00  0.00    +0.000 C 
ATOM     12  O   UNL     1      50.216   2.982  17.786  0.00  0.00    +0.000 OA
ATOM     13  C   UNL     1      49.944   4.334  18.146  0.00  0.00    +0.000 C 
ATOM     14  C   UNL     1      49.381   5.109  16.960  0.00  0.00    +0.000 C 
ENDBRANCH   2   9
ENDBRANCH   1   4
BRANCH   1  15
ATOM     15  C   UNL     1      43.712   4.491  13.301  0.00  0.00    +0.000 C 
BRANCH  15  16
ATOM     16  O   UNL     1      42.714   5.483  13.091  0.00  0.00    +0.000 OA
ATOM     17  H   UNL     1      42.391   5.371  12.177  0.00  0.00    +0.000 HD
ENDBRANCH  15  16
ENDBRANCH   1  15
BRANCH   1  18
ATOM     18  C   UNL     1      44.601   5.594  11.160  0.00  0.00    +0.000 C 
BRANCH  18  19
ATOM     19  N   UNL     1      43.900   4.899  10.066  0.00  0.00    +0.000 N 
ATOM     20  H   UNL     1      43.532   5.563   9.383  0.00  0.00    +0.000 HD
BRANCH  19  21
ATOM     21  C   UNL     1      44.700   3.952   9.381  0.00  0.00    +0.000 A 
ATOM     22  C   UNL     1      45.615   4.386   8.414  0.00  0.00    +0.000 A 
ATOM     23  C   UNL     1      46.403   3.458   7.722  0.00  0.00    +0.000 A 
ATOM     24  C   UNL     1      46.226   2.112   7.996  0.00  0.00    +0.000 A 
ATOM     25  N   UNL     1      45.309   1.635   8.876  0.00  0.00    +0.000 NA
ATOM     26  C   UNL     1      44.563   2.564   9.517  0.00  0.00    +0.000 A 
BRANCH  24  27
ATOM     27  C   UNL     1      47.072   1.081   7.316  0.00  0.00    +0.000 C 
ATOM     28  N   UNL     1      46.812  -0.213   7.679  0.00  0.00    +0.000 N 
ATOM     29  O   UNL     1      47.941   1.365   6.501  0.00  0.00    +0.000 OA
ATOM     30  H   UNL     1      46.082  -0.400   8.359  0.00  0.00    +0.000 HD
ATOM     31  H   UNL     1      47.343  -0.968   7.272  0.00  0.00    +0.000 HD
ENDBRANCH  24  27
ENDBRANCH  19  21
ENDBRANCH  18  19
ENDBRANCH   1  18
TORSDOF 8
ENDMDL
MODEL 5
REMARK VINA RESULT:    -6.851      2.555      7.157
REMARK INTER + INTRA:         -11.094
REMARK INTER:                 -10.049
REMARK INTRA:                  -1.045
REMARK UNBOUND:                -1.239
REMARK  Name = 
REMARK  9 active torsions:
REMARK  status: ('A' for Active; 'I' for Inactive)
REMARK    1  A    between atoms: C_1  and  C_2
REMARK    2  A    between atoms: C_2  and  C_3
REMARK    3  A    between atoms: C_5  and  C_6
REMARK    4  A    between atoms: C_6  and  C_7
REMARK    5  A    between atoms: C_6  and  C_9
REMARK    6  A    between atoms: C_7  and  O_8
REMARK    7  A    between atoms: C_9  and  N_10
REMARK    8  A    between atoms: N_10  and  C_11
REMARK    9  A    between atoms: C_14  and  C_15
REMARK                            x       y       z     vdW  Elec       q    Type
REMARK                         _______ _______ _______ _____ _____    ______ ____
ROOT
ATOM      1  C   UNL     1      45.522   7.555  11.478  0.00  0.00    +0.000 C 
ENDROOT
BRANCH   1   4
ATOM      2  C   UNL     1      44.801   4.209   9.701  0.00  0.00    +0.000 A 
ATOM      3  C   UNL     1      45.409   5.417  10.056  0.00  0.00    +0.000 A 
ATOM      4  C   UNL     1      44.879   6.223  11.077  0.00  0.00    +0.000 A 
ATOM      5  C   UNL     1      43.752   5.746  11.747  0.00  0.00    +0.000 A 
ATOM      6  C   UNL     1      43.216   4.526  11.361  0.00  0.00    +0.000 A 
ATOM      7  N   UNL     1      43.706   3.764  10.357  0.00  0.00    +0.000 NA
BRANCH   2   9
ATOM      8  C   UNL     1      44.187   3.305   7.465  0.00  0.00    +0.000 C 
ATOM      9  C   UNL     1      45.332   3.396   8.505  0.00  0.00    +0.000 C 
ATOM     10  C   UNL     1      46.578   4.086   7.898  0.00  0.00    +0.000 C 
ATOM     11  C   UNL     1      47.247   3.230   6.825  0.00  0.00    +0.000 C 
ATOM     12  O   UNL     1      47.590   1.946   7.334  0.00  0.00    +0.000 OA
ATOM     13  C   UNL     1      46.457   1.216   7.799  0.00  0.00    +0.000 C 
ATOM     14  C   UNL     1      45.754   1.964   8.926  0.00  0.00    +0.000 C 
ENDBRANCH   2   9
ENDBRANCH   1   4
BRANCH   1  15
ATOM     15  C   UNL     1      44.491   8.686  11.348  0.00  0.00    +0.000 C 
BRANCH  15  16
ATOM     16  O   UNL     1      45.059   9.954  11.658  0.00  0.00    +0.000 OA
ATOM     17  H   UNL     1      45.486   9.867  12.531  0.00  0.00    +0.000 HD
ENDBRANCH  15  16
ENDBRANCH   1  15
BRANCH   1  18
ATOM     18  C   UNL     1      46.158   7.484  12.887  0.00  0.00    +0.000 C 
BRANCH  18  19
ATOM     19  N   UNL     1      47.397   6.689  12.953  0.00  0.00    +0.000 N 
ATOM     20  H   UNL     1      48.221   7.292  12.981  0.00  0.00    +0.000 HD
BRANCH  19  21
ATOM     21  C   UNL     1      47.454   5.804  14.058  0.00  0.00    +0.000 A 
ATOM     22  C   UNL     1      48.203   6.153  15.188  0.00  0.00    +0.000 A 
ATOM     23  C   UNL     1      48.276   5.282  16.282  0.00  0.00    +0.000 A 
ATOM     24  C   UNL     1      47.622   4.064  16.196  0.00  0.00    +0.000 A 
ATOM     25  N   UNL     1      46.937   3.650  15.100  0.00  0.00    +0.000 NA
ATOM     26  C   UNL     1      46.898   4.519  14.064  0.00  0.00    +0.000 A 
BRANCH  24  27
ATOM     27  C   UNL     1      47.633   3.113  17.353  0.00  0.00    +0.000 C 
ATOM     28  N   UNL     1      48.853   2.935  17.946  0.00  0.00    +0.000 N 
ATOM     29  O   UNL     1      46.630   2.527  17.742  0.00  0.00    +0.000 OA
ATOM     30  H   UNL     1      49.657   3.443  17.589  0.00  0.00    +0.000 HD
ATOM     31  H   UNL     1      48.948   2.305  18.728  0.00  0.00    +0.000 HD
ENDBRANCH  24  27
ENDBRANCH  19  21
ENDBRANCH  18  19
ENDBRANCH   1  18
TORSDOF 8
ENDMDL
MODEL 6
REMARK VINA RESULT:    -6.757      2.017      2.764
REMARK INTER + INTRA:         -10.959
REMARK INTER:                  -9.868
REMARK INTRA:                  -1.092
REMARK UNBOUND:                -1.239
REMARK  Name = 
REMARK  9 active torsions:
REMARK  status: ('A' for Active; 'I' for Inactive)
REMARK    1  A    between atoms: C_1  and  C_2
REMARK    2  A    between atoms: C_2  and  C_3
REMARK    3  A    between atoms: C_5  and  C_6
REMARK    4  A    between atoms: C_6  and  C_7
REMARK    5  A    between atoms: C_6  and  C_9
REMARK    6  A    between atoms: C_7  and  O_8
REMARK    7  A    between atoms: C_9  and  N_10
REMARK    8  A    between atoms: N_10  and  C_11
REMARK    9  A    between atoms: C_14  and  C_15
REMARK                            x       y       z     vdW  Elec       q    Type
REMARK                         _______ _______ _______ _____ _____    ______ ____
ROOT
ATOM      1  C   UNL     1      45.263   6.482  12.436  0.00  0.00    +0.000 C 
ENDROOT
BRANCH   1   4
ATOM      2  C   UNL     1      48.586   6.804  14.367  0.00  0.00    +0.000 A 
ATOM      3  C   UNL     1      47.238   6.571  14.079  0.00  0.00    +0.000 A 
ATOM      4  C   UNL     1      46.739   6.721  12.775  0.00  0.00    +0.000 A 
ATOM      5  C   UNL     1      47.650   7.066  11.777  0.00  0.00    +0.000 A 
ATOM      6  C   UNL     1      48.979   7.255  12.129  0.00  0.00    +0.000 A 
ATOM      7  N   UNL     1      49.457   7.142  13.390  0.00  0.00    +0.000 NA
BRANCH   2   9
ATOM      8  C   UNL     1      48.625   8.043  16.524  0.00  0.00    +0.000 C 
ATOM      9  C   UNL     1      49.090   6.743  15.821  0.00  0.00    +0.000 C 
ATOM     10  C   UNL     1      48.520   5.493  16.535  0.00  0.00    +0.000 C 
ATOM     11  C   UNL     1      49.128   5.290  17.920  0.00  0.00    +0.000 C 
ATOM     12  O   UNL     1      50.547   5.216  17.851  0.00  0.00    +0.000 OA
ATOM     13  C   UNL     1      51.136   6.396  17.308  0.00  0.00    +0.000 C 
ATOM     14  C   UNL     1      50.637   6.650  15.890  0.00  0.00    +0.000 C 
ENDBRANCH   2   9
ENDBRANCH   1   4
BRANCH   1  15
ATOM     15  C   UNL     1      44.806   7.492  11.374  0.00  0.00    +0.000 C 
BRANCH  15  16
ATOM     16  O   UNL     1      43.388   7.529  11.258  0.00  0.00    +0.000 OA
ATOM     17  H   UNL     1      43.181   7.508  10.304  0.00  0.00    +0.000 HD
ENDBRANCH  15  16
ENDBRANCH   1  15
BRANCH   1  18
ATOM     18  C   UNL     1      45.001   5.015  12.020  0.00  0.00    +0.000 C 
BRANCH  18  19
ATOM     19  N   UNL     1      44.208   4.867  10.787  0.00  0.00    +0.000 N 
ATOM     20  H   UNL     1      43.859   5.771  10.463  0.00  0.00    +0.000 HD
BRANCH  19  21
ATOM     21  C   UNL     1      44.912   4.253   9.722  0.00  0.00    +0.000 A 
ATOM     22  C   UNL     1      44.955   2.857   9.632  0.00  0.00    +0.000 A 
ATOM     23  C   UNL     1      45.657   2.238   8.590  0.00  0.00    +0.000 A 
ATOM     24  C   UNL     1      46.328   3.042   7.683  0.00  0.00    +0.000 A 
ATOM     25  N   UNL     1      46.372   4.396   7.762  0.00  0.00    +0.000 NA
ATOM     26  C   UNL     1      45.687   4.952   8.788  0.00  0.00    +0.000 A 
BRANCH  24  27
ATOM     27  C   UNL     1      47.058   2.434   6.526  0.00  0.00    +0.000 C 
ATOM     28  N   UNL     1      47.927   1.428   6.852  0.00  0.00    +0.000 N 
ATOM     29  O   UNL     1      46.903   2.809   5.370  0.00  0.00    +0.000 OA
ATOM     30  H   UNL     1      48.023   1.152   7.824  0.00  0.00    +0.000 HD
ATOM     31  H   UNL     1      48.465   0.971   6.131  0.00  0.00    +0.000 HD
ENDBRANCH  24  27
ENDBRANCH  19  21
ENDBRANCH  18  19
ENDBRANCH   1  18
TORSDOF 8
ENDMDL
MODEL 7
REMARK VINA RESULT:    -6.514      3.308      7.790
REMARK INTER + INTRA:         -10.610
REMARK INTER:                  -9.458
REMARK INTRA:                  -1.152
REMARK UNBOUND:                -1.239
REMARK  Name = 
REMARK  9 active torsions:
REMARK  status: ('A' for Active; 'I' for Inactive)
REMARK    1  A    between atoms: C_1  and  C_2
REMARK    2  A    between atoms: C_2  and  C_3
REMARK    3  A    between atoms: C_5  and  C_6
REMARK    4  A    between atoms: C_6  and  C_7
REMARK    5  A    between atoms: C_6  and  C_9
REMARK    6  A    between atoms: C_7  and  O_8
REMARK    7  A    between atoms: C_9  and  N_10
REMARK    8  A    between atoms: N_10  and  C_11
REMARK    9  A    between atoms: C_14  and  C_15
REMARK                            x       y       z     vdW  Elec       q    Type
REMARK                         _______ _______ _______ _____ _____    ______ ____
ROOT
ATOM      1  C   UNL     1      48.899   7.592  14.656  0.00  0.00    +0.000 C 
ENDROOT
BRANCH   1   4
ATOM      2  C   UNL     1      45.843   6.071  12.861  0.00  0.00    +0.000 A 
ATOM      3  C   UNL     1      47.046   6.184  13.566  0.00  0.00    +0.000 A 
ATOM      4  C   UNL     1      47.578   7.442  13.894  0.00  0.00    +0.000 A 
ATOM      5  C   UNL     1      46.835   8.565  13.530  0.00  0.00    +0.000 A 
ATOM      6  C   UNL     1      45.636   8.378  12.857  0.00  0.00    +0.000 A 
ATOM      7  N   UNL     1      45.138   7.169  12.511  0.00  0.00    +0.000 NA
BRANCH   2   9
ATOM      8  C   UNL     1      46.330   3.632  12.958  0.00  0.00    +0.000 C 
ATOM      9  C   UNL     1      45.334   4.688  12.413  0.00  0.00    +0.000 C 
ATOM     10  C   UNL     1      43.907   4.437  12.960  0.00  0.00    +0.000 C 
ATOM     11  C   UNL     1      43.289   3.160  12.399  0.00  0.00    +0.000 C 
ATOM     12  O   UNL     1      43.278   3.177  10.977  0.00  0.00    +0.000 OA
ATOM     13  C   UNL     1      44.584   3.286  10.416  0.00  0.00    +0.000 C 
ATOM     14  C   UNL     1      45.264   4.573  10.868  0.00  0.00    +0.000 C 
ENDBRANCH   2   9
ENDBRANCH   1   4
BRANCH   1  15
ATOM     15  C   UNL     1      49.975   8.161  13.719  0.00  0.00    +0.000 C 
BRANCH  15  16
ATOM     16  O   UNL     1      51.277   7.713  14.079  0.00  0.00    +0.000 OA
ATOM     17  H   UNL     1      51.600   7.162  13.342  0.00  0.00    +0.000 HD
ENDBRANCH  15  16
ENDBRANCH   1  15
BRANCH   1  18
ATOM     18  C   UNL     1      48.725   8.429  15.947  0.00  0.00    +0.000 C 
BRANCH  18  19
ATOM     19  N   UNL     1      48.361   7.639  17.136  0.00  0.00    +0.000 N 
ATOM     20  H   UNL     1      47.350   7.645  17.286  0.00  0.00    +0.000 HD
BRANCH  19  21
ATOM     21  C   UNL     1      48.797   6.292  17.088  0.00  0.00    +0.000 A 
ATOM     22  C   UNL     1      47.855   5.258  17.072  0.00  0.00    +0.000 A 
ATOM     23  C   UNL     1      48.274   3.922  17.036  0.00  0.00    +0.000 A 
ATOM     24  C   UNL     1      49.634   3.661  17.052  0.00  0.00    +0.000 A 
ATOM     25  N   UNL     1      50.588   4.624  17.132  0.00  0.00    +0.000 NA
ATOM     26  C   UNL     1      50.139   5.899  17.172  0.00  0.00    +0.000 A 
BRANCH  24  27
ATOM     27  C   UNL     1      50.138   2.253  16.972  0.00  0.00    +0.000 C 
ATOM     28  N   UNL     1      51.079   1.920  17.909  0.00  0.00    +0.000 N 
ATOM     29  O   UNL     1      49.750   1.454  16.129  0.00  0.00    +0.000 OA
ATOM     30  H   UNL     1      51.370   2.616  18.588  0.00  0.00    +0.000 HD
ATOM     31  H   UNL     1      51.476   0.992  17.919  0.00  0.00    +0.000 HD
ENDBRANCH  24  27
ENDBRANCH  19  21
ENDBRANCH  18  19
ENDBRANCH   1  18
TORSDOF 8
ENDMDL
MODEL 8
REMARK VINA RESULT:    -6.462      2.914      5.342
REMARK INTER + INTRA:         -10.534
REMARK INTER:                  -9.174
REMARK INTRA:                  -1.360
REMARK UNBOUND:                -1.239
REMARK  Name = 
REMARK  9 active torsions:
REMARK  status: ('A' for Active; 'I' for Inactive)
REMARK    1  A    between atoms: C_1  and  C_2
REMARK    2  A    between atoms: C_2  and  C_3
REMARK    3  A    between atoms: C_5  and  C_6
REMARK    4  A    between atoms: C_6  and  C_7
REMARK    5  A    between atoms: C_6  and  C_9
REMARK    6  A    between atoms: C_7  and  O_8
REMARK    7  A    between atoms: C_9  and  N_10
REMARK    8  A    between atoms: N_10  and  C_11
REMARK    9  A    between atoms: C_14  and  C_15
REMARK                            x       y       z     vdW  Elec       q    Type
REMARK                         _______ _______ _______ _____ _____    ______ ____
ROOT
ATOM      1  C   UNL     1      48.520   8.237  13.016  0.00  0.00    +0.000 C 
ENDROOT
BRANCH   1   4
ATOM      2  C   UNL     1      48.723   6.699  16.547  0.00  0.00    +0.000 A 
ATOM      3  C   UNL     1      48.721   6.825  15.154  0.00  0.00    +0.000 A 
ATOM      4  C   UNL     1      48.536   8.075  14.540  0.00  0.00    +0.000 A 
ATOM      5  C   UNL     1      48.401   9.184  15.375  0.00  0.00    +0.000 A 
ATOM      6  C   UNL     1      48.440   8.989  16.748  0.00  0.00    +0.000 A 
ATOM      7  N   UNL     1      48.586   7.783  17.343  0.00  0.00    +0.000 NA
BRANCH   2   9
ATOM      8  C   UNL     1      48.293   5.443  18.652  0.00  0.00    +0.000 C 
ATOM      9  C   UNL     1      48.815   5.307  17.199  0.00  0.00    +0.000 C 
ATOM     10  C   UNL     1      47.969   4.284  16.401  0.00  0.00    +0.000 C 
ATOM     11  C   UNL     1      48.167   2.855  16.901  0.00  0.00    +0.000 C 
ATOM     12  O   UNL     1      49.542   2.489  16.875  0.00  0.00    +0.000 OA
ATOM     13  C   UNL     1      50.353   3.330  17.692  0.00  0.00    +0.000 C 
ATOM     14  C   UNL     1      50.273   4.780  17.227  0.00  0.00    +0.000 C 
ENDBRANCH   2   9
ENDBRANCH   1   4
BRANCH   1  15
ATOM     15  C   UNL     1      49.245   7.053  12.362  0.00  0.00    +0.000 C 
BRANCH  15  16
ATOM     16  O   UNL     1      50.536   7.422  11.889  0.00  0.00    +0.000 OA
ATOM     17  H   UNL     1      50.401   7.946  11.078  0.00  0.00    +0.000 HD
ENDBRANCH  15  16
ENDBRANCH   1  15
BRANCH   1  18
ATOM     18  C   UNL     1      47.082   8.432  12.475  0.00  0.00    +0.000 C 
BRANCH  18  19
ATOM     19  N   UNL     1      46.038   7.779  13.283  0.00  0.00    +0.000 N 
ATOM     20  H   UNL     1      45.244   8.405  13.435  0.00  0.00    +0.000 HD
BRANCH  19  21
ATOM     21  C   UNL     1      45.552   6.570  12.727  0.00  0.00    +0.000 A 
ATOM     22  C   UNL     1      45.869   5.350  13.334  0.00  0.00    +0.000 A 
ATOM     23  C   UNL     1      45.404   4.148  12.786  0.00  0.00    +0.000 A 
ATOM     24  C   UNL     1      44.661   4.203  11.619  0.00  0.00    +0.000 A 
ATOM     25  N   UNL     1      44.380   5.353  10.955  0.00  0.00    +0.000 NA
ATOM     26  C   UNL     1      44.854   6.490  11.515  0.00  0.00    +0.000 A 
BRANCH  24  27
ATOM     27  C   UNL     1      44.103   2.951  11.014  0.00  0.00    +0.000 C 
ATOM     28  N   UNL     1      44.840   2.426   9.987  0.00  0.00    +0.000 N 
ATOM     29  O   UNL     1      43.061   2.434  11.398  0.00  0.00    +0.000 OA
ATOM     30  H   UNL     1      45.697   2.890   9.704  0.00  0.00    +0.000 HD
ATOM     31  H   UNL     1      44.529   1.587   9.520  0.00  0.00    +0.000 HD
ENDBRANCH  24  27
ENDBRANCH  19  21
ENDBRANCH  18  19
ENDBRANCH   1  18
TORSDOF 8
ENDMDL
MODEL 9
REMARK VINA RESULT:    -6.420      3.564      7.652
REMARK INTER + INTRA:         -10.474
REMARK INTER:                  -8.856
REMARK INTRA:                  -1.618
REMARK UNBOUND:                -1.239
REMARK  Name = 
REMARK  9 active torsions:
REMARK  status: ('A' for Active; 'I' for Inactive)
REMARK    1  A    between atoms: C_1  and  C_2
REMARK    2  A    between atoms: C_2  and  C_3
REMARK    3  A    between atoms: C_5  and  C_6
REMARK    4  A    between atoms: C_6  and  C_7
REMARK    5  A    between atoms: C_6  and  C_9
REMARK    6  A    between atoms: C_7  and  O_8
REMARK    7  A    between atoms: C_9  and  N_10
REMARK    8  A    between atoms: N_10  and  C_11
REMARK    9  A    between atoms: C_14  and  C_15
REMARK                            x       y       z     vdW  Elec       q    Type
REMARK                         _______ _______ _______ _____ _____    ______ ____
ROOT
ATOM      1  C   UNL     1      49.134   8.711  12.379  0.00  0.00    +0.000 C 
ENDROOT
BRANCH   1   4
ATOM      2  C   UNL     1      45.708   7.060  11.736  0.00  0.00    +0.000 A 
ATOM      3  C   UNL     1      47.080   7.227  11.946  0.00  0.00    +0.000 A 
ATOM      4  C   UNL     1      47.632   8.501  12.158  0.00  0.00    +0.000 A 
ATOM      5  C   UNL     1      46.750   9.581  12.195  0.00  0.00    +0.000 A 
ATOM      6  C   UNL     1      45.396   9.340  12.007  0.00  0.00    +0.000 A 
ATOM      7  N   UNL     1      44.867   8.117  11.771  0.00  0.00    +0.000 NA
BRANCH   2   9
ATOM      8  C   UNL     1      45.578   5.336   9.946  0.00  0.00    +0.000 C 
ATOM      9  C   UNL     1      45.139   5.670  11.395  0.00  0.00    +0.000 C 
ATOM     10  C   UNL     1      45.671   4.612  12.392  0.00  0.00    +0.000 C 
ATOM     11  C   UNL     1      45.000   3.254  12.207  0.00  0.00    +0.000 C 
ATOM     12  O   UNL     1      43.586   3.363  12.309  0.00  0.00    +0.000 OA
ATOM     13  C   UNL     1      43.027   4.237  11.331  0.00  0.00    +0.000 C 
ATOM     14  C   UNL     1      43.590   5.646  11.477  0.00  0.00    +0.000 C 
ENDBRANCH   2   9
ENDBRANCH   1   4
BRANCH   1  15
ATOM     15  C   UNL     1      49.390  10.146  12.862  0.00  0.00    +0.000 C 
BRANCH  15  16
ATOM     16  O   UNL     1      50.761  10.359  13.177  0.00  0.00    +0.000 OA
ATOM     17  H   UNL     1      51.090  11.044  12.565  0.00  0.00    +0.000 HD
ENDBRANCH  15  16
ENDBRANCH   1  15
BRANCH   1  18
ATOM     18  C   UNL     1      49.727   7.644  13.331  0.00  0.00    +0.000 C 
BRANCH  18  19
ATOM     19  N   UNL     1      49.523   7.928  14.762  0.00  0.00    +0.000 N 
ATOM     20  H   UNL     1      48.886   8.716  14.894  0.00  0.00    +0.000 HD
BRANCH  19  21
ATOM     21  C   UNL     1      49.028   6.826  15.502  0.00  0.00    +0.000 A 
ATOM     22  C   UNL     1      48.122   5.941  14.907  0.00  0.00    +0.000 A 
ATOM     23  C   UNL     1      47.617   4.855  15.632  0.00  0.00    +0.000 A 
ATOM     24  C   UNL     1      48.011   4.706  16.951  0.00  0.00    +0.000 A 
ATOM     25  N   UNL     1      48.836   5.571  17.595  0.00  0.00    +0.000 NA
ATOM     26  C   UNL     1      49.295   6.610  16.860  0.00  0.00    +0.000 A 
BRANCH  24  27
ATOM     27  C   UNL     1      47.535   3.539  17.759  0.00  0.00    +0.000 C 
ATOM     28  N   UNL     1      48.306   3.236  18.849  0.00  0.00    +0.000 N 
ATOM     29  O   UNL     1      46.536   2.892  17.469  0.00  0.00    +0.000 OA
ATOM     30  H   UNL     1      49.125   3.801  19.049  0.00  0.00    +0.000 HD
ATOM     31  H   UNL     1      48.058   2.458  19.443  0.00  0.00    +0.000 HD
ENDBRANCH  24  27
ENDBRANCH  19  21
ENDBRANCH  18  19
ENDBRANCH   1  18
TORSDOF 8
ENDMDL
