MODEL 1
REMARK VINA RESULT:    -7.550      0.000      0.000
REMARK INTER + INTRA:          -9.855
REMARK INTER:                  -9.537
REMARK INTRA:                  -0.318
REMARK UNBOUND:                -0.318
REMARK  Name = 
REMARK  8 active torsions:
REMARK  status: ('A' for Active; 'I' for Inactive)
REMARK    1  A    between atoms: C_1  and  C_2
REMARK    2  A    between atoms: C_5  and  C_6
REMARK    3  A    between atoms: C_6  and  C_7
REMARK    4  A    between atoms: C_6  and  N_8
REMARK    5  A    between atoms: N_8  and  C_9
REMARK    6  A    between atoms: C_12  and  C_13
REMARK    7  A    between atoms: N_15  and  O_16
REMARK    8  A    between atoms: C_18  and  C_19
REMARK                            x       y       z     vdW  Elec       q    Type
REMARK                         _______ _______ _______ _____ _____    ______ ____
ROOT
ATOM      1  C   UNL     1      44.281   3.719   9.910  0.00  0.00    +0.000 A 
ATOM      2  N   UNL     1      44.086   2.409   9.636  0.00  0.00    +0.000 NA
ATOM      3  C   UNL     1      44.951   1.795   8.779  0.00  0.00    +0.000 A 
ATOM      4  C   UNL     1      46.004   2.432   8.151  0.00  0.00    +0.000 A 
ATOM      5  C   UNL     1      46.163   3.796   8.395  0.00  0.00    +0.000 A 
ATOM      6  C   UNL     1      45.307   4.452   9.290  0.00  0.00    +0.000 A 
ATOM      7  C   UNL     1      45.503   5.922   9.519  0.00  0.00    +0.000 C 
ENDROOT
BRANCH   4   8
ATOM      8  C   UNL     1      46.955   1.715   7.259  0.00  0.00    +0.000 C 
ATOM      9  N   UNL     1      46.979   0.337   7.287  0.00  0.00    +0.000 N 
ATOM     10  N   UNL     1      47.730   2.401   6.467  0.00  0.00    +0.000 NA
ATOM     11  H   UNL     1      46.071  -0.107   7.322  0.00  0.00    +0.000 HD
ATOM     12  H   UNL     1      47.536  -0.001   6.503  0.00  0.00    +0.000 HD
BRANCH  10  13
ATOM     13  O   UNL     1      48.533   1.536   5.700  0.00  0.00    +0.000 OA
ATOM     14  H   UNL     1      47.902   1.220   5.026  0.00  0.00    +0.000 HD
ENDBRANCH  10  13
ENDBRANCH   4   8
BRANCH   1  15
ATOM     15  N   UNL     1      43.422   4.372  10.783  0.00  0.00    +0.000 N 
ATOM     16  H   UNL     1      43.337   5.368  10.598  0.00  0.00    +0.000 HD
BRANCH  15  17
ATOM     17  C   UNL     1      43.442   4.085  12.218  0.00  0.00    +0.000 C 
ATOM     18  C   UNL     1      43.524   2.590  12.517  0.00  0.00    +0.000 C 
BRANCH  17  23
ATOM     19  C   UNL     1      48.389   6.617  13.763  0.00  0.00    +0.000 C 
ATOM     20  C   UNL     1      47.037   6.020  13.536  0.00  0.00    +0.000 A 
ATOM     21  C   UNL     1      45.957   6.798  13.123  0.00  0.00    +0.000 A 
ATOM     22  C   UNL     1      44.761   6.184  12.756  0.00  0.00    +0.000 A 
ATOM     23  C   UNL     1      44.671   4.794  12.804  0.00  0.00    +0.000 A 
ATOM     24  N   UNL     1      45.694   4.020  13.267  0.00  0.00    +0.000 NA
ATOM     25  C   UNL     1      46.840   4.646  13.614  0.00  0.00    +0.000 A 
ENDBRANCH  17  23
ENDBRANCH  15  17
ENDBRANCH   1  15
TORSDOF 5
ENDMDL
MODEL 2
REMARK VINA RESULT:    -7.328      3.469      6.894
REMARK INTER + INTRA:          -9.574
REMARK INTER:                  -9.047
REMARK INTRA:                  -0.528
REMARK UNBOUND:                -0.318
REMARK  Name = 
REMARK  8 active torsions:
REMARK  status: ('A' for Active; 'I' for Inactive)
REMARK    1  A    between atoms: C_1  and  C_2
REMARK    2  A    between atoms: C_5  and  C_6
REMARK    3  A    between atoms: C_6  and  C_7
REMARK    4  A    between atoms: C_6  and  N_8
REMARK    5  A    between atoms: N_8  and  C_9
REMARK    6  A    between atoms: C_12  and  C_13
REMARK    7  A    between atoms: N_15  and  O_16
REMARK    8  A    between atoms: C_18  and  C_19
REMARK                            x       y       z     vdW  Elec       q    Type
REMARK                         _______ _______ _______ _____ _____    ______ ____
ROOT
ATOM      1  C   UNL     1      46.287   5.365  12.632  0.00  0.00    +0.000 A 
ATOM      2  N   UNL     1      46.028   4.322  13.452  0.00  0.00    +0.000 NA
ATOM      3  C   UNL     1      46.673   4.270  14.652  0.00  0.00    +0.000 A 
ATOM      4  C   UNL     1      47.595   5.207  15.077  0.00  0.00    +0.000 A 
ATOM      5  C   UNL     1      47.898   6.249  14.201  0.00  0.00    +0.000 A 
ATOM      6  C   UNL     1      47.235   6.345  12.970  0.00  0.00    +0.000 A 
ATOM      7  C   UNL     1      47.595   7.475  12.050  0.00  0.00    +0.000 C 
ENDROOT
BRANCH   4   8
ATOM      8  C   UNL     1      48.243   5.142  16.414  0.00  0.00    +0.000 C 
ATOM      9  N   UNL     1      47.911   6.092  17.358  0.00  0.00    +0.000 N 
ATOM     10  N   UNL     1      49.093   4.189  16.669  0.00  0.00    +0.000 NA
ATOM     11  H   UNL     1      46.926   6.314  17.414  0.00  0.00    +0.000 HD
ATOM     12  H   UNL     1      48.288   5.807  18.262  0.00  0.00    +0.000 HD
BRANCH  10  13
ATOM     13  O   UNL     1      49.572   4.298  17.988  0.00  0.00    +0.000 OA
ATOM     14  H   UNL     1      49.426   3.397  18.331  0.00  0.00    +0.000 HD
ENDBRANCH  10  13
ENDBRANCH   4   8
BRANCH   1  15
ATOM     15  N   UNL     1      45.641   5.450  11.405  0.00  0.00    +0.000 N 
ATOM     16  H   UNL     1      45.360   6.396  11.161  0.00  0.00    +0.000 HD
BRANCH  15  17
ATOM     17  C   UNL     1      44.635   4.464  11.011  0.00  0.00    +0.000 C 
ATOM     18  C   UNL     1      43.255   5.083  10.803  0.00  0.00    +0.000 C 
BRANCH  17  23
ATOM     19  C   UNL     1      47.130   2.147   6.355  0.00  0.00    +0.000 C 
ATOM     20  C   UNL     1      46.312   2.705   7.476  0.00  0.00    +0.000 A 
ATOM     21  C   UNL     1      45.739   1.879   8.441  0.00  0.00    +0.000 A 
ATOM     22  C   UNL     1      45.132   2.443   9.562  0.00  0.00    +0.000 A 
ATOM     23  C   UNL     1      45.115   3.829   9.699  0.00  0.00    +0.000 A 
ATOM     24  N   UNL     1      45.611   4.656   8.734  0.00  0.00    +0.000 NA
ATOM     25  C   UNL     1      46.195   4.078   7.660  0.00  0.00    +0.000 A 
ENDBRANCH  17  23
ENDBRANCH  15  17
ENDBRANCH   1  15
TORSDOF 5
ENDMDL
MODEL 3
REMARK VINA RESULT:    -7.213      2.136      3.080
REMARK INTER + INTRA:          -9.428
REMARK INTER:                  -9.021
REMARK INTRA:                  -0.407
REMARK UNBOUND:                -0.318
REMARK  Name = 
REMARK  8 active torsions:
REMARK  status: ('A' for Active; 'I' for Inactive)
REMARK    1  A    between atoms: C_1  and  C_2
REMARK    2  A    between atoms: C_5  and  C_6
REMARK    3  A    between atoms: C_6  and  C_7
REMARK    4  A    between atoms: C_6  and  N_8
REMARK    5  A    between atoms: N_8  and  C_9
REMARK    6  A    between atoms: C_12  and  C_13
REMARK    7  A    between atoms: N_15  and  O_16
REMARK    8  A    between atoms: C_18  and  C_19
REMARK                            x       y       z     vdW  Elec       q    Type
REMARK                         _______ _______ _______ _____ _____    ______ ____
ROOT
ATOM      1  C   UNL     1      44.729   4.552   9.788  0.00  0.00    +0.000 A 
ATOM      2  N   UNL     1      45.592   5.118   8.914  0.00  0.00    +0.000 NA
ATOM      3  C   UNL     1      46.324   4.297   8.108  0.00  0.00    +0.000 A 
ATOM      4  C   UNL     1      46.260   2.917   8.144  0.00  0.00    +0.000 A 
ATOM      5  C   UNL     1      45.409   2.341   9.088  0.00  0.00    +0.000 A 
ATOM      6  C   UNL     1      44.624   3.156   9.913  0.00  0.00    +0.000 A 
ATOM      7  C   UNL     1      43.729   2.500  10.923  0.00  0.00    +0.000 C 
ENDROOT
BRANCH   4   8
ATOM      8  C   UNL     1      47.040   2.057   7.216  0.00  0.00    +0.000 C 
ATOM      9  N   UNL     1      46.907   0.688   7.312  0.00  0.00    +0.000 N 
ATOM     10  N   UNL     1      47.817   2.611   6.329  0.00  0.00    +0.000 NA
ATOM     11  H   UNL     1      45.960   0.357   7.443  0.00  0.00    +0.000 HD
ATOM     12  H   UNL     1      47.351   0.253   6.503  0.00  0.00    +0.000 HD
BRANCH  10  13
ATOM     13  O   UNL     1      48.445   1.625   5.544  0.00  0.00    +0.000 OA
ATOM     14  H   UNL     1      48.152   1.866   4.645  0.00  0.00    +0.000 HD
ENDBRANCH  10  13
ENDBRANCH   4   8
BRANCH   1  15
ATOM     15  N   UNL     1      43.963   5.360  10.618  0.00  0.00    +0.000 N 
ATOM     16  H   UNL     1      43.438   6.071  10.116  0.00  0.00    +0.000 HD
BRANCH  15  17
ATOM     17  C   UNL     1      44.498   5.868  11.881  0.00  0.00    +0.000 C 
ATOM     18  C   UNL     1      45.707   5.074  12.370  0.00  0.00    +0.000 C 
BRANCH  17  23
ATOM     19  C   UNL     1      45.642  11.515  11.618  0.00  0.00    +0.000 C 
ATOM     20  C   UNL     1      45.464  10.033  11.531  0.00  0.00    +0.000 A 
ATOM     21  C   UNL     1      46.418   9.153  12.037  0.00  0.00    +0.000 A 
ATOM     22  C   UNL     1      46.141   7.788  12.094  0.00  0.00    +0.000 A 
ATOM     23  C   UNL     1      44.904   7.329  11.646  0.00  0.00    +0.000 A 
ATOM     24  N   UNL     1      43.983   8.165  11.087  0.00  0.00    +0.000 NA
ATOM     25  C   UNL     1      44.282   9.483  11.047  0.00  0.00    +0.000 A 
ENDBRANCH  17  23
ENDBRANCH  15  17
ENDBRANCH   1  15
TORSDOF 5
ENDMDL
MODEL 4
REMARK VINA RESULT:    -7.124      3.789      7.031
REMARK INTER + INTRA:          -9.316
REMARK INTER:                  -8.747
REMARK INTRA:                  -0.569
REMARK UNBOUND:                -0.318
REMARK  Name = 
REMARK  8 active torsions:
REMARK  status: ('A' for Active; 'I' for Inactive)
REMARK    1  A    between atoms: C_1  and  C_2
REMARK    2  A    between atoms: C_5  and  C_6
REMARK    3  A    between atoms: C_6  and  C_7
REMARK    4  A    between atoms: C_6  and  N_8
REMARK    5  A    between atoms: N_8  and  C_9
REMARK    6  A    between atoms: C_12  and  C_13
REMARK    7  A    between atoms: N_15  and  O_16
REMARK    8  A    between atoms: C_18  and  C_19
REMARK                            x       y       z     vdW  Elec       q    Type
REMARK                         _______ _______ _______ _____ _____    ______ ____
ROOT
ATOM      1  C   UNL     1      45.691   6.819  11.581  0.00  0.00    +0.000 A 
ATOM      2  N   UNL     1      46.778   6.221  12.119  0.00  0.00    +0.000 NA
ATOM      3  C   UNL     1      47.517   6.921  13.026  0.00  0.00    +0.000 A 
ATOM      4  C   UNL     1      47.241   8.218  13.414  0.00  0.00    +0.000 A 
ATOM      5  C   UNL     1      46.151   8.847  12.812  0.00  0.00    +0.000 A 
ATOM      6  C   UNL     1      45.356   8.148  11.895  0.00  0.00    +0.000 A 
ATOM      7  C   UNL     1      44.199   8.861  11.261  0.00  0.00    +0.000 C 
ENDROOT
BRANCH   4   8
ATOM      8  C   UNL     1      48.043   8.933  14.442  0.00  0.00    +0.000 C 
ATOM      9  N   UNL     1      47.471   9.188  15.670  0.00  0.00    +0.000 N 
ATOM     10  N   UNL     1      49.266   9.288  14.167  0.00  0.00    +0.000 NA
ATOM     11  H   UNL     1      46.934   8.424  16.060  0.00  0.00    +0.000 HD
ATOM     12  H   UNL     1      48.195   9.509  16.313  0.00  0.00    +0.000 HD
BRANCH  10  13
ATOM     13  O   UNL     1      49.851   9.930  15.275  0.00  0.00    +0.000 OA
ATOM     14  H   UNL     1      49.553  10.851  15.155  0.00  0.00    +0.000 HD
ENDBRANCH  10  13
ENDBRANCH   4   8
BRANCH   1  15
ATOM     15  N   UNL     1      44.914   6.130  10.660  0.00  0.00    +0.000 N 
ATOM     16  H   UNL     1      44.103   6.654  10.342  0.00  0.00    +0.000 HD
BRANCH  15  17
ATOM     17  C   UNL     1      44.607   4.711  10.842  0.00  0.00    +0.000 C 
ATOM     18  C   UNL     1      43.111   4.449  11.002  0.00  0.00    +0.000 C 
BRANCH  17  23
ATOM     19  C   UNL     1      47.239   1.998   6.485  0.00  0.00    +0.000 C 
ATOM     20  C   UNL     1      46.389   2.661   7.522  0.00  0.00    +0.000 A 
ATOM     21  C   UNL     1      45.727   1.923   8.501  0.00  0.00    +0.000 A 
ATOM     22  C   UNL     1      45.087   2.582   9.549  0.00  0.00    +0.000 A 
ATOM     23  C   UNL     1      45.127   3.974   9.600  0.00  0.00    +0.000 A 
ATOM     24  N   UNL     1      45.713   4.716   8.617  0.00  0.00    +0.000 NA
ATOM     25  C   UNL     1      46.326   4.047   7.615  0.00  0.00    +0.000 A 
ENDBRANCH  17  23
ENDBRANCH  15  17
ENDBRANCH   1  15
TORSDOF 5
ENDMDL
MODEL 5
REMARK VINA RESULT:    -6.532      3.160      6.260
REMARK INTER + INTRA:          -8.569
REMARK INTER:                  -8.575
REMARK INTRA:                   0.006
REMARK UNBOUND:                -0.318
REMARK  Name = 
REMARK  8 active torsions:
REMARK  status: ('A' for Active; 'I' for Inactive)
REMARK    1  A    between atoms: C_1  and  C_2
REMARK    2  A    between atoms: C_5  and  C_6
REMARK    3  A    between atoms: C_6  and  C_7
REMARK    4  A    between atoms: C_6  and  N_8
REMARK    5  A    between atoms: N_8  and  C_9
REMARK    6  A    between atoms: C_12  and  C_13
REMARK    7  A    between atoms: N_15  and  O_16
REMARK    8  A    between atoms: C_18  and  C_19
REMARK                            x       y       z     vdW  Elec       q    Type
REMARK                         _______ _______ _______ _____ _____    ______ ____
ROOT
ATOM      1  C   UNL     1      45.179   5.348  13.030  0.00  0.00    +0.000 A 
ATOM      2  N   UNL     1      44.797   6.632  12.847  0.00  0.00    +0.000 NA
ATOM      3  C   UNL     1      45.750   7.605  12.923  0.00  0.00    +0.000 A 
ATOM      4  C   UNL     1      47.082   7.365  13.201  0.00  0.00    +0.000 A 
ATOM      5  C   UNL     1      47.456   6.043  13.446  0.00  0.00    +0.000 A 
ATOM      6  C   UNL     1      46.507   5.017  13.350  0.00  0.00    +0.000 A 
ATOM      7  C   UNL     1      46.945   3.610  13.630  0.00  0.00    +0.000 C 
ENDROOT
BRANCH   4   8
ATOM      8  C   UNL     1      48.100   8.448  13.229  0.00  0.00    +0.000 C 
ATOM      9  N   UNL     1      47.736   9.687  13.712  0.00  0.00    +0.000 N 
ATOM     10  N   UNL     1      49.310   8.201  12.812  0.00  0.00    +0.000 NA
ATOM     11  H   UNL     1      47.164   9.671  14.546  0.00  0.00    +0.000 HD
ATOM     12  H   UNL     1      48.576  10.253  13.839  0.00  0.00    +0.000 HD
BRANCH  10  13
ATOM     13  O   UNL     1      50.115   9.348  12.940  0.00  0.00    +0.000 OA
ATOM     14  H   UNL     1      49.671   9.827  13.665  0.00  0.00    +0.000 HD
ENDBRANCH  10  13
ENDBRANCH   4   8
BRANCH   1  15
ATOM     15  N   UNL     1      44.234   4.333  12.952  0.00  0.00    +0.000 N 
ATOM     16  H   UNL     1      44.570   3.440  13.300  0.00  0.00    +0.000 HD
BRANCH  15  17
ATOM     17  C   UNL     1      43.394   4.174  11.765  0.00  0.00    +0.000 C 
ATOM     18  C   UNL     1      42.584   5.428  11.444  0.00  0.00    +0.000 C 
BRANCH  17  23
ATOM     19  C   UNL     1      46.286   2.915   6.935  0.00  0.00    +0.000 C 
ATOM     20  C   UNL     1      45.712   3.264   8.271  0.00  0.00    +0.000 A 
ATOM     21  C   UNL     1      45.621   4.586   8.703  0.00  0.00    +0.000 A 
ATOM     22  C   UNL     1      44.927   4.886   9.874  0.00  0.00    +0.000 A 
ATOM     23  C   UNL     1      44.328   3.852  10.590  0.00  0.00    +0.000 A 
ATOM     24  N   UNL     1      44.461   2.546  10.220  0.00  0.00    +0.000 NA
ATOM     25  C   UNL     1      45.140   2.289   9.080  0.00  0.00    +0.000 A 
ENDBRANCH  17  23
ENDBRANCH  15  17
ENDBRANCH   1  15
TORSDOF 5
ENDMDL
MODEL 6
REMARK VINA RESULT:    -6.491      4.288      7.652
REMARK INTER + INTRA:          -8.516
REMARK INTER:                  -7.885
REMARK INTRA:                  -0.632
REMARK UNBOUND:                -0.318
REMARK  Name = 
REMARK  8 active torsions:
REMARK  status: ('A' for Active; 'I' for Inactive)
REMARK    1  A    between atoms: C_1  and  C_2
REMARK    2  A    between atoms: C_5  and  C_6
REMARK    3  A    between atoms: C_6  and  C_7
REMARK    4  A    between atoms: C_6  and  N_8
REMARK    5  A    between atoms: N_8  and  C_9
REMARK    6  A    between atoms: C_12  and  C_13
REMARK    7  A    between atoms: N_15  and  O_16
REMARK    8  A    between atoms: C_18  and  C_19
REMARK                            x       y       z     vdW  Elec       q    Type
REMARK                         _______ _______ _______ _____ _____    ______ ____
ROOT
ATOM      1  C   UNL     1      47.478   5.382  14.395  0.00  0.00    +0.000 A 
ATOM      2  N   UNL     1      47.140   4.120  14.745  0.00  0.00    +0.000 NA
ATOM      3  C   UNL     1      47.559   3.653  15.955  0.00  0.00    +0.000 A 
ATOM      4  C   UNL     1      48.331   4.380  16.842  0.00  0.00    +0.000 A 
ATOM      5  C   UNL     1      48.723   5.659  16.448  0.00  0.00    +0.000 A 
ATOM      6  C   UNL     1      48.288   6.179  15.222  0.00  0.00    +0.000 A 
ATOM      7  C   UNL     1      48.738   7.556  14.829  0.00  0.00    +0.000 C 
ENDROOT
BRANCH   4   8
ATOM      8  C   UNL     1      48.730   3.852  18.174  0.00  0.00    +0.000 C 
ATOM      9  N   UNL     1      49.683   2.858  18.234  0.00  0.00    +0.000 N 
ATOM     10  N   UNL     1      48.182   4.346  19.248  0.00  0.00    +0.000 NA
ATOM     11  H   UNL     1      50.473   2.983  17.615  0.00  0.00    +0.000 HD
ATOM     12  H   UNL     1      49.977   2.739  19.204  0.00  0.00    +0.000 HD
BRANCH  10  13
ATOM     13  O   UNL     1      48.710   3.725  20.396  0.00  0.00    +0.000 OA
ATOM     14  H   UNL     1      49.655   3.648  20.167  0.00  0.00    +0.000 HD
ENDBRANCH  10  13
ENDBRANCH   4   8
BRANCH   1  15
ATOM     15  N   UNL     1      47.060   5.890  13.173  0.00  0.00    +0.000 N 
ATOM     16  H   UNL     1      47.672   6.613  12.805  0.00  0.00    +0.000 HD
BRANCH  15  17
ATOM     17  C   UNL     1      45.650   6.190  12.921  0.00  0.00    +0.000 C 
ATOM     18  C   UNL     1      45.424   7.639  12.494  0.00  0.00    +0.000 C 
BRANCH  17  23
ATOM     19  C   UNL     1      44.575   2.368   8.736  0.00  0.00    +0.000 C 
ATOM     20  C   UNL     1      44.664   3.404   9.811  0.00  0.00    +0.000 A 
ATOM     21  C   UNL     1      44.267   3.133  11.119  0.00  0.00    +0.000 A 
ATOM     22  C   UNL     1      44.523   4.061  12.127  0.00  0.00    +0.000 A 
ATOM     23  C   UNL     1      45.180   5.247  11.805  0.00  0.00    +0.000 A 
ATOM     24  N   UNL     1      45.517   5.560  10.521  0.00  0.00    +0.000 NA
ATOM     25  C   UNL     1      45.256   4.638   9.567  0.00  0.00    +0.000 A 
ENDBRANCH  17  23
ENDBRANCH  15  17
ENDBRANCH   1  15
TORSDOF 5
ENDMDL
MODEL 7
REMARK VINA RESULT:    -6.356      3.921      5.763
REMARK INTER + INTRA:          -8.346
REMARK INTER:                  -7.912
REMARK INTRA:                  -0.434
REMARK UNBOUND:                -0.318
REMARK  Name = 
REMARK  8 active torsions:
REMARK  status: ('A' for Active; 'I' for Inactive)
REMARK    1  A    between atoms: C_1  and  C_2
REMARK    2  A    between atoms: C_5  and  C_6
REMARK    3  A    between atoms: C_6  and  C_7
REMARK    4  A    between atoms: C_6  and  N_8
REMARK    5  A    between atoms: N_8  and  C_9
REMARK    6  A    between atoms: C_12  and  C_13
REMARK    7  A    between atoms: N_15  and  O_16
REMARK    8  A    between atoms: C_18  and  C_19
REMARK                            x       y       z     vdW  Elec       q    Type
REMARK                         _______ _______ _______ _____ _____    ______ ____
ROOT
ATOM      1  C   UNL     1      46.876   4.979  14.271  0.00  0.00    +0.000 A 
ATOM      2  N   UNL     1      45.909   4.049  14.099  0.00  0.00    +0.000 NA
ATOM      3  C   UNL     1      45.198   4.066  12.936  0.00  0.00    +0.000 A 
ATOM      4  C   UNL     1      45.386   4.990  11.926  0.00  0.00    +0.000 A 
ATOM      5  C   UNL     1      46.346   5.980  12.136  0.00  0.00    +0.000 A 
ATOM      6  C   UNL     1      47.112   5.976  13.309  0.00  0.00    +0.000 A 
ATOM      7  C   UNL     1      48.128   7.063  13.504  0.00  0.00    +0.000 C 
ENDROOT
BRANCH   4   8
ATOM      8  C   UNL     1      44.622   4.947  10.650  0.00  0.00    +0.000 C 
ATOM      9  N   UNL     1      43.419   5.616  10.576  0.00  0.00    +0.000 N 
ATOM     10  N   UNL     1      45.110   4.294   9.634  0.00  0.00    +0.000 NA
ATOM     11  H   UNL     1      43.411   6.534  11.001  0.00  0.00    +0.000 HD
ATOM     12  H   UNL     1      43.117   5.647   9.602  0.00  0.00    +0.000 HD
BRANCH  10  13
ATOM     13  O   UNL     1      44.246   4.394   8.528  0.00  0.00    +0.000 OA
ATOM     14  H   UNL     1      43.414   4.032   8.888  0.00  0.00    +0.000 HD
ENDBRANCH  10  13
ENDBRANCH   4   8
BRANCH   1  15
ATOM     15  N   UNL     1      47.623   4.984  15.441  0.00  0.00    +0.000 N 
ATOM     16  H   UNL     1      48.612   5.161  15.289  0.00  0.00    +0.000 HD
BRANCH  15  17
ATOM     17  C   UNL     1      47.403   3.980  16.482  0.00  0.00    +0.000 C 
ATOM     18  C   UNL     1      48.238   2.719  16.268  0.00  0.00    +0.000 C 
BRANCH  17  23
ATOM     19  C   UNL     1      49.212   6.909  21.110  0.00  0.00    +0.000 C 
ATOM     20  C   UNL     1      48.639   6.041  20.036  0.00  0.00    +0.000 A 
ATOM     21  C   UNL     1      47.351   6.244  19.544  0.00  0.00    +0.000 A 
ATOM     22  C   UNL     1      46.915   5.530  18.429  0.00  0.00    +0.000 A 
ATOM     23  C   UNL     1      47.783   4.626  17.821  0.00  0.00    +0.000 A 
ATOM     24  N   UNL     1      49.023   4.365  18.326  0.00  0.00    +0.000 NA
ATOM     25  C   UNL     1      49.416   5.075  19.408  0.00  0.00    +0.000 A 
ENDBRANCH  17  23
ENDBRANCH  15  17
ENDBRANCH   1  15
TORSDOF 5
ENDMDL
MODEL 8
REMARK VINA RESULT:    -6.287      3.704      6.051
REMARK INTER + INTRA:          -8.259
REMARK INTER:                  -7.713
REMARK INTRA:                  -0.546
REMARK UNBOUND:                -0.318
REMARK  Name = 
REMARK  8 active torsions:
REMARK  status: ('A' for Active; 'I' for Inactive)
REMARK    1  A    between atoms: C_1  and  C_2
REMARK    2  A    between atoms: C_5  and  C_6
REMARK    3  A    between atoms: C_6  and  C_7
REMARK    4  A    between atoms: C_6  and  N_8
REMARK    5  A    between atoms: N_8  and  C_9
REMARK    6  A    between atoms: C_12  and  C_13
REMARK    7  A    between atoms: N_15  and  O_16
REMARK    8  A    between atoms: C_18  and  C_19
REMARK                            x       y       z     vdW  Elec       q    Type
REMARK                         _______ _______ _______ _____ _____    ______ ____
ROOT
ATOM      1  C   UNL     1      47.114   6.249  13.690  0.00  0.00    +0.000 A 
ATOM      2  N   UNL     1      47.367   4.945  13.943  0.00  0.00    +0.000 NA
ATOM      3  C   UNL     1      46.562   4.009  13.366  0.00  0.00    +0.000 A 
ATOM      4  C   UNL     1      45.484   4.307  12.555  0.00  0.00    +0.000 A 
ATOM      5  C   UNL     1      45.196   5.656  12.345  0.00  0.00    +0.000 A 
ATOM      6  C   UNL     1      46.019   6.643  12.903  0.00  0.00    +0.000 A 
ATOM      7  C   UNL     1      45.671   8.083  12.663  0.00  0.00    +0.000 C 
ENDROOT
BRANCH   4   8
ATOM      8  C   UNL     1      44.657   3.256  11.905  0.00  0.00    +0.000 C 
ATOM      9  N   UNL     1      44.996   2.837  10.636  0.00  0.00    +0.000 N 
ATOM     10  N   UNL     1      43.645   2.747  12.549  0.00  0.00    +0.000 NA
ATOM     11  H   UNL     1      45.986   2.704  10.478  0.00  0.00    +0.000 HD
ATOM     12  H   UNL     1      44.460   1.999  10.409  0.00  0.00    +0.000 HD
BRANCH  10  13
ATOM     13  O   UNL     1      43.013   1.762  11.768  0.00  0.00    +0.000 OA
ATOM     14  H   UNL     1      43.003   2.179  10.886  0.00  0.00    +0.000 HD
ENDBRANCH  10  13
ENDBRANCH   4   8
BRANCH   1  15
ATOM     15  N   UNL     1      47.920   7.228  14.256  0.00  0.00    +0.000 N 
ATOM     16  H   UNL     1      48.006   8.063  13.684  0.00  0.00    +0.000 HD
BRANCH  15  17
ATOM     17  C   UNL     1      49.185   6.882  14.906  0.00  0.00    +0.000 C 
ATOM     18  C   UNL     1      50.310   7.854  14.558  0.00  0.00    +0.000 C 
BRANCH  17  23
ATOM     19  C   UNL     1      47.522   6.976  20.429  0.00  0.00    +0.000 C 
ATOM     20  C   UNL     1      48.136   6.935  19.066  0.00  0.00    +0.000 A 
ATOM     21  C   UNL     1      48.524   5.733  18.477  0.00  0.00    +0.000 A 
ATOM     22  C   UNL     1      48.931   5.715  17.144  0.00  0.00    +0.000 A 
ATOM     23  C   UNL     1      48.936   6.906  16.420  0.00  0.00    +0.000 A 
ATOM     24  N   UNL     1      48.623   8.102  16.996  0.00  0.00    +0.000 NA
ATOM     25  C   UNL     1      48.232   8.085  18.291  0.00  0.00    +0.000 A 
ENDBRANCH  17  23
ENDBRANCH  15  17
ENDBRANCH   1  15
TORSDOF 5
ENDMDL
MODEL 9
REMARK VINA RESULT:    -6.046      3.326      5.372
REMARK INTER + INTRA:          -7.955
REMARK INTER:                  -7.303
REMARK INTRA:                  -0.651
REMARK UNBOUND:                -0.318
REMARK  Name = 
REMARK  8 active torsions:
REMARK  status: ('A' for Active; 'I' for Inactive)
REMARK    1  A    between atoms: C_1  and  C_2
REMARK    2  A    between atoms: C_5  and  C_6
REMARK    3  A    between atoms: C_6  and  C_7
REMARK    4  A    between atoms: C_6  and  N_8
REMARK    5  A    between atoms: N_8  and  C_9
REMARK    6  A    between atoms: C_12  and  C_13
REMARK    7  A    between atoms: N_15  and  O_16
REMARK    8  A    between atoms: C_18  and  C_19
REMARK                            x       y       z     vdW  Elec       q    Type
REMARK                         _______ _______ _______ _____ _____    ______ ____
ROOT
ATOM      1  C   UNL     1      46.804   6.214  13.423  0.00  0.00    +0.000 A 
ATOM      2  N   UNL     1      46.217   5.028  13.699  0.00  0.00    +0.000 NA
ATOM      3  C   UNL     1      45.546   4.392  12.697  0.00  0.00    +0.000 A 
ATOM      4  C   UNL     1      45.405   4.894  11.418  0.00  0.00    +0.000 A 
ATOM      5  C   UNL     1      45.966   6.145  11.158  0.00  0.00    +0.000 A 
ATOM      6  C   UNL     1      46.684   6.813  12.157  0.00  0.00    +0.000 A 
ATOM      7  C   UNL     1      47.264   8.161  11.843  0.00  0.00    +0.000 C 
ENDROOT
BRANCH   4   8
ATOM      8  C   UNL     1      44.705   4.149  10.339  0.00  0.00    +0.000 C 
ATOM      9  N   UNL     1      43.764   3.203  10.689  0.00  0.00    +0.000 N 
ATOM     10  N   UNL     1      44.984   4.412   9.093  0.00  0.00    +0.000 NA
ATOM     11  H   UNL     1      43.142   3.475  11.439  0.00  0.00    +0.000 HD
ATOM     12  H   UNL     1      43.251   2.921   9.854  0.00  0.00    +0.000 HD
BRANCH  10  13
ATOM     13  O   UNL     1      44.202   3.614   8.237  0.00  0.00    +0.000 OA
ATOM     14  H   UNL     1      44.281   4.091   7.389  0.00  0.00    +0.000 HD
ENDBRANCH  10  13
ENDBRANCH   4   8
BRANCH   1  15
ATOM     15  N   UNL     1      47.502   6.883  14.419  0.00  0.00    +0.000 N 
ATOM     16  H   UNL     1      47.487   7.893  14.315  0.00  0.00    +0.000 HD
BRANCH  15  17
ATOM     17  C   UNL     1      48.804   6.403  14.883  0.00  0.00    +0.000 C 
ATOM     18  C   UNL     1      49.882   7.483  14.829  0.00  0.00    +0.000 C 
BRANCH  17  23
ATOM     19  C   UNL     1      48.855   4.507  20.331  0.00  0.00    +0.000 C 
ATOM     20  C   UNL     1      48.652   5.037  18.947  0.00  0.00    +0.000 A 
ATOM     21  C   UNL     1      48.628   6.407  18.688  0.00  0.00    +0.000 A 
ATOM     22  C   UNL     1      48.610   6.861  17.370  0.00  0.00    +0.000 A 
ATOM     23  C   UNL     1      48.622   5.931  16.332  0.00  0.00    +0.000 A 
ATOM     24  N   UNL     1      48.578   4.588  16.566  0.00  0.00    +0.000 NA
ATOM     25  C   UNL     1      48.598   4.180  17.855  0.00  0.00    +0.000 A 
ENDBRANCH  17  23
ENDBRANCH  15  17
ENDBRANCH   1  15
TORSDOF 5
ENDMDL
