MODEL 1
REMARK VINA RESULT:    -7.372      0.000      0.000
REMARK INTER + INTRA:         -11.473
REMARK INTER:                 -10.389
REMARK INTRA:                  -1.084
REMARK UNBOUND:                -1.084
REMARK  Name = 
REMARK  7 active torsions:
REMARK  status: ('A' for Active; 'I' for Inactive)
REMARK    1  A    between atoms: C_2  and  C_3
REMARK    2  A    between atoms: C_7  and  C_8
REMARK    3  A    between atoms: N_10  and  C_11
REMARK    4  A    between atoms: C_11  and  C_12
REMARK    5  A    between atoms: C_15  and  C_16
REMARK    6  A    between atoms: C_16  and  N_17
REMARK    7  A    between atoms: C_18  and  C_20
REMARK                            x       y       z     vdW  Elec       q    Type
REMARK                         _______ _______ _______ _____ _____    ______ ____
ROOT
ATOM      1  C   UNL     1      51.423   3.813  17.800  0.00  0.00    +0.000 A 
ATOM      2  C   UNL     1      50.549   4.908  17.813  0.00  0.00    +0.000 A 
ATOM      3  C   UNL     1      49.204   4.753  17.453  0.00  0.00    +0.000 A 
ATOM      4  C   UNL     1      48.701   3.496  17.089  0.00  0.00    +0.000 A 
ATOM      5  C   UNL     1      49.582   2.407  17.052  0.00  0.00    +0.000 A 
ATOM      6  C   UNL     1      50.924   2.561  17.417  0.00  0.00    +0.000 A 
ENDROOT
BRANCH   1   7
ATOM      7  C   UNL     1      52.874   3.971  18.179  0.00  0.00    +0.000 C 
BRANCH   7  10
ATOM      8  C   UNL     1      54.283   1.981  18.539  0.00  0.00    +0.000 C 
ATOM      9  O   UNL     1      54.162   2.036  19.758  0.00  0.00    +0.000 OA
ATOM     10  N   UNL     1      53.703   2.890  17.685  0.00  0.00    +0.000 N 
ATOM     11  H   UNL     1      53.936   2.881  16.701  0.00  0.00    +0.000 HD
BRANCH   8  16
ATOM     12  C   UNL     1      54.186  -0.335  17.531  0.00  0.00    +0.000 C 
ATOM     13  C   UNL     1      54.893  -1.039  16.368  0.00  0.00    +0.000 C 
ATOM     14  C   UNL     1      55.775   0.009  15.697  0.00  0.00    +0.000 C 
ATOM     15  C   UNL     1      55.559   1.307  16.465  0.00  0.00    +0.000 C 
ATOM     16  C   UNL     1      55.073   0.878  17.847  0.00  0.00    +0.000 C 
BRANCH  12  18
ATOM     17  N   UNL     1      53.928  -1.899  19.627  0.00  0.00    +0.000 NA
ATOM     18  C   UNL     1      54.034  -1.224  18.690  0.00  0.00    +0.000 C 
ENDBRANCH  12  18
ENDBRANCH   8  16
ENDBRANCH   7  10
ENDBRANCH   1   7
BRANCH   4  19
ATOM     19  C   UNL     1      47.247   3.312  16.730  0.00  0.00    +0.000 C 
BRANCH  19  20
ATOM     20  N   UNL     1      46.796   4.313  15.798  0.00  0.00    +0.000 N 
ATOM     21  C   UNL     1      46.841   4.103  14.443  0.00  0.00    +0.000 C 
ATOM     22  O   UNL     1      47.205   3.034  13.958  0.00  0.00    +0.000 OA
ATOM     23  H   UNL     1      46.738   5.264  16.148  0.00  0.00    +0.000 HD
BRANCH  21  24
ATOM     24  C   UNL     1      46.367   5.206  13.595  0.00  0.00    +0.000 A 
ATOM     25  C   UNL     1      47.152   6.338  13.426  0.00  0.00    +0.000 A 
ATOM     26  S   UNL     1      46.470   7.490  12.367  0.00  0.00    +0.000 S 
ATOM     27  C   UNL     1      45.077   6.540  12.143  0.00  0.00    +0.000 A 
ATOM     28  N   UNL     1      44.057   6.965  11.349  0.00  0.00    +0.000 NA
ATOM     29  C   UNL     1      43.053   6.156  11.287  0.00  0.00    +0.000 A 
ATOM     30  N   UNL     1      42.978   4.956  11.948  0.00  0.00    +0.000 N 
ATOM     31  C   UNL     1      43.992   4.472  12.735  0.00  0.00    +0.000 A 
ATOM     32  O   UNL     1      43.909   3.373  13.275  0.00  0.00    +0.000 OA
ATOM     33  C   UNL     1      45.142   5.351  12.847  0.00  0.00    +0.000 A 
ATOM     34  H   UNL     1      42.166   4.363  11.853  0.00  0.00    +0.000 HD
ENDBRANCH  21  24
ENDBRANCH  19  20
ENDBRANCH   4  19
TORSDOF 7
ENDMDL
MODEL 2
REMARK VINA RESULT:    -7.126      3.328      5.058
REMARK INTER + INTRA:         -11.126
REMARK INTER:                  -9.846
REMARK INTRA:                  -1.281
REMARK UNBOUND:                -1.084
REMARK  Name = 
REMARK  7 active torsions:
REMARK  status: ('A' for Active; 'I' for Inactive)
REMARK    1  A    between atoms: C_2  and  C_3
REMARK    2  A    between atoms: C_7  and  C_8
REMARK    3  A    between atoms: N_10  and  C_11
REMARK    4  A    between atoms: C_11  and  C_12
REMARK    5  A    between atoms: C_15  and  C_16
REMARK    6  A    between atoms: C_16  and  N_17
REMARK    7  A    between atoms: C_18  and  C_20
REMARK                            x       y       z     vdW  Elec       q    Type
REMARK                         _______ _______ _______ _____ _____    ______ ____
ROOT
ATOM      1  C   UNL     1      50.264   7.356  15.190  0.00  0.00    +0.000 A 
ATOM      2  C   UNL     1      50.512   8.214  14.111  0.00  0.00    +0.000 A 
ATOM      3  C   UNL     1      49.582   8.342  13.071  0.00  0.00    +0.000 A 
ATOM      4  C   UNL     1      48.376   7.629  13.097  0.00  0.00    +0.000 A 
ATOM      5  C   UNL     1      48.140   6.752  14.165  0.00  0.00    +0.000 A 
ATOM      6  C   UNL     1      49.066   6.629  15.206  0.00  0.00    +0.000 A 
ENDROOT
BRANCH   1   7
ATOM      7  C   UNL     1      51.261   7.205  16.311  0.00  0.00    +0.000 C 
BRANCH   7  10
ATOM      8  C   UNL     1      50.859   5.448  17.992  0.00  0.00    +0.000 C 
ATOM      9  O   UNL     1      50.299   6.221  18.761  0.00  0.00    +0.000 OA
ATOM     10  N   UNL     1      51.376   5.838  16.778  0.00  0.00    +0.000 N 
ATOM     11  H   UNL     1      51.942   5.198  16.239  0.00  0.00    +0.000 HD
BRANCH   8  16
ATOM     12  C   UNL     1      50.290   3.096  17.264  0.00  0.00    +0.000 C 
ATOM     13  C   UNL     1      51.004   1.741  17.323  0.00  0.00    +0.000 C 
ATOM     14  C   UNL     1      52.389   2.007  17.904  0.00  0.00    +0.000 C 
ATOM     15  C   UNL     1      52.468   3.507  18.161  0.00  0.00    +0.000 C 
ATOM     16  C   UNL     1      51.018   3.964  18.299  0.00  0.00    +0.000 C 
BRANCH  12  18
ATOM     17  N   UNL     1      47.736   2.850  17.836  0.00  0.00    +0.000 NA
ATOM     18  C   UNL     1      48.858   2.965  17.565  0.00  0.00    +0.000 C 
ENDBRANCH  12  18
ENDBRANCH   8  16
ENDBRANCH   7  10
ENDBRANCH   1   7
BRANCH   4  19
ATOM     19  C   UNL     1      47.354   7.784  11.999  0.00  0.00    +0.000 C 
BRANCH  19  20
ATOM     20  N   UNL     1      46.692   6.539  11.705  0.00  0.00    +0.000 N 
ATOM     21  C   UNL     1      45.325   6.455  11.628  0.00  0.00    +0.000 C 
ATOM     22  O   UNL     1      44.601   7.440  11.740  0.00  0.00    +0.000 OA
ATOM     23  H   UNL     1      47.231   5.693  11.860  0.00  0.00    +0.000 HD
BRANCH  21  24
ATOM     24  C   UNL     1      44.769   5.125  11.337  0.00  0.00    +0.000 A 
ATOM     25  C   UNL     1      43.995   4.473  12.287  0.00  0.00    +0.000 A 
ATOM     26  S   UNL     1      43.389   2.968  11.758  0.00  0.00    +0.000 S 
ATOM     27  C   UNL     1      44.185   3.112  10.261  0.00  0.00    +0.000 A 
ATOM     28  N   UNL     1      44.100   2.129   9.324  0.00  0.00    +0.000 NA
ATOM     29  C   UNL     1      44.772   2.358   8.246  0.00  0.00    +0.000 A 
ATOM     30  N   UNL     1      45.522   3.485   8.019  0.00  0.00    +0.000 N 
ATOM     31  C   UNL     1      45.614   4.514   8.921  0.00  0.00    +0.000 A 
ATOM     32  O   UNL     1      46.258   5.527   8.668  0.00  0.00    +0.000 OA
ATOM     33  C   UNL     1      44.885   4.301  10.159  0.00  0.00    +0.000 A 
ATOM     34  H   UNL     1      46.020   3.609   7.150  0.00  0.00    +0.000 HD
ENDBRANCH  21  24
ENDBRANCH  19  20
ENDBRANCH   4  19
TORSDOF 7
ENDMDL
MODEL 3
REMARK VINA RESULT:    -6.885      3.264     10.145
REMARK INTER + INTRA:         -10.787
REMARK INTER:                  -9.751
REMARK INTRA:                  -1.036
REMARK UNBOUND:                -1.084
REMARK  Name = 
REMARK  7 active torsions:
REMARK  status: ('A' for Active; 'I' for Inactive)
REMARK    1  A    between atoms: C_2  and  C_3
REMARK    2  A    between atoms: C_7  and  C_8
REMARK    3  A    between atoms: N_10  and  C_11
REMARK    4  A    between atoms: C_11  and  C_12
REMARK    5  A    between atoms: C_15  and  C_16
REMARK    6  A    between atoms: C_16  and  N_17
REMARK    7  A    between atoms: C_18  and  C_20
REMARK                            x       y       z     vdW  Elec       q    Type
REMARK                         _______ _______ _______ _____ _____    ______ ____
ROOT
ATOM      1  C   UNL     1      47.821   5.997  14.934  0.00  0.00    +0.000 A 
ATOM      2  C   UNL     1      48.668   6.295  16.010  0.00  0.00    +0.000 A 
ATOM      3  C   UNL     1      48.879   5.361  17.033  0.00  0.00    +0.000 A 
ATOM      4  C   UNL     1      48.263   4.103  16.992  0.00  0.00    +0.000 A 
ATOM      5  C   UNL     1      47.398   3.815  15.928  0.00  0.00    +0.000 A 
ATOM      6  C   UNL     1      47.191   4.746  14.904  0.00  0.00    +0.000 A 
ENDROOT
BRANCH   1   7
ATOM      7  C   UNL     1      47.581   6.997  13.832  0.00  0.00    +0.000 C 
BRANCH   7  10
ATOM      8  C   UNL     1      46.354   6.583  11.735  0.00  0.00    +0.000 C 
ATOM      9  O   UNL     1      47.367   6.670  11.049  0.00  0.00    +0.000 OA
ATOM     10  N   UNL     1      46.356   6.742  13.101  0.00  0.00    +0.000 N 
ATOM     11  H   UNL     1      45.482   6.792  13.607  0.00  0.00    +0.000 HD
BRANCH   8  16
ATOM     12  C   UNL     1      44.950   4.845  10.555  0.00  0.00    +0.000 C 
ATOM     13  C   UNL     1      43.465   4.463  10.565  0.00  0.00    +0.000 C 
ATOM     14  C   UNL     1      42.797   5.351  11.610  0.00  0.00    +0.000 C 
ATOM     15  C   UNL     1      43.897   6.222  12.203  0.00  0.00    +0.000 C 
ATOM     16  C   UNL     1      44.990   6.265  11.137  0.00  0.00    +0.000 C 
BRANCH  12  18
ATOM     17  N   UNL     1      45.986   4.721   8.143  0.00  0.00    +0.000 NA
ATOM     18  C   UNL     1      45.514   4.788   9.200  0.00  0.00    +0.000 C 
ENDBRANCH  12  18
ENDBRANCH   8  16
ENDBRANCH   7  10
ENDBRANCH   1   7
BRANCH   4  19
ATOM     19  C   UNL     1      48.510   3.078  18.072  0.00  0.00    +0.000 C 
BRANCH  19  20
ATOM     20  N   UNL     1      49.914   2.792  18.225  0.00  0.00    +0.000 N 
ATOM     21  C   UNL     1      50.599   2.053  17.295  0.00  0.00    +0.000 C 
ATOM     22  O   UNL     1      50.075   1.653  16.259  0.00  0.00    +0.000 OA
ATOM     23  H   UNL     1      50.293   2.883  19.162  0.00  0.00    +0.000 HD
BRANCH  21  24
ATOM     24  C   UNL     1      52.023   1.815  17.572  0.00  0.00    +0.000 A 
ATOM     25  C   UNL     1      52.496   0.519  17.718  0.00  0.00    +0.000 A 
ATOM     26  S   UNL     1      54.180   0.431  17.980  0.00  0.00    +0.000 S 
ATOM     27  C   UNL     1      54.327   2.125  17.963  0.00  0.00    +0.000 A 
ATOM     28  N   UNL     1      55.531   2.728  18.158  0.00  0.00    +0.000 NA
ATOM     29  C   UNL     1      55.493   4.018  18.143  0.00  0.00    +0.000 A 
ATOM     30  N   UNL     1      54.356   4.762  17.949  0.00  0.00    +0.000 N 
ATOM     31  C   UNL     1      53.126   4.200  17.720  0.00  0.00    +0.000 A 
ATOM     32  O   UNL     1      52.138   4.895  17.506  0.00  0.00    +0.000 OA
ATOM     33  C   UNL     1      53.112   2.748  17.738  0.00  0.00    +0.000 A 
ATOM     34  H   UNL     1      54.393   5.771  17.942  0.00  0.00    +0.000 HD
ENDBRANCH  21  24
ENDBRANCH  19  20
ENDBRANCH   4  19
TORSDOF 7
ENDMDL
MODEL 4
REMARK VINA RESULT:    -6.670      3.435      9.906
REMARK INTER + INTRA:         -10.484
REMARK INTER:                  -9.438
REMARK INTRA:                  -1.046
REMARK UNBOUND:                -1.084
REMARK  Name = 
REMARK  7 active torsions:
REMARK  status: ('A' for Active; 'I' for Inactive)
REMARK    1  A    between atoms: C_2  and  C_3
REMARK    2  A    between atoms: C_7  and  C_8
REMARK    3  A    between atoms: N_10  and  C_11
REMARK    4  A    between atoms: C_11  and  C_12
REMARK    5  A    between atoms: C_15  and  C_16
REMARK    6  A    between atoms: C_16  and  N_17
REMARK    7  A    between atoms: C_18  and  C_20
REMARK                            x       y       z     vdW  Elec       q    Type
REMARK                         _______ _______ _______ _____ _____    ______ ____
ROOT
ATOM      1  C   UNL     1      48.442   7.202  12.441  0.00  0.00    +0.000 A 
ATOM      2  C   UNL     1      49.656   7.899  12.393  0.00  0.00    +0.000 A 
ATOM      3  C   UNL     1      50.385   8.146  13.564  0.00  0.00    +0.000 A 
ATOM      4  C   UNL     1      49.924   7.686  14.805  0.00  0.00    +0.000 A 
ATOM      5  C   UNL     1      48.697   7.010  14.855  0.00  0.00    +0.000 A 
ATOM      6  C   UNL     1      47.972   6.759  13.685  0.00  0.00    +0.000 A 
ENDROOT
BRANCH   1   7
ATOM      7  C   UNL     1      47.646   6.937  11.188  0.00  0.00    +0.000 C 
BRANCH   7  10
ATOM      8  C   UNL     1      45.682   5.646  10.448  0.00  0.00    +0.000 C 
ATOM      9  O   UNL     1      46.037   5.656   9.274  0.00  0.00    +0.000 OA
ATOM     10  N   UNL     1      46.394   6.257  11.453  0.00  0.00    +0.000 N 
ATOM     11  H   UNL     1      45.998   6.335  12.380  0.00  0.00    +0.000 HD
BRANCH   8  16
ATOM     12  C   UNL     1      44.687   3.443  11.183  0.00  0.00    +0.000 C 
ATOM     13  C   UNL     1      43.589   3.026  12.168  0.00  0.00    +0.000 C 
ATOM     14  C   UNL     1      43.112   4.303  12.851  0.00  0.00    +0.000 C 
ATOM     15  C   UNL     1      43.944   5.439  12.270  0.00  0.00    +0.000 C 
ATOM     16  C   UNL     1      44.420   4.930  10.912  0.00  0.00    +0.000 C 
BRANCH  12  18
ATOM     17  N   UNL     1      44.644   2.004   8.984  0.00  0.00    +0.000 NA
ATOM     18  C   UNL     1      44.642   2.641   9.953  0.00  0.00    +0.000 C 
ENDBRANCH  12  18
ENDBRANCH   8  16
ENDBRANCH   7  10
ENDBRANCH   1   7
BRANCH   4  19
ATOM     19  C   UNL     1      50.717   7.918  16.068  0.00  0.00    +0.000 C 
BRANCH  19  20
ATOM     20  N   UNL     1      51.491   6.759  16.433  0.00  0.00    +0.000 N 
ATOM     21  C   UNL     1      51.214   6.043  17.569  0.00  0.00    +0.000 C 
ATOM     22  O   UNL     1      50.260   6.309  18.296  0.00  0.00    +0.000 OA
ATOM     23  H   UNL     1      52.408   6.676  16.007  0.00  0.00    +0.000 HD
BRANCH  21  24
ATOM     24  C   UNL     1      52.085   4.890  17.842  0.00  0.00    +0.000 A 
ATOM     25  C   UNL     1      53.397   5.091  18.247  0.00  0.00    +0.000 A 
ATOM     26  S   UNL     1      54.241   3.643  18.570  0.00  0.00    +0.000 S 
ATOM     27  C   UNL     1      52.899   2.697  18.127  0.00  0.00    +0.000 A 
ATOM     28  N   UNL     1      52.958   1.338  18.153  0.00  0.00    +0.000 NA
ATOM     29  C   UNL     1      51.877   0.747  17.769  0.00  0.00    +0.000 A 
ATOM     30  N   UNL     1      50.738   1.394  17.362  0.00  0.00    +0.000 N 
ATOM     31  C   UNL     1      50.621   2.760  17.346  0.00  0.00    +0.000 A 
ATOM     32  O   UNL     1      49.571   3.306  17.019  0.00  0.00    +0.000 OA
ATOM     33  C   UNL     1      51.815   3.475  17.759  0.00  0.00    +0.000 A 
ATOM     34  H   UNL     1      49.920   0.874  17.079  0.00  0.00    +0.000 HD
ENDBRANCH  21  24
ENDBRANCH  19  20
ENDBRANCH   4  19
TORSDOF 7
ENDMDL
MODEL 5
REMARK VINA RESULT:    -6.654      3.023      4.658
REMARK INTER + INTRA:         -10.461
REMARK INTER:                  -9.306
REMARK INTRA:                  -1.156
REMARK UNBOUND:                -1.084
REMARK  Name = 
REMARK  7 active torsions:
REMARK  status: ('A' for Active; 'I' for Inactive)
REMARK    1  A    between atoms: C_2  and  C_3
REMARK    2  A    between atoms: C_7  and  C_8
REMARK    3  A    between atoms: N_10  and  C_11
REMARK    4  A    between atoms: C_11  and  C_12
REMARK    5  A    between atoms: C_15  and  C_16
REMARK    6  A    between atoms: C_16  and  N_17
REMARK    7  A    between atoms: C_18  and  C_20
REMARK                            x       y       z     vdW  Elec       q    Type
REMARK                         _______ _______ _______ _____ _____    ______ ____
ROOT
ATOM      1  C   UNL     1      50.784   7.319  15.406  0.00  0.00    +0.000 A 
ATOM      2  C   UNL     1      51.141   8.135  14.324  0.00  0.00    +0.000 A 
ATOM      3  C   UNL     1      50.194   8.488  13.353  0.00  0.00    +0.000 A 
ATOM      4  C   UNL     1      48.867   8.048  13.453  0.00  0.00    +0.000 A 
ATOM      5  C   UNL     1      48.518   7.212  14.522  0.00  0.00    +0.000 A 
ATOM      6  C   UNL     1      49.462   6.863  15.494  0.00  0.00    +0.000 A 
ENDROOT
BRANCH   1   7
ATOM      7  C   UNL     1      51.797   6.926  16.452  0.00  0.00    +0.000 C 
BRANCH   7  10
ATOM      8  C   UNL     1      51.273   5.136  18.062  0.00  0.00    +0.000 C 
ATOM      9  O   UNL     1      50.957   5.931  18.941  0.00  0.00    +0.000 OA
ATOM     10  N   UNL     1      51.710   5.527  16.818  0.00  0.00    +0.000 N 
ATOM     11  H   UNL     1      52.083   4.844  16.174  0.00  0.00    +0.000 HD
BRANCH   8  16
ATOM     12  C   UNL     1      50.307   2.971  17.187  0.00  0.00    +0.000 C 
ATOM     13  C   UNL     1      50.788   1.517  17.127  0.00  0.00    +0.000 C 
ATOM     14  C   UNL     1      52.209   1.508  17.682  0.00  0.00    +0.000 C 
ATOM     15  C   UNL     1      52.541   2.950  18.042  0.00  0.00    +0.000 C 
ATOM     16  C   UNL     1      51.189   3.628  18.258  0.00  0.00    +0.000 C 
BRANCH  12  18
ATOM     17  N   UNL     1      47.759   3.100  17.817  0.00  0.00    +0.000 NA
ATOM     18  C   UNL     1      48.880   3.054  17.522  0.00  0.00    +0.000 C 
ENDBRANCH  12  18
ENDBRANCH   8  16
ENDBRANCH   7  10
ENDBRANCH   1   7
BRANCH   4  19
ATOM     19  C   UNL     1      47.833   8.449  12.431  0.00  0.00    +0.000 C 
BRANCH  19  20
ATOM     20  N   UNL     1      47.292   7.306  11.741  0.00  0.00    +0.000 N 
ATOM     21  C   UNL     1      45.941   7.070  11.695  0.00  0.00    +0.000 C 
ATOM     22  O   UNL     1      45.123   7.848  12.180  0.00  0.00    +0.000 OA
ATOM     23  H   UNL     1      47.933   6.540  11.564  0.00  0.00    +0.000 HD
BRANCH  21  24
ATOM     24  C   UNL     1      45.514   5.862  10.975  0.00  0.00    +0.000 A 
ATOM     25  C   UNL     1      45.835   5.704   9.634  0.00  0.00    +0.000 A 
ATOM     26  S   UNL     1      45.307   4.220   8.975  0.00  0.00    +0.000 S 
ATOM     27  C   UNL     1      44.584   3.763  10.446  0.00  0.00    +0.000 A 
ATOM     28  N   UNL     1      43.922   2.580  10.564  0.00  0.00    +0.000 NA
ATOM     29  C   UNL     1      43.402   2.371  11.727  0.00  0.00    +0.000 A 
ATOM     30  N   UNL     1      43.487   3.240  12.786  0.00  0.00    +0.000 N 
ATOM     31  C   UNL     1      44.168   4.429  12.723  0.00  0.00    +0.000 A 
ATOM     32  O   UNL     1      44.262   5.162  13.703  0.00  0.00    +0.000 OA
ATOM     33  C   UNL     1      44.763   4.718  11.430  0.00  0.00    +0.000 A 
ATOM     34  H   UNL     1      43.065   3.016  13.675  0.00  0.00    +0.000 HD
ENDBRANCH  21  24
ENDBRANCH  19  20
ENDBRANCH   4  19
TORSDOF 7
ENDMDL
MODEL 6
REMARK VINA RESULT:    -6.626      2.372      3.904
REMARK INTER + INTRA:         -10.422
REMARK INTER:                  -9.374
REMARK INTRA:                  -1.048
REMARK UNBOUND:                -1.084
REMARK  Name = 
REMARK  7 active torsions:
REMARK  status: ('A' for Active; 'I' for Inactive)
REMARK    1  A    between atoms: C_2  and  C_3
REMARK    2  A    between atoms: C_7  and  C_8
REMARK    3  A    between atoms: N_10  and  C_11
REMARK    4  A    between atoms: C_11  and  C_12
REMARK    5  A    between atoms: C_15  and  C_16
REMARK    6  A    between atoms: C_16  and  N_17
REMARK    7  A    between atoms: C_18  and  C_20
REMARK                            x       y       z     vdW  Elec       q    Type
REMARK                         _______ _______ _______ _____ _____    ______ ____
ROOT
ATOM      1  C   UNL     1      51.479   3.284  17.675  0.00  0.00    +0.000 A 
ATOM      2  C   UNL     1      50.771   4.491  17.761  0.00  0.00    +0.000 A 
ATOM      3  C   UNL     1      49.397   4.535  17.490  0.00  0.00    +0.000 A 
ATOM      4  C   UNL     1      48.699   3.370  17.145  0.00  0.00    +0.000 A 
ATOM      5  C   UNL     1      49.412   2.169  17.035  0.00  0.00    +0.000 A 
ATOM      6  C   UNL     1      50.783   2.124  17.311  0.00  0.00    +0.000 A 
ENDROOT
BRANCH   1   7
ATOM      7  C   UNL     1      52.959   3.228  17.957  0.00  0.00    +0.000 C 
BRANCH   7  10
ATOM      8  C   UNL     1      54.849   4.506  17.025  0.00  0.00    +0.000 C 
ATOM      9  O   UNL     1      55.450   3.493  16.684  0.00  0.00    +0.000 OA
ATOM     10  N   UNL     1      53.632   4.477  17.666  0.00  0.00    +0.000 N 
ATOM     11  H   UNL     1      53.238   5.328  18.044  0.00  0.00    +0.000 HD
BRANCH   8  16
ATOM     12  C   UNL     1      54.640   6.571  15.584  0.00  0.00    +0.000 C 
ATOM     13  C   UNL     1      54.829   8.074  15.813  0.00  0.00    +0.000 C 
ATOM     14  C   UNL     1      55.141   8.251  17.295  0.00  0.00    +0.000 C 
ATOM     15  C   UNL     1      55.115   6.858  17.910  0.00  0.00    +0.000 C 
ATOM     16  C   UNL     1      55.386   5.904  16.749  0.00  0.00    +0.000 C 
BRANCH  12  18
ATOM     17  N   UNL     1      55.577   5.854  13.235  0.00  0.00    +0.000 NA
ATOM     18  C   UNL     1      55.170   6.152  14.279  0.00  0.00    +0.000 C 
ENDBRANCH  12  18
ENDBRANCH   8  16
ENDBRANCH   7  10
ENDBRANCH   1   7
BRANCH   4  19
ATOM     19  C   UNL     1      47.213   3.400  16.883  0.00  0.00    +0.000 C 
BRANCH  19  20
ATOM     20  N   UNL     1      46.861   4.411  15.919  0.00  0.00    +0.000 N 
ATOM     21  C   UNL     1      46.964   4.181  14.571  0.00  0.00    +0.000 C 
ATOM     22  O   UNL     1      47.296   3.089  14.115  0.00  0.00    +0.000 OA
ATOM     23  H   UNL     1      46.835   5.368  16.256  0.00  0.00    +0.000 HD
BRANCH  21  24
ATOM     24  C   UNL     1      46.590   5.296  13.688  0.00  0.00    +0.000 A 
ATOM     25  C   UNL     1      47.481   6.338  13.471  0.00  0.00    +0.000 A 
ATOM     26  S   UNL     1      46.902   7.514  12.379  0.00  0.00    +0.000 S 
ATOM     27  C   UNL     1      45.420   6.699  12.200  0.00  0.00    +0.000 A 
ATOM     28  N   UNL     1      44.437   7.196  11.402  0.00  0.00    +0.000 NA
ATOM     29  C   UNL     1      43.357   6.489  11.378  0.00  0.00    +0.000 A 
ATOM     30  N   UNL     1      43.172   5.326  12.082  0.00  0.00    +0.000 N 
ATOM     31  C   UNL     1      44.143   4.771  12.876  0.00  0.00    +0.000 A 
ATOM     32  O   UNL     1      43.960   3.705  13.456  0.00  0.00    +0.000 OA
ATOM     33  C   UNL     1      45.376   5.535  12.947  0.00  0.00    +0.000 A 
ATOM     34  H   UNL     1      42.305   4.813  12.016  0.00  0.00    +0.000 HD
ENDBRANCH  21  24
ENDBRANCH  19  20
ENDBRANCH   4  19
TORSDOF 7
ENDMDL
MODEL 7
REMARK VINA RESULT:    -6.541      7.315     10.893
REMARK INTER + INTRA:         -10.302
REMARK INTER:                  -9.126
REMARK INTRA:                  -1.176
REMARK UNBOUND:                -1.084
REMARK  Name = 
REMARK  7 active torsions:
REMARK  status: ('A' for Active; 'I' for Inactive)
REMARK    1  A    between atoms: C_2  and  C_3
REMARK    2  A    between atoms: C_7  and  C_8
REMARK    3  A    between atoms: N_10  and  C_11
REMARK    4  A    between atoms: C_11  and  C_12
REMARK    5  A    between atoms: C_15  and  C_16
REMARK    6  A    between atoms: C_16  and  N_17
REMARK    7  A    between atoms: C_18  and  C_20
REMARK                            x       y       z     vdW  Elec       q    Type
REMARK                         _______ _______ _______ _____ _____    ______ ____
ROOT
ATOM      1  C   UNL     1      47.202   8.163  12.383  0.00  0.00    +0.000 A 
ATOM      2  C   UNL     1      48.044   7.043  12.371  0.00  0.00    +0.000 A 
ATOM      3  C   UNL     1      49.412   7.181  12.099  0.00  0.00    +0.000 A 
ATOM      4  C   UNL     1      49.969   8.443  11.852  0.00  0.00    +0.000 A 
ATOM      5  C   UNL     1      49.122   9.559  11.842  0.00  0.00    +0.000 A 
ATOM      6  C   UNL     1      47.757   9.422  12.118  0.00  0.00    +0.000 A 
ENDROOT
BRANCH   1   7
ATOM      7  C   UNL     1      45.727   8.025  12.667  0.00  0.00    +0.000 C 
BRANCH   7  10
ATOM      8  C   UNL     1      44.100   6.625  11.456  0.00  0.00    +0.000 C 
ATOM      9  O   UNL     1      43.484   7.596  11.030  0.00  0.00    +0.000 OA
ATOM     10  N   UNL     1      45.200   6.734  12.275  0.00  0.00    +0.000 N 
ATOM     11  H   UNL     1      45.595   5.909  12.707  0.00  0.00    +0.000 HD
BRANCH   8  16
ATOM     12  C   UNL     1      44.949   4.362  10.720  0.00  0.00    +0.000 C 
ATOM     13  C   UNL     1      44.533   2.911  10.983  0.00  0.00    +0.000 C 
ATOM     14  C   UNL     1      43.383   2.965  11.985  0.00  0.00    +0.000 C 
ATOM     15  C   UNL     1      43.158   4.438  12.302  0.00  0.00    +0.000 C 
ATOM     16  C   UNL     1      43.717   5.195  11.099  0.00  0.00    +0.000 C 
BRANCH  12  18
ATOM     17  N   UNL     1      45.677   4.750   8.224  0.00  0.00    +0.000 NA
ATOM     18  C   UNL     1      45.342   4.565   9.319  0.00  0.00    +0.000 C 
ENDBRANCH  12  18
ENDBRANCH   8  16
ENDBRANCH   7  10
ENDBRANCH   1   7
BRANCH   4  19
ATOM     19  C   UNL     1      51.446   8.606  11.591  0.00  0.00    +0.000 C 
BRANCH  19  20
ATOM     20  N   UNL     1      51.811   8.138  10.278  0.00  0.00    +0.000 N 
ATOM     21  C   UNL     1      52.886   8.660   9.605  0.00  0.00    +0.000 C 
ATOM     22  O   UNL     1      53.628   9.501  10.107  0.00  0.00    +0.000 OA
ATOM     23  H   UNL     1      51.091   7.650   9.756  0.00  0.00    +0.000 HD
BRANCH  21  24
ATOM     24  C   UNL     1      53.147   8.111   8.267  0.00  0.00    +0.000 A 
ATOM     25  C   UNL     1      53.095   8.939   7.154  0.00  0.00    +0.000 A 
ATOM     26  S   UNL     1      53.478   8.144   5.693  0.00  0.00    +0.000 S 
ATOM     27  C   UNL     1      53.673   6.654   6.490  0.00  0.00    +0.000 A 
ATOM     28  N   UNL     1      53.989   5.525   5.801  0.00  0.00    +0.000 NA
ATOM     29  C   UNL     1      54.083   4.462   6.527  0.00  0.00    +0.000 A 
ATOM     30  N   UNL     1      53.890   4.428   7.885  0.00  0.00    +0.000 N 
ATOM     31  C   UNL     1      53.599   5.544   8.627  0.00  0.00    +0.000 A 
ATOM     32  O   UNL     1      53.477   5.484   9.846  0.00  0.00    +0.000 OA
ATOM     33  C   UNL     1      53.471   6.767   7.854  0.00  0.00    +0.000 A 
ATOM     34  H   UNL     1      53.985   3.564   8.400  0.00  0.00    +0.000 HD
ENDBRANCH  21  24
ENDBRANCH  19  20
ENDBRANCH   4  19
TORSDOF 7
ENDMDL
MODEL 8
REMARK VINA RESULT:    -6.417      3.452      9.802
REMARK INTER + INTRA:         -10.127
REMARK INTER:                  -8.964
REMARK INTRA:                  -1.163
REMARK UNBOUND:                -1.084
REMARK  Name = 
REMARK  7 active torsions:
REMARK  status: ('A' for Active; 'I' for Inactive)
REMARK    1  A    between atoms: C_2  and  C_3
REMARK    2  A    between atoms: C_7  and  C_8
REMARK    3  A    between atoms: N_10  and  C_11
REMARK    4  A    between atoms: C_11  and  C_12
REMARK    5  A    between atoms: C_15  and  C_16
REMARK    6  A    between atoms: C_16  and  N_17
REMARK    7  A    between atoms: C_18  and  C_20
REMARK                            x       y       z     vdW  Elec       q    Type
REMARK                         _______ _______ _______ _____ _____    ______ ____
ROOT
ATOM      1  C   UNL     1      47.868   7.971  13.694  0.00  0.00    +0.000 A 
ATOM      2  C   UNL     1      47.865   9.076  14.556  0.00  0.00    +0.000 A 
ATOM      3  C   UNL     1      48.377   8.969  15.856  0.00  0.00    +0.000 A 
ATOM      4  C   UNL     1      48.919   7.760  16.315  0.00  0.00    +0.000 A 
ATOM      5  C   UNL     1      48.899   6.650  15.460  0.00  0.00    +0.000 A 
ATOM      6  C   UNL     1      48.393   6.759  14.160  0.00  0.00    +0.000 A 
ENDROOT
BRANCH   1   7
ATOM      7  C   UNL     1      47.313   8.073  12.296  0.00  0.00    +0.000 C 
BRANCH   7  10
ATOM      8  C   UNL     1      45.745   6.481  11.256  0.00  0.00    +0.000 C 
ATOM      9  O   UNL     1      44.805   7.266  11.321  0.00  0.00    +0.000 OA
ATOM     10  N   UNL     1      47.005   6.780  11.719  0.00  0.00    +0.000 N 
ATOM     11  H   UNL     1      47.713   6.060  11.765  0.00  0.00    +0.000 HD
BRANCH   8  16
ATOM     12  C   UNL     1      44.186   4.551  10.779  0.00  0.00    +0.000 C 
ATOM     13  C   UNL     1      44.044   3.529   9.646  0.00  0.00    +0.000 C 
ATOM     14  C   UNL     1      45.082   3.902   8.593  0.00  0.00    +0.000 C 
ATOM     15  C   UNL     1      45.800   5.139   9.116  0.00  0.00    +0.000 C 
ATOM     16  C   UNL     1      45.612   5.099  10.631  0.00  0.00    +0.000 C 
BRANCH  12  18
ATOM     17  N   UNL     1      43.822   3.424  13.126  0.00  0.00    +0.000 NA
ATOM     18  C   UNL     1      43.967   3.934  12.094  0.00  0.00    +0.000 C 
ENDBRANCH  12  18
ENDBRANCH   8  16
ENDBRANCH   7  10
ENDBRANCH   1   7
BRANCH   4  19
ATOM     19  C   UNL     1      49.502   7.644  17.702  0.00  0.00    +0.000 C 
BRANCH  19  20
ATOM     20  N   UNL     1      50.402   6.524  17.810  0.00  0.00    +0.000 N 
ATOM     21  C   UNL     1      50.699   5.958  19.023  0.00  0.00    +0.000 C 
ATOM     22  O   UNL     1      50.167   6.330  20.067  0.00  0.00    +0.000 OA
ATOM     23  H   UNL     1      51.030   6.373  17.027  0.00  0.00    +0.000 HD
BRANCH  21  24
ATOM     24  C   UNL     1      51.643   4.832  19.005  0.00  0.00    +0.000 A 
ATOM     25  C   UNL     1      52.839   4.916  19.704  0.00  0.00    +0.000 A 
ATOM     26  S   UNL     1      53.784   3.499  19.615  0.00  0.00    +0.000 S 
ATOM     27  C   UNL     1      52.653   2.743  18.594  0.00  0.00    +0.000 A 
ATOM     28  N   UNL     1      52.868   1.487  18.116  0.00  0.00    +0.000 NA
ATOM     29  C   UNL     1      51.940   1.046  17.334  0.00  0.00    +0.000 A 
ATOM     30  N   UNL     1      50.814   1.749  16.987  0.00  0.00    +0.000 N 
ATOM     31  C   UNL     1      50.541   3.005  17.466  0.00  0.00    +0.000 A 
ATOM     32  O   UNL     1      49.501   3.587  17.171  0.00  0.00    +0.000 OA
ATOM     33  C   UNL     1      51.560   3.553  18.343  0.00  0.00    +0.000 A 
ATOM     34  H   UNL     1      50.120   1.345  16.375  0.00  0.00    +0.000 HD
ENDBRANCH  21  24
ENDBRANCH  19  20
ENDBRANCH   4  19
TORSDOF 7
ENDMDL
MODEL 9
REMARK VINA RESULT:    -6.147      6.825      7.696
REMARK INTER + INTRA:          -9.747
REMARK INTER:                  -8.836
REMARK INTRA:                  -0.911
REMARK UNBOUND:                -1.084
REMARK  Name = 
REMARK  7 active torsions:
REMARK  status: ('A' for Active; 'I' for Inactive)
REMARK    1  A    between atoms: C_2  and  C_3
REMARK    2  A    between atoms: C_7  and  C_8
REMARK    3  A    between atoms: N_10  and  C_11
REMARK    4  A    between atoms: C_11  and  C_12
REMARK    5  A    between atoms: C_15  and  C_16
REMARK    6  A    between atoms: C_16  and  N_17
REMARK    7  A    between atoms: C_18  and  C_20
REMARK                            x       y       z     vdW  Elec       q    Type
REMARK                         _______ _______ _______ _____ _____    ______ ____
ROOT
ATOM      1  C   UNL     1      50.473   8.695  12.495  0.00  0.00    +0.000 A 
ATOM      2  C   UNL     1      49.725   9.590  13.272  0.00  0.00    +0.000 A 
ATOM      3  C   UNL     1      48.344   9.417  13.431  0.00  0.00    +0.000 A 
ATOM      4  C   UNL     1      47.684   8.336  12.831  0.00  0.00    +0.000 A 
ATOM      5  C   UNL     1      48.428   7.456  12.035  0.00  0.00    +0.000 A 
ATOM      6  C   UNL     1      49.809   7.626  11.880  0.00  0.00    +0.000 A 
ENDROOT
BRANCH   1   7
ATOM      7  C   UNL     1      51.958   8.877  12.311  0.00  0.00    +0.000 C 
BRANCH   7  10
ATOM      8  C   UNL     1      53.055   8.675  10.113  0.00  0.00    +0.000 C 
ATOM      9  O   UNL     1      53.127   9.890   9.965  0.00  0.00    +0.000 OA
ATOM     10  N   UNL     1      52.488   8.085  11.219  0.00  0.00    +0.000 N 
ATOM     11  H   UNL     1      52.333   7.087  11.238  0.00  0.00    +0.000 HD
BRANCH   8  16
ATOM     12  C   UNL     1      53.542   6.249   9.601  0.00  0.00    +0.000 C 
ATOM     13  C   UNL     1      53.539   5.388   8.333  0.00  0.00    +0.000 C 
ATOM     14  C   UNL     1      53.046   6.285   7.202  0.00  0.00    +0.000 C 
ATOM     15  C   UNL     1      52.756   7.644   7.825  0.00  0.00    +0.000 C 
ATOM     16  C   UNL     1      53.611   7.694   9.089  0.00  0.00    +0.000 C 
BRANCH  12  18
ATOM     17  N   UNL     1      55.570   5.624  11.152  0.00  0.00    +0.000 NA
ATOM     18  C   UNL     1      54.675   5.919  10.475  0.00  0.00    +0.000 C 
ENDBRANCH  12  18
ENDBRANCH   8  16
ENDBRANCH   7  10
ENDBRANCH   1   7
BRANCH   4  19
ATOM     19  C   UNL     1      46.203   8.123  13.023  0.00  0.00    +0.000 C 
BRANCH  19  20
ATOM     20  N   UNL     1      45.803   6.789  12.653  0.00  0.00    +0.000 N 
ATOM     21  C   UNL     1      44.844   6.568  11.699  0.00  0.00    +0.000 C 
ATOM     22  O   UNL     1      44.324   7.485  11.067  0.00  0.00    +0.000 OA
ATOM     23  H   UNL     1      46.019   6.052  13.317  0.00  0.00    +0.000 HD
BRANCH  21  24
ATOM     24  C   UNL     1      44.512   5.163  11.420  0.00  0.00    +0.000 A 
ATOM     25  C   UNL     1      43.770   4.430  12.336  0.00  0.00    +0.000 A 
ATOM     26  S   UNL     1      43.434   2.837  11.824  0.00  0.00    +0.000 S 
ATOM     27  C   UNL     1      44.314   3.056  10.385  0.00  0.00    +0.000 A 
ATOM     28  N   UNL     1      44.447   2.046   9.483  0.00  0.00    +0.000 NA
ATOM     29  C   UNL     1      45.159   2.341   8.448  0.00  0.00    +0.000 A 
ATOM     30  N   UNL     1      45.752   3.561   8.233  0.00  0.00    +0.000 N 
ATOM     31  C   UNL     1      45.623   4.617   9.098  0.00  0.00    +0.000 A 
ATOM     32  O   UNL     1      46.129   5.707   8.853  0.00  0.00    +0.000 OA
ATOM     33  C   UNL     1      44.838   4.332  10.287  0.00  0.00    +0.000 A 
ATOM     34  H   UNL     1      46.293   3.733   7.398  0.00  0.00    +0.000 HD
ENDBRANCH  21  24
ENDBRANCH  19  20
ENDBRANCH   4  19
TORSDOF 7
ENDMDL
