MODEL 1
REMARK VINA RESULT:    -8.246      0.000      0.000
REMARK INTER + INTRA:         -13.405
REMARK INTER:                 -11.862
REMARK INTRA:                  -1.543
REMARK UNBOUND:                -1.543
REMARK  Name = 
REMARK  8 active torsions:
REMARK  status: ('A' for Active; 'I' for Inactive)
REMARK    1  A    between atoms: N_1  and  C_2
REMARK    2  A    between atoms: C_2  and  C_3
REMARK    3  A    between atoms: C_3  and  N_4
REMARK    4  A    between atoms: C_3  and  C_17
REMARK    5  A    between atoms: C_5  and  C_7
REMARK    6  A    between atoms: C_20  and  C_21
REMARK    7  A    between atoms: C_21  and  N_22
REMARK    8  A    between atoms: C_23  and  C_25
REMARK                            x       y       z     vdW  Elec       q    Type
REMARK                         _______ _______ _______ _____ _____    ______ ____
ROOT
ATOM      1  C   UNL     1      48.231   6.919  14.119  0.00  0.00    +0.000 C 
ENDROOT
BRANCH   1   2
ATOM      2  C   UNL     1      47.206   6.036  13.397  0.00  0.00    +0.000 A 
ATOM      3  C   UNL     1      47.000   4.710  13.807  0.00  0.00    +0.000 A 
ATOM      4  C   UNL     1      46.067   3.887  13.157  0.00  0.00    +0.000 A 
ATOM      5  C   UNL     1      45.316   4.370  12.077  0.00  0.00    +0.000 A 
ATOM      6  C   UNL     1      45.496   5.702  11.686  0.00  0.00    +0.000 A 
ATOM      7  C   UNL     1      46.429   6.523  12.334  0.00  0.00    +0.000 A 
BRANCH   5   8
ATOM      8  C   UNL     1      44.357   3.478  11.329  0.00  0.00    +0.000 C 
BRANCH   8   9
ATOM      9  N   UNL     1      44.975   2.771  10.226  0.00  0.00    +0.000 N 
ATOM     10  C   UNL     1      44.888   3.287   8.953  0.00  0.00    +0.000 C 
ATOM     11  O   UNL     1      44.239   4.299   8.696  0.00  0.00    +0.000 OA
ATOM     12  H   UNL     1      45.640   2.040  10.437  0.00  0.00    +0.000 HD
BRANCH  10  13
ATOM     13  C   UNL     1      45.663   2.562   7.860  0.00  0.00    +0.000 C 
ATOM     14  C   UNL     1      46.220   1.205   8.295  0.00  0.00    +0.000 C 
ATOM     15  C   UNL     1      46.978   0.567   7.134  0.00  0.00    +0.000 C 
ATOM     16  O   UNL     1      48.015   1.436   6.676  0.00  0.00    +0.000 OA
ATOM     17  C   UNL     1      47.505   2.674   6.179  0.00  0.00    +0.000 C 
ATOM     18  C   UNL     1      46.782   3.431   7.285  0.00  0.00    +0.000 C 
ENDBRANCH  10  13
ENDBRANCH   8   9
ENDBRANCH   5   8
ENDBRANCH   1   2
BRANCH   1  19
ATOM     19  N   UNL     1      48.165   6.636  15.546  0.00  0.00    +0.000 N 
ATOM     20  C   UNL     1      49.266   6.300  16.296  0.00  0.00    +0.000 C 
ATOM     21  O   UNL     1      50.410   6.335  15.863  0.00  0.00    +0.000 OA
ATOM     22  H   UNL     1      47.254   6.348  15.886  0.00  0.00    +0.000 HD
BRANCH  20  23
ATOM     23  C   UNL     1      48.994   5.934  17.687  0.00  0.00    +0.000 A 
ATOM     24  C   UNL     1      49.213   4.637  18.131  0.00  0.00    +0.000 A 
ATOM     25  S   UNL     1      48.785   4.402  19.766  0.00  0.00    +0.000 S 
ATOM     26  C   UNL     1      48.253   6.014  19.916  0.00  0.00    +0.000 A 
ATOM     27  N   UNL     1      47.695   6.467  21.069  0.00  0.00    +0.000 NA
ATOM     28  C   UNL     1      47.306   7.699  21.022  0.00  0.00    +0.000 A 
ATOM     29  N   UNL     1      47.448   8.527  19.942  0.00  0.00    +0.000 N 
ATOM     30  C   UNL     1      48.064   8.129  18.777  0.00  0.00    +0.000 A 
ATOM     31  O   UNL     1      48.280   8.927  17.870  0.00  0.00    +0.000 OA
ATOM     32  C   UNL     1      48.457   6.738  18.756  0.00  0.00    +0.000 A 
ATOM     33  H   UNL     1      47.163   9.494  19.984  0.00  0.00    +0.000 HD
ENDBRANCH  20  23
ENDBRANCH   1  19
BRANCH   1  34
ATOM     34  C   UNL     1      48.033   8.438  13.830  0.00  0.00    +0.000 C 
BRANCH  34  35
ATOM     35  N   UNL     1      47.278   9.170  14.853  0.00  0.00    +0.000 NA
ATOM     36  H   UNL     1      46.579   8.544  15.249  0.00  0.00    +0.000 HD
ATOM     37  H   UNL     1      46.767   9.937  14.417  0.00  0.00    +0.000 HD
ENDBRANCH  34  35
ENDBRANCH   1  34
TORSDOF 8
ENDMDL
MODEL 2
REMARK VINA RESULT:    -7.874      2.833      4.508
REMARK INTER + INTRA:         -12.870
REMARK INTER:                 -11.601
REMARK INTRA:                  -1.269
REMARK UNBOUND:                -1.543
REMARK  Name = 
REMARK  8 active torsions:
REMARK  status: ('A' for Active; 'I' for Inactive)
REMARK    1  A    between atoms: N_1  and  C_2
REMARK    2  A    between atoms: C_2  and  C_3
REMARK    3  A    between atoms: C_3  and  N_4
REMARK    4  A    between atoms: C_3  and  C_17
REMARK    5  A    between atoms: C_5  and  C_7
REMARK    6  A    between atoms: C_20  and  C_21
REMARK    7  A    between atoms: C_21  and  N_22
REMARK    8  A    between atoms: C_23  and  C_25
REMARK                            x       y       z     vdW  Elec       q    Type
REMARK                         _______ _______ _______ _____ _____    ______ ____
ROOT
ATOM      1  C   UNL     1      47.112   5.077  15.040  0.00  0.00    +0.000 C 
ENDROOT
BRANCH   1   2
ATOM      2  C   UNL     1      46.243   4.859  13.796  0.00  0.00    +0.000 A 
ATOM      3  C   UNL     1      45.600   5.945  13.182  0.00  0.00    +0.000 A 
ATOM      4  C   UNL     1      44.800   5.764  12.043  0.00  0.00    +0.000 A 
ATOM      5  C   UNL     1      44.620   4.489  11.489  0.00  0.00    +0.000 A 
ATOM      6  C   UNL     1      45.286   3.409  12.080  0.00  0.00    +0.000 A 
ATOM      7  C   UNL     1      46.084   3.589  13.218  0.00  0.00    +0.000 A 
BRANCH   5   8
ATOM      8  C   UNL     1      43.712   4.271  10.304  0.00  0.00    +0.000 C 
BRANCH   8   9
ATOM      9  N   UNL     1      44.276   3.385   9.307  0.00  0.00    +0.000 N 
ATOM     10  C   UNL     1      45.266   3.844   8.470  0.00  0.00    +0.000 C 
ATOM     11  O   UNL     1      45.649   5.013   8.483  0.00  0.00    +0.000 OA
ATOM     12  H   UNL     1      44.095   2.394   9.390  0.00  0.00    +0.000 HD
BRANCH  10  13
ATOM     13  C   UNL     1      45.902   2.829   7.529  0.00  0.00    +0.000 C 
ATOM     14  C   UNL     1      46.311   1.524   8.216  0.00  0.00    +0.000 C 
ATOM     15  C   UNL     1      46.939   0.582   7.192  0.00  0.00    +0.000 C 
ATOM     16  O   UNL     1      48.051   1.208   6.552  0.00  0.00    +0.000 OA
ATOM     17  C   UNL     1      47.672   2.379   5.827  0.00  0.00    +0.000 C 
ATOM     18  C   UNL     1      47.091   3.421   6.773  0.00  0.00    +0.000 C 
ENDBRANCH  10  13
ENDBRANCH   8   9
ENDBRANCH   5   8
ENDBRANCH   1   2
BRANCH   1  19
ATOM     19  N   UNL     1      48.335   5.760  14.640  0.00  0.00    +0.000 N 
ATOM     20  C   UNL     1      48.912   6.762  15.382  0.00  0.00    +0.000 C 
ATOM     21  O   UNL     1      48.526   7.078  16.500  0.00  0.00    +0.000 OA
ATOM     22  H   UNL     1      48.541   5.726  13.647  0.00  0.00    +0.000 HD
BRANCH  20  23
ATOM     23  C   UNL     1      50.069   7.415  14.768  0.00  0.00    +0.000 A 
ATOM     24  C   UNL     1      51.296   7.434  15.418  0.00  0.00    +0.000 A 
ATOM     25  S   UNL     1      52.499   8.289  14.561  0.00  0.00    +0.000 S 
ATOM     26  C   UNL     1      51.406   8.695  13.319  0.00  0.00    +0.000 A 
ATOM     27  N   UNL     1      51.782   9.489  12.283  0.00  0.00    +0.000 NA
ATOM     28  C   UNL     1      50.835   9.742  11.438  0.00  0.00    +0.000 A 
ATOM     29  N   UNL     1      49.560   9.252  11.518  0.00  0.00    +0.000 N 
ATOM     30  C   UNL     1      49.154   8.395  12.515  0.00  0.00    +0.000 A 
ATOM     31  O   UNL     1      48.040   7.882  12.495  0.00  0.00    +0.000 OA
ATOM     32  C   UNL     1      50.158   8.136  13.523  0.00  0.00    +0.000 A 
ATOM     33  H   UNL     1      48.879   9.451  10.800  0.00  0.00    +0.000 HD
ENDBRANCH  20  23
ENDBRANCH   1  19
BRANCH   1  34
ATOM     34  C   UNL     1      47.423   3.753  15.801  0.00  0.00    +0.000 C 
BRANCH  34  35
ATOM     35  N   UNL     1      46.691   3.574  17.060  0.00  0.00    +0.000 NA
ATOM     36  H   UNL     1      45.737   3.907  16.928  0.00  0.00    +0.000 HD
ATOM     37  H   UNL     1      47.105   4.161  17.783  0.00  0.00    +0.000 HD
ENDBRANCH  34  35
ENDBRANCH   1  34
TORSDOF 8
ENDMDL
MODEL 3
REMARK VINA RESULT:    -7.801      1.381      2.014
REMARK INTER + INTRA:         -12.765
REMARK INTER:                 -11.653
REMARK INTRA:                  -1.112
REMARK UNBOUND:                -1.543
REMARK  Name = 
REMARK  8 active torsions:
REMARK  status: ('A' for Active; 'I' for Inactive)
REMARK    1  A    between atoms: N_1  and  C_2
REMARK    2  A    between atoms: C_2  and  C_3
REMARK    3  A    between atoms: C_3  and  N_4
REMARK    4  A    between atoms: C_3  and  C_17
REMARK    5  A    between atoms: C_5  and  C_7
REMARK    6  A    between atoms: C_20  and  C_21
REMARK    7  A    between atoms: C_21  and  N_22
REMARK    8  A    between atoms: C_23  and  C_25
REMARK                            x       y       z     vdW  Elec       q    Type
REMARK                         _______ _______ _______ _____ _____    ______ ____
ROOT
ATOM      1  C   UNL     1      47.976   7.720  13.496  0.00  0.00    +0.000 C 
ENDROOT
BRANCH   1   2
ATOM      2  C   UNL     1      46.990   6.711  12.895  0.00  0.00    +0.000 A 
ATOM      3  C   UNL     1      46.975   5.382  13.343  0.00  0.00    +0.000 A 
ATOM      4  C   UNL     1      46.081   4.445  12.802  0.00  0.00    +0.000 A 
ATOM      5  C   UNL     1      45.177   4.814  11.797  0.00  0.00    +0.000 A 
ATOM      6  C   UNL     1      45.167   6.148  11.371  0.00  0.00    +0.000 A 
ATOM      7  C   UNL     1      46.063   7.083  11.909  0.00  0.00    +0.000 A 
BRANCH   5   8
ATOM      8  C   UNL     1      44.255   3.803  11.163  0.00  0.00    +0.000 C 
BRANCH   8   9
ATOM      9  N   UNL     1      44.899   3.001  10.144  0.00  0.00    +0.000 N 
ATOM     10  C   UNL     1      44.854   3.406   8.830  0.00  0.00    +0.000 C 
ATOM     11  O   UNL     1      44.221   4.397   8.467  0.00  0.00    +0.000 OA
ATOM     12  H   UNL     1      45.552   2.287  10.437  0.00  0.00    +0.000 HD
BRANCH  10  13
ATOM     13  C   UNL     1      45.655   2.586   7.826  0.00  0.00    +0.000 C 
ATOM     14  C   UNL     1      46.184   1.266   8.392  0.00  0.00    +0.000 C 
ATOM     15  C   UNL     1      46.972   0.526   7.313  0.00  0.00    +0.000 C 
ATOM     16  O   UNL     1      48.031   1.346   6.817  0.00  0.00    +0.000 OA
ATOM     17  C   UNL     1      47.550   2.541   6.202  0.00  0.00    +0.000 C 
ATOM     18  C   UNL     1      46.801   3.394   7.217  0.00  0.00    +0.000 C 
ENDBRANCH  10  13
ENDBRANCH   8   9
ENDBRANCH   5   8
ENDBRANCH   1   2
BRANCH   1  19
ATOM     19  N   UNL     1      47.910   7.626  14.949  0.00  0.00    +0.000 N 
ATOM     20  C   UNL     1      48.905   7.065  15.710  0.00  0.00    +0.000 C 
ATOM     21  O   UNL     1      49.985   6.714  15.253  0.00  0.00    +0.000 OA
ATOM     22  H   UNL     1      46.974   7.657  15.339  0.00  0.00    +0.000 HD
BRANCH  20  23
ATOM     23  C   UNL     1      48.615   6.948  17.141  0.00  0.00    +0.000 A 
ATOM     24  C   UNL     1      48.333   8.077  17.898  0.00  0.00    +0.000 A 
ATOM     25  S   UNL     1      48.076   7.734  19.550  0.00  0.00    +0.000 S 
ATOM     26  C   UNL     1      48.376   6.074  19.310  0.00  0.00    +0.000 A 
ATOM     27  N   UNL     1      48.382   5.202  20.352  0.00  0.00    +0.000 NA
ATOM     28  C   UNL     1      48.662   3.983  20.021  0.00  0.00    +0.000 A 
ATOM     29  N   UNL     1      48.909   3.552  18.747  0.00  0.00    +0.000 N 
ATOM     30  C   UNL     1      48.852   4.388  17.655  0.00  0.00    +0.000 A 
ATOM     31  O   UNL     1      48.964   3.950  16.515  0.00  0.00    +0.000 OA
ATOM     32  C   UNL     1      48.608   5.776  17.980  0.00  0.00    +0.000 A 
ATOM     33  H   UNL     1      49.077   2.577  18.549  0.00  0.00    +0.000 HD
ENDBRANCH  20  23
ENDBRANCH   1  19
BRANCH   1  34
ATOM     34  C   UNL     1      47.724   9.179  13.008  0.00  0.00    +0.000 C 
BRANCH  34  35
ATOM     35  N   UNL     1      48.050  10.224  13.985  0.00  0.00    +0.000 NA
ATOM     36  H   UNL     1      47.725  11.119  13.621  0.00  0.00    +0.000 HD
ATOM     37  H   UNL     1      49.062  10.300  14.080  0.00  0.00    +0.000 HD
ENDBRANCH  34  35
ENDBRANCH   1  34
TORSDOF 8
ENDMDL
MODEL 4
REMARK VINA RESULT:    -7.534      2.848      4.080
REMARK INTER + INTRA:         -12.380
REMARK INTER:                 -11.249
REMARK INTRA:                  -1.132
REMARK UNBOUND:                -1.543
REMARK  Name = 
REMARK  8 active torsions:
REMARK  status: ('A' for Active; 'I' for Inactive)
REMARK    1  A    between atoms: N_1  and  C_2
REMARK    2  A    between atoms: C_2  and  C_3
REMARK    3  A    between atoms: C_3  and  N_4
REMARK    4  A    between atoms: C_3  and  C_17
REMARK    5  A    between atoms: C_5  and  C_7
REMARK    6  A    between atoms: C_20  and  C_21
REMARK    7  A    between atoms: C_21  and  N_22
REMARK    8  A    between atoms: C_23  and  C_25
REMARK                            x       y       z     vdW  Elec       q    Type
REMARK                         _______ _______ _______ _____ _____    ______ ____
ROOT
ATOM      1  C   UNL     1      47.066   5.121  15.059  0.00  0.00    +0.000 C 
ENDROOT
BRANCH   1   2
ATOM      2  C   UNL     1      46.207   5.015  13.793  0.00  0.00    +0.000 A 
ATOM      3  C   UNL     1      45.931   3.761  13.228  0.00  0.00    +0.000 A 
ATOM      4  C   UNL     1      45.148   3.645  12.069  0.00  0.00    +0.000 A 
ATOM      5  C   UNL     1      44.622   4.783  11.443  0.00  0.00    +0.000 A 
ATOM      6  C   UNL     1      44.869   6.033  12.023  0.00  0.00    +0.000 A 
ATOM      7  C   UNL     1      45.652   6.149  13.180  0.00  0.00    +0.000 A 
BRANCH   5   8
ATOM      8  C   UNL     1      43.833   4.678  10.162  0.00  0.00    +0.000 C 
BRANCH   8   9
ATOM      9  N   UNL     1      44.363   3.693   9.242  0.00  0.00    +0.000 N 
ATOM     10  C   UNL     1      45.390   4.038   8.394  0.00  0.00    +0.000 C 
ATOM     11  O   UNL     1      45.836   5.182   8.330  0.00  0.00    +0.000 OA
ATOM     12  H   UNL     1      44.128   2.722   9.392  0.00  0.00    +0.000 HD
BRANCH  10  13
ATOM     13  C   UNL     1      45.984   2.924   7.541  0.00  0.00    +0.000 C 
ATOM     14  C   UNL     1      46.218   1.619   8.306  0.00  0.00    +0.000 C 
ATOM     15  C   UNL     1      46.817   0.576   7.366  0.00  0.00    +0.000 C 
ATOM     16  O   UNL     1      48.025   1.064   6.781  0.00  0.00    +0.000 OA
ATOM     17  C   UNL     1      47.810   2.230   5.986  0.00  0.00    +0.000 C 
ATOM     18  C   UNL     1      47.273   3.366   6.847  0.00  0.00    +0.000 C 
ENDBRANCH  10  13
ENDBRANCH   8   9
ENDBRANCH   5   8
ENDBRANCH   1   2
BRANCH   1  19
ATOM     19  N   UNL     1      48.245   5.920  14.756  0.00  0.00    +0.000 N 
ATOM     20  C   UNL     1      48.781   6.830  15.635  0.00  0.00    +0.000 C 
ATOM     21  O   UNL     1      48.398   6.955  16.790  0.00  0.00    +0.000 OA
ATOM     22  H   UNL     1      48.438   6.045  13.768  0.00  0.00    +0.000 HD
BRANCH  20  23
ATOM     23  C   UNL     1      49.894   7.628  15.116  0.00  0.00    +0.000 A 
ATOM     24  C   UNL     1      49.661   8.665  14.223  0.00  0.00    +0.000 A 
ATOM     25  S   UNL     1      51.091   9.436  13.698  0.00  0.00    +0.000 S 
ATOM     26  C   UNL     1      52.064   8.379  14.615  0.00  0.00    +0.000 A 
ATOM     27  N   UNL     1      53.419   8.450  14.565  0.00  0.00    +0.000 NA
ATOM     28  C   UNL     1      54.024   7.560  15.284  0.00  0.00    +0.000 A 
ATOM     29  N   UNL     1      53.400   6.628  16.067  0.00  0.00    +0.000 N 
ATOM     30  C   UNL     1      52.031   6.560  16.195  0.00  0.00    +0.000 A 
ATOM     31  O   UNL     1      51.507   5.790  16.993  0.00  0.00    +0.000 OA
ATOM     32  C   UNL     1      51.308   7.492  15.358  0.00  0.00    +0.000 A 
ATOM     33  H   UNL     1      53.930   5.988  16.641  0.00  0.00    +0.000 HD
ENDBRANCH  20  23
ENDBRANCH   1  19
BRANCH   1  34
ATOM     34  C   UNL     1      47.457   3.730  15.645  0.00  0.00    +0.000 C 
BRANCH  34  35
ATOM     35  N   UNL     1      46.823   3.396  16.925  0.00  0.00    +0.000 NA
ATOM     36  H   UNL     1      47.434   3.706  17.679  0.00  0.00    +0.000 HD
ATOM     37  H   UNL     1      46.744   2.384  17.014  0.00  0.00    +0.000 HD
ENDBRANCH  34  35
ENDBRANCH   1  34
TORSDOF 8
ENDMDL
MODEL 5
REMARK VINA RESULT:    -6.896      3.653      5.824
REMARK INTER + INTRA:         -11.463
REMARK INTER:                 -10.003
REMARK INTRA:                  -1.460
REMARK UNBOUND:                -1.543
REMARK  Name = 
REMARK  8 active torsions:
REMARK  status: ('A' for Active; 'I' for Inactive)
REMARK    1  A    between atoms: N_1  and  C_2
REMARK    2  A    between atoms: C_2  and  C_3
REMARK    3  A    between atoms: C_3  and  N_4
REMARK    4  A    between atoms: C_3  and  C_17
REMARK    5  A    between atoms: C_5  and  C_7
REMARK    6  A    between atoms: C_20  and  C_21
REMARK    7  A    between atoms: C_21  and  N_22
REMARK    8  A    between atoms: C_23  and  C_25
REMARK                            x       y       z     vdW  Elec       q    Type
REMARK                         _______ _______ _______ _____ _____    ______ ____
ROOT
ATOM      1  C   UNL     1      47.857   7.403  14.003  0.00  0.00    +0.000 C 
ENDROOT
BRANCH   1   2
ATOM      2  C   UNL     1      46.879   6.486  13.259  0.00  0.00    +0.000 A 
ATOM      3  C   UNL     1      46.871   5.106  13.512  0.00  0.00    +0.000 A 
ATOM      4  C   UNL     1      45.983   4.251  12.838  0.00  0.00    +0.000 A 
ATOM      5  C   UNL     1      45.082   4.756  11.892  0.00  0.00    +0.000 A 
ATOM      6  C   UNL     1      45.065   6.137  11.661  0.00  0.00    +0.000 A 
ATOM      7  C   UNL     1      45.953   6.990  12.332  0.00  0.00    +0.000 A 
BRANCH   5   8
ATOM      8  C   UNL     1      44.167   3.842  11.115  0.00  0.00    +0.000 C 
BRANCH   8   9
ATOM      9  N   UNL     1      44.860   3.052  10.118  0.00  0.00    +0.000 N 
ATOM     10  C   UNL     1      44.814   3.432   8.797  0.00  0.00    +0.000 C 
ATOM     11  O   UNL     1      44.141   4.386   8.409  0.00  0.00    +0.000 OA
ATOM     12  H   UNL     1      45.541   2.374  10.432  0.00  0.00    +0.000 HD
BRANCH  10  13
ATOM     13  C   UNL     1      45.664   2.631   7.818  0.00  0.00    +0.000 C 
ATOM     14  C   UNL     1      46.154   1.295   8.378  0.00  0.00    +0.000 C 
ATOM     15  C   UNL     1      46.996   0.577   7.325  0.00  0.00    +0.000 C 
ATOM     16  O   UNL     1      48.085   1.402   6.908  0.00  0.00    +0.000 OA
ATOM     17  C   UNL     1      47.644   2.615   6.297  0.00  0.00    +0.000 C 
ATOM     18  C   UNL     1      46.845   3.447   7.292  0.00  0.00    +0.000 C 
ENDBRANCH  10  13
ENDBRANCH   8   9
ENDBRANCH   5   8
ENDBRANCH   1   2
BRANCH   1  19
ATOM     19  N   UNL     1      48.656   8.125  13.023  0.00  0.00    +0.000 N 
ATOM     20  C   UNL     1      48.926   9.468  13.118  0.00  0.00    +0.000 C 
ATOM     21  O   UNL     1      48.632  10.146  14.093  0.00  0.00    +0.000 OA
ATOM     22  H   UNL     1      48.701   7.695  12.105  0.00  0.00    +0.000 HD
BRANCH  20  23
ATOM     23  C   UNL     1      49.643  10.050  11.981  0.00  0.00    +0.000 A 
ATOM     24  C   UNL     1      49.035  11.005  11.178  0.00  0.00    +0.000 A 
ATOM     25  S   UNL     1      50.016  11.516   9.878  0.00  0.00    +0.000 S 
ATOM     26  C   UNL     1      51.264  10.445  10.326  0.00  0.00    +0.000 A 
ATOM     27  N   UNL     1      52.393  10.329   9.579  0.00  0.00    +0.000 NA
ATOM     28  C   UNL     1      53.233   9.450  10.022  0.00  0.00    +0.000 A 
ATOM     29  N   UNL     1      53.062   8.700  11.153  0.00  0.00    +0.000 N 
ATOM     30  C   UNL     1      51.964   8.830  11.972  0.00  0.00    +0.000 A 
ATOM     31  O   UNL     1      51.894   8.228  13.039  0.00  0.00    +0.000 OA
ATOM     32  C   UNL     1      50.963   9.753  11.484  0.00  0.00    +0.000 A 
ATOM     33  H   UNL     1      53.777   8.062  11.470  0.00  0.00    +0.000 HD
ENDBRANCH  20  23
ENDBRANCH   1  19
BRANCH   1  34
ATOM     34  C   UNL     1      48.758   6.633  15.016  0.00  0.00    +0.000 C 
BRANCH  34  35
ATOM     35  N   UNL     1      50.199   6.858  14.859  0.00  0.00    +0.000 NA
ATOM     36  H   UNL     1      50.623   6.002  14.506  0.00  0.00    +0.000 HD
ATOM     37  H   UNL     1      50.619   7.035  15.771  0.00  0.00    +0.000 HD
ENDBRANCH  34  35
ENDBRANCH   1  34
TORSDOF 8
ENDMDL
MODEL 6
REMARK VINA RESULT:    -6.847      2.749      3.905
REMARK INTER + INTRA:         -11.392
REMARK INTER:                 -10.169
REMARK INTRA:                  -1.223
REMARK UNBOUND:                -1.543
REMARK  Name = 
REMARK  8 active torsions:
REMARK  status: ('A' for Active; 'I' for Inactive)
REMARK    1  A    between atoms: N_1  and  C_2
REMARK    2  A    between atoms: C_2  and  C_3
REMARK    3  A    between atoms: C_3  and  N_4
REMARK    4  A    between atoms: C_3  and  C_17
REMARK    5  A    between atoms: C_5  and  C_7
REMARK    6  A    between atoms: C_20  and  C_21
REMARK    7  A    between atoms: C_21  and  N_22
REMARK    8  A    between atoms: C_23  and  C_25
REMARK                            x       y       z     vdW  Elec       q    Type
REMARK                         _______ _______ _______ _____ _____    ______ ____
ROOT
ATOM      1  C   UNL     1      47.532   5.039  15.744  0.00  0.00    +0.000 C 
ENDROOT
BRANCH   1   2
ATOM      2  C   UNL     1      47.005   5.273  14.324  0.00  0.00    +0.000 A 
ATOM      3  C   UNL     1      45.968   4.477  13.813  0.00  0.00    +0.000 A 
ATOM      4  C   UNL     1      45.475   4.676  12.514  0.00  0.00    +0.000 A 
ATOM      5  C   UNL     1      46.008   5.677  11.690  0.00  0.00    +0.000 A 
ATOM      6  C   UNL     1      47.020   6.494  12.209  0.00  0.00    +0.000 A 
ATOM      7  C   UNL     1      47.514   6.293  13.505  0.00  0.00    +0.000 A 
BRANCH   5   8
ATOM      8  C   UNL     1      45.531   5.860  10.271  0.00  0.00    +0.000 C 
BRANCH   8   9
ATOM      9  N   UNL     1      46.030   4.847   9.365  0.00  0.00    +0.000 N 
ATOM     10  C   UNL     1      45.160   3.925   8.830  0.00  0.00    +0.000 C 
ATOM     11  O   UNL     1      43.973   3.877   9.148  0.00  0.00    +0.000 OA
ATOM     12  H   UNL     1      46.952   4.969   8.969  0.00  0.00    +0.000 HD
BRANCH  10  13
ATOM     13  C   UNL     1      45.725   2.966   7.790  0.00  0.00    +0.000 C 
ATOM     14  C   UNL     1      46.255   1.658   8.381  0.00  0.00    +0.000 C 
ATOM     15  C   UNL     1      46.800   0.774   7.262  0.00  0.00    +0.000 C 
ATOM     16  O   UNL     1      47.811   1.464   6.526  0.00  0.00    +0.000 OA
ATOM     17  C   UNL     1      47.312   2.641   5.889  0.00  0.00    +0.000 C 
ATOM     18  C   UNL     1      46.801   3.629   6.930  0.00  0.00    +0.000 C 
ENDBRANCH  10  13
ENDBRANCH   8   9
ENDBRANCH   5   8
ENDBRANCH   1   2
BRANCH   1  19
ATOM     19  N   UNL     1      48.882   5.578  15.834  0.00  0.00    +0.000 N 
ATOM     20  C   UNL     1      49.226   6.603  16.681  0.00  0.00    +0.000 C 
ATOM     21  O   UNL     1      48.466   7.064  17.522  0.00  0.00    +0.000 OA
ATOM     22  H   UNL     1      49.462   5.423  15.017  0.00  0.00    +0.000 HD
BRANCH  20  23
ATOM     23  C   UNL     1      50.599   7.094  16.552  0.00  0.00    +0.000 A 
ATOM     24  C   UNL     1      50.849   8.368  16.059  0.00  0.00    +0.000 A 
ATOM     25  S   UNL     1      52.512   8.730  15.937  0.00  0.00    +0.000 S 
ATOM     26  C   UNL     1      52.947   7.181  16.497  0.00  0.00    +0.000 A 
ATOM     27  N   UNL     1      54.249   6.799  16.572  0.00  0.00    +0.000 NA
ATOM     28  C   UNL     1      54.423   5.584  16.980  0.00  0.00    +0.000 A 
ATOM     29  N   UNL     1      53.421   4.727  17.344  0.00  0.00    +0.000 N 
ATOM     30  C   UNL     1      52.094   5.092  17.343  0.00  0.00    +0.000 A 
ATOM     31  O   UNL     1      51.230   4.341  17.785  0.00  0.00    +0.000 OA
ATOM     32  C   UNL     1      51.842   6.421  16.831  0.00  0.00    +0.000 A 
ATOM     33  H   UNL     1      53.626   3.804  17.697  0.00  0.00    +0.000 HD
ENDBRANCH  20  23
ENDBRANCH   1  19
BRANCH   1  34
ATOM     34  C   UNL     1      47.488   3.539  16.168  0.00  0.00    +0.000 C 
BRANCH  34  35
ATOM     35  N   UNL     1      46.728   3.263  17.392  0.00  0.00    +0.000 NA
ATOM     36  H   UNL     1      47.261   2.607  17.962  0.00  0.00    +0.000 HD
ATOM     37  H   UNL     1      45.854   2.795  17.153  0.00  0.00    +0.000 HD
ENDBRANCH  34  35
ENDBRANCH   1  34
TORSDOF 8
ENDMDL
MODEL 7
REMARK VINA RESULT:    -6.768      3.884      5.458
REMARK INTER + INTRA:         -11.279
REMARK INTER:                  -9.970
REMARK INTRA:                  -1.309
REMARK UNBOUND:                -1.543
REMARK  Name = 
REMARK  8 active torsions:
REMARK  status: ('A' for Active; 'I' for Inactive)
REMARK    1  A    between atoms: N_1  and  C_2
REMARK    2  A    between atoms: C_2  and  C_3
REMARK    3  A    between atoms: C_3  and  N_4
REMARK    4  A    between atoms: C_3  and  C_17
REMARK    5  A    between atoms: C_5  and  C_7
REMARK    6  A    between atoms: C_20  and  C_21
REMARK    7  A    between atoms: C_21  and  N_22
REMARK    8  A    between atoms: C_23  and  C_25
REMARK                            x       y       z     vdW  Elec       q    Type
REMARK                         _______ _______ _______ _____ _____    ______ ____
ROOT
ATOM      1  C   UNL     1      48.247   8.104  13.631  0.00  0.00    +0.000 C 
ENDROOT
BRANCH   1   2
ATOM      2  C   UNL     1      47.319   7.049  13.019  0.00  0.00    +0.000 A 
ATOM      3  C   UNL     1      46.529   7.362  11.903  0.00  0.00    +0.000 A 
ATOM      4  C   UNL     1      45.672   6.408  11.331  0.00  0.00    +0.000 A 
ATOM      5  C   UNL     1      45.582   5.115  11.863  0.00  0.00    +0.000 A 
ATOM      6  C   UNL     1      46.393   4.790  12.957  0.00  0.00    +0.000 A 
ATOM      7  C   UNL     1      47.247   5.743  13.530  0.00  0.00    +0.000 A 
BRANCH   5   8
ATOM      8  C   UNL     1      44.619   4.100  11.299  0.00  0.00    +0.000 C 
BRANCH   8   9
ATOM      9  N   UNL     1      45.205   3.266  10.271  0.00  0.00    +0.000 N 
ATOM     10  C   UNL     1      44.904   3.502   8.949  0.00  0.00    +0.000 C 
ATOM     11  O   UNL     1      44.091   4.357   8.601  0.00  0.00    +0.000 OA
ATOM     12  H   UNL     1      45.989   2.677  10.519  0.00  0.00    +0.000 HD
BRANCH  10  13
ATOM     13  C   UNL     1      45.648   2.670   7.912  0.00  0.00    +0.000 C 
ATOM     14  C   UNL     1      46.123   1.313   8.435  0.00  0.00    +0.000 C 
ATOM     15  C   UNL     1      46.857   0.565   7.325  0.00  0.00    +0.000 C 
ATOM     16  O   UNL     1      47.946   1.346   6.831  0.00  0.00    +0.000 OA
ATOM     17  C   UNL     1      47.513   2.578   6.254  0.00  0.00    +0.000 C 
ATOM     18  C   UNL     1      46.821   3.439   7.302  0.00  0.00    +0.000 C 
ENDBRANCH  10  13
ENDBRANCH   8   9
ENDBRANCH   5   8
ENDBRANCH   1   2
BRANCH   1  19
ATOM     19  N   UNL     1      49.586   7.916  13.089  0.00  0.00    +0.000 N 
ATOM     20  C   UNL     1      50.011   8.498  11.920  0.00  0.00    +0.000 C 
ATOM     21  O   UNL     1      49.353   9.324  11.302  0.00  0.00    +0.000 OA
ATOM     22  H   UNL     1      50.062   7.076  13.401  0.00  0.00    +0.000 HD
BRANCH  20  23
ATOM     23  C   UNL     1      51.346   8.102  11.467  0.00  0.00    +0.000 A 
ATOM     24  C   UNL     1      51.507   7.379  10.293  0.00  0.00    +0.000 A 
ATOM     25  S   UNL     1      53.133   6.971   9.970  0.00  0.00    +0.000 S 
ATOM     26  C   UNL     1      53.663   7.712  11.410  0.00  0.00    +0.000 A 
ATOM     27  N   UNL     1      54.969   7.669  11.784  0.00  0.00    +0.000 NA
ATOM     28  C   UNL     1      55.215   8.241  12.917  0.00  0.00    +0.000 A 
ATOM     29  N   UNL     1      54.285   8.875  13.695  0.00  0.00    +0.000 N 
ATOM     30  C   UNL     1      52.965   8.997  13.325  0.00  0.00    +0.000 A 
ATOM     31  O   UNL     1      52.181   9.671  13.986  0.00  0.00    +0.000 OA
ATOM     32  C   UNL     1      52.626   8.315  12.096  0.00  0.00    +0.000 A 
ATOM     33  H   UNL     1      54.550   9.343  14.550  0.00  0.00    +0.000 HD
ENDBRANCH  20  23
ENDBRANCH   1  19
BRANCH   1  34
ATOM     34  C   UNL     1      48.255   8.076  15.189  0.00  0.00    +0.000 C 
BRANCH  34  35
ATOM     35  N   UNL     1      47.622   9.231  15.834  0.00  0.00    +0.000 NA
ATOM     36  H   UNL     1      47.921  10.076  15.349  0.00  0.00    +0.000 HD
ATOM     37  H   UNL     1      47.957   9.314  16.793  0.00  0.00    +0.000 HD
ENDBRANCH  34  35
ENDBRANCH   1  34
TORSDOF 8
ENDMDL
MODEL 8
REMARK VINA RESULT:    -6.590      1.972      3.081
REMARK INTER + INTRA:         -11.022
REMARK INTER:                 -10.807
REMARK INTRA:                  -0.215
REMARK UNBOUND:                -1.543
REMARK  Name = 
REMARK  8 active torsions:
REMARK  status: ('A' for Active; 'I' for Inactive)
REMARK    1  A    between atoms: N_1  and  C_2
REMARK    2  A    between atoms: C_2  and  C_3
REMARK    3  A    between atoms: C_3  and  N_4
REMARK    4  A    between atoms: C_3  and  C_17
REMARK    5  A    between atoms: C_5  and  C_7
REMARK    6  A    between atoms: C_20  and  C_21
REMARK    7  A    between atoms: C_21  and  N_22
REMARK    8  A    between atoms: C_23  and  C_25
REMARK                            x       y       z     vdW  Elec       q    Type
REMARK                         _______ _______ _______ _____ _____    ______ ____
ROOT
ATOM      1  C   UNL     1      46.539   9.149  12.483  0.00  0.00    +0.000 C 
ENDROOT
BRANCH   1   2
ATOM      2  C   UNL     1      45.909   7.807  12.095  0.00  0.00    +0.000 A 
ATOM      3  C   UNL     1      44.666   7.770  11.444  0.00  0.00    +0.000 A 
ATOM      4  C   UNL     1      44.073   6.549  11.083  0.00  0.00    +0.000 A 
ATOM      5  C   UNL     1      44.709   5.333  11.365  0.00  0.00    +0.000 A 
ATOM      6  C   UNL     1      45.964   5.368  11.984  0.00  0.00    +0.000 A 
ATOM      7  C   UNL     1      46.555   6.586  12.348  0.00  0.00    +0.000 A 
BRANCH   5   8
ATOM      8  C   UNL     1      44.055   4.013  11.039  0.00  0.00    +0.000 C 
BRANCH   8   9
ATOM      9  N   UNL     1      44.916   3.115  10.298  0.00  0.00    +0.000 N 
ATOM     10  C   UNL     1      45.261   3.419   9.002  0.00  0.00    +0.000 C 
ATOM     11  O   UNL     1      44.807   4.398   8.411  0.00  0.00    +0.000 OA
ATOM     12  H   UNL     1      45.423   2.406  10.810  0.00  0.00    +0.000 HD
BRANCH  10  13
ATOM     13  C   UNL     1      46.267   2.499   8.321  0.00  0.00    +0.000 C 
ATOM     14  C   UNL     1      46.684   2.967   6.925  0.00  0.00    +0.000 C 
ATOM     15  C   UNL     1      47.684   1.978   6.332  0.00  0.00    +0.000 C 
ATOM     16  O   UNL     1      47.129   0.662   6.300  0.00  0.00    +0.000 OA
ATOM     17  C   UNL     1      46.819   0.172   7.605  0.00  0.00    +0.000 C 
ATOM     18  C   UNL     1      45.769   1.055   8.266  0.00  0.00    +0.000 C 
ENDBRANCH  10  13
ENDBRANCH   8   9
ENDBRANCH   5   8
ENDBRANCH   1   2
BRANCH   1  19
ATOM     19  N   UNL     1      46.883   9.110  13.898  0.00  0.00    +0.000 N 
ATOM     20  C   UNL     1      48.169   8.949  14.354  0.00  0.00    +0.000 C 
ATOM     21  O   UNL     1      49.148   8.955  13.620  0.00  0.00    +0.000 OA
ATOM     22  H   UNL     1      46.123   8.848  14.518  0.00  0.00    +0.000 HD
BRANCH  20  23
ATOM     23  C   UNL     1      48.312   8.813  15.804  0.00  0.00    +0.000 A 
ATOM     24  C   UNL     1      48.142   9.912  16.636  0.00  0.00    +0.000 A 
ATOM     25  S   UNL     1      48.403   9.555  18.285  0.00  0.00    +0.000 S 
ATOM     26  C   UNL     1      48.791   7.935  17.931  0.00  0.00    +0.000 A 
ATOM     27  N   UNL     1      49.182   7.075  18.908  0.00  0.00    +0.000 NA
ATOM     28  C   UNL     1      49.481   5.890  18.484  0.00  0.00    +0.000 A 
ATOM     29  N   UNL     1      49.398   5.478  17.183  0.00  0.00    +0.000 N 
ATOM     30  C   UNL     1      48.947   6.296  16.171  0.00  0.00    +0.000 A 
ATOM     31  O   UNL     1      48.773   5.863  15.036  0.00  0.00    +0.000 OA
ATOM     32  C   UNL     1      48.664   7.653  16.584  0.00  0.00    +0.000 A 
ATOM     33  H   UNL     1      49.602   4.524  16.922  0.00  0.00    +0.000 HD
ENDBRANCH  20  23
ENDBRANCH   1  19
BRANCH   1  34
ATOM     34  C   UNL     1      45.623  10.367  12.154  0.00  0.00    +0.000 C 
BRANCH  34  35
ATOM     35  N   UNL     1      44.225  10.223  12.575  0.00  0.00    +0.000 NA
ATOM     36  H   UNL     1      44.159  10.465  13.562  0.00  0.00    +0.000 HD
ATOM     37  H   UNL     1      43.943   9.247  12.495  0.00  0.00    +0.000 HD
ENDBRANCH  34  35
ENDBRANCH   1  34
TORSDOF 8
ENDMDL
MODEL 9
REMARK VINA RESULT:    -6.471      3.825      5.678
REMARK INTER + INTRA:         -10.851
REMARK INTER:                  -9.349
REMARK INTRA:                  -1.503
REMARK UNBOUND:                -1.543
REMARK  Name = 
REMARK  8 active torsions:
REMARK  status: ('A' for Active; 'I' for Inactive)
REMARK    1  A    between atoms: N_1  and  C_2
REMARK    2  A    between atoms: C_2  and  C_3
REMARK    3  A    between atoms: C_3  and  N_4
REMARK    4  A    between atoms: C_3  and  C_17
REMARK    5  A    between atoms: C_5  and  C_7
REMARK    6  A    between atoms: C_20  and  C_21
REMARK    7  A    between atoms: C_21  and  N_22
REMARK    8  A    between atoms: C_23  and  C_25
REMARK                            x       y       z     vdW  Elec       q    Type
REMARK                         _______ _______ _______ _____ _____    ______ ____
ROOT
ATOM      1  C   UNL     1      49.054   7.332  15.129  0.00  0.00    +0.000 C 
ENDROOT
BRANCH   1   2
ATOM      2  C   UNL     1      48.020   7.116  14.018  0.00  0.00    +0.000 A 
ATOM      3  C   UNL     1      47.559   5.824  13.721  0.00  0.00    +0.000 A 
ATOM      4  C   UNL     1      46.614   5.607  12.707  0.00  0.00    +0.000 A 
ATOM      5  C   UNL     1      46.105   6.679  11.961  0.00  0.00    +0.000 A 
ATOM      6  C   UNL     1      46.538   7.972  12.276  0.00  0.00    +0.000 A 
ATOM      7  C   UNL     1      47.484   8.189  13.288  0.00  0.00    +0.000 A 
BRANCH   5   8
ATOM      8  C   UNL     1      45.137   6.454  10.826  0.00  0.00    +0.000 C 
BRANCH   8   9
ATOM      9  N   UNL     1      45.581   5.444   9.887  0.00  0.00    +0.000 N 
ATOM     10  C   UNL     1      44.751   4.392   9.577  0.00  0.00    +0.000 C 
ATOM     11  O   UNL     1      43.662   4.228  10.124  0.00  0.00    +0.000 OA
ATOM     12  H   UNL     1      46.388   5.645   9.313  0.00  0.00    +0.000 HD
BRANCH  10  13
ATOM     13  C   UNL     1      45.227   3.434   8.492  0.00  0.00    +0.000 C 
ATOM     14  C   UNL     1      45.692   2.078   9.027  0.00  0.00    +0.000 C 
ATOM     15  C   UNL     1      46.150   1.199   7.866  0.00  0.00    +0.000 C 
ATOM     16  O   UNL     1      47.181   1.850   7.123  0.00  0.00    +0.000 OA
ATOM     17  C   UNL     1      46.738   3.075   6.537  0.00  0.00    +0.000 C 
ATOM     18  C   UNL     1      46.318   4.058   7.621  0.00  0.00    +0.000 C 
ENDBRANCH  10  13
ENDBRANCH   8   9
ENDBRANCH   5   8
ENDBRANCH   1   2
BRANCH   1  19
ATOM     19  N   UNL     1      50.374   7.434  14.522  0.00  0.00    +0.000 N 
ATOM     20  C   UNL     1      51.054   8.621  14.397  0.00  0.00    +0.000 C 
ATOM     21  O   UNL     1      50.671   9.670  14.897  0.00  0.00    +0.000 OA
ATOM     22  H   UNL     1      50.614   6.680  13.886  0.00  0.00    +0.000 HD
BRANCH  20  23
ATOM     23  C   UNL     1      52.314   8.551  13.655  0.00  0.00    +0.000 A 
ATOM     24  C   UNL     1      53.523   8.784  14.296  0.00  0.00    +0.000 A 
ATOM     25  S   UNL     1      54.867   8.708  13.247  0.00  0.00    +0.000 S 
ATOM     26  C   UNL     1      53.869   8.406  11.899  0.00  0.00    +0.000 A 
ATOM     27  N   UNL     1      54.389   8.299  10.648  0.00  0.00    +0.000 NA
ATOM     28  C   UNL     1      53.506   8.108   9.722  0.00  0.00    +0.000 A 
ATOM     29  N   UNL     1      52.160   7.984   9.933  0.00  0.00    +0.000 N 
ATOM     30  C   UNL     1      51.599   8.022  11.189  0.00  0.00    +0.000 A 
ATOM     31  O   UNL     1      50.405   7.793  11.357  0.00  0.00    +0.000 OA
ATOM     32  C   UNL     1      52.537   8.303  12.253  0.00  0.00    +0.000 A 
ATOM     33  H   UNL     1      51.527   7.790   9.171  0.00  0.00    +0.000 HD
ENDBRANCH  20  23
ENDBRANCH   1  19
BRANCH   1  34
ATOM     34  C   UNL     1      49.013   6.220  16.221  0.00  0.00    +0.000 C 
BRANCH  34  35
ATOM     35  N   UNL     1      50.318   5.655  16.579  0.00  0.00    +0.000 NA
ATOM     36  H   UNL     1      50.911   6.406  16.928  0.00  0.00    +0.000 HD
ATOM     37  H   UNL     1      50.774   5.289  15.743  0.00  0.00    +0.000 HD
ENDBRANCH  34  35
ENDBRANCH   1  34
TORSDOF 8
ENDMDL
