MODEL 1
REMARK VINA RESULT:    -7.634      0.000      0.000
REMARK INTER + INTRA:         -12.405
REMARK INTER:                 -10.981
REMARK INTRA:                  -1.424
REMARK UNBOUND:                -1.424
REMARK  Name = 
REMARK  9 active torsions:
REMARK  status: ('A' for Active; 'I' for Inactive)
REMARK    1  A    between atoms: C_1  and  C_2
REMARK    2  A    between atoms: C_2  and  N_3
REMARK    3  A    between atoms: N_3  and  C_4
REMARK    4  A    between atoms: C_6  and  N_7
REMARK    5  A    between atoms: N_7  and  C_8
REMARK    6  A    between atoms: C_8  and  C_9
REMARK    7  A    between atoms: C_9  and  C_12
REMARK    8  A    between atoms: C_19  and  C_20
REMARK    9  A    between atoms: C_25  and  O_26
REMARK                            x       y       z     vdW  Elec       q    Type
REMARK                         _______ _______ _______ _____ _____    ______ ____
ROOT
ATOM      1  C   UNL     1      45.373   8.247  12.782  0.00  0.00    +0.000 A 
ATOM      2  C   UNL     1      44.665   7.036  12.822  0.00  0.00    +0.000 A 
ATOM      3  C   UNL     1      45.312   5.799  13.018  0.00  0.00    +0.000 A 
ATOM      4  C   UNL     1      46.691   5.810  13.234  0.00  0.00    +0.000 A 
ATOM      5  C   UNL     1      47.422   6.998  13.165  0.00  0.00    +0.000 A 
ATOM      6  C   UNL     1      46.763   8.211  12.949  0.00  0.00    +0.000 A 
ENDROOT
BRANCH   5   7
ATOM      7  C   UNL     1      48.894   6.914  13.340  0.00  0.00    +0.000 C 
ATOM      8  N   UNL     1      49.666   7.081  12.227  0.00  0.00    +0.000 N 
ATOM      9  O   UNL     1      49.400   6.640  14.424  0.00  0.00    +0.000 OA
ATOM     10  H   UNL     1      49.285   7.053  11.293  0.00  0.00    +0.000 HD
ATOM     11  H   UNL     1      50.651   6.880  12.337  0.00  0.00    +0.000 HD
ENDBRANCH   5   7
BRANCH   1  12
ATOM     12  N   UNL     1      44.762   9.520  12.708  0.00  0.00    +0.000 N 
ATOM     13  H   UNL     1      44.830  10.010  13.599  0.00  0.00    +0.000 HD
BRANCH  12  15
ATOM     14  C   UNL     1      45.702  11.438  11.487  0.00  0.00    +0.000 C 
ATOM     15  C   UNL     1      44.588  10.411  11.586  0.00  0.00    +0.000 C 
ATOM     16  C   UNL     1      44.144   9.698  10.283  0.00  0.00    +0.000 C 
ATOM     17  C   UNL     1      42.675  10.027  10.615  0.00  0.00    +0.000 C 
ATOM     18  C   UNL     1      43.168  11.047  11.657  0.00  0.00    +0.000 C 
BRANCH  17  19
ATOM     19  O   UNL     1      41.868   8.948  11.126  0.00  0.00    +0.000 OA
ATOM     20  H   UNL     1      42.329   8.651  11.930  0.00  0.00    +0.000 HD
ENDBRANCH  17  19
ENDBRANCH  12  15
ENDBRANCH   1  12
BRANCH   3  21
ATOM     21  N   UNL     1      44.537   4.627  13.046  0.00  0.00    +0.000 N 
ATOM     22  H   UNL     1      43.547   4.859  12.949  0.00  0.00    +0.000 HD
BRANCH  21  23
ATOM     23  C   UNL     1      44.947   3.483  12.199  0.00  0.00    +0.000 C 
BRANCH  23  24
ATOM     24  C   UNL     1      44.098   3.297  10.921  0.00  0.00    +0.000 C 
ATOM     25  F   UNL     1      43.428   2.106  11.038  0.00  0.00    +0.000 F 
ATOM     26  F   UNL     1      43.115   4.250  10.944  0.00  0.00    +0.000 F 
BRANCH  24  27
ATOM     27  C   UNL     1      44.903   3.368   9.667  0.00  0.00    +0.000 A 
ATOM     28  C   UNL     1      45.315   2.237   8.991  0.00  0.00    +0.000 A 
ATOM     29  N   UNL     1      46.053   2.266   7.868  0.00  0.00    +0.000 NA
ATOM     30  C   UNL     1      46.380   3.487   7.417  0.00  0.00    +0.000 A 
ATOM     31  N   UNL     1      46.034   4.655   7.982  0.00  0.00    +0.000 NA
ATOM     32  C   UNL     1      45.295   4.562   9.104  0.00  0.00    +0.000 A 
ENDBRANCH  24  27
ENDBRANCH  23  24
ENDBRANCH  21  23
ENDBRANCH   3  21
TORSDOF 8
ENDMDL
MODEL 2
REMARK VINA RESULT:    -7.629      2.036      2.798
REMARK INTER + INTRA:         -12.398
REMARK INTER:                 -11.296
REMARK INTRA:                  -1.102
REMARK UNBOUND:                -1.424
REMARK  Name = 
REMARK  9 active torsions:
REMARK  status: ('A' for Active; 'I' for Inactive)
REMARK    1  A    between atoms: C_1  and  C_2
REMARK    2  A    between atoms: C_2  and  N_3
REMARK    3  A    between atoms: N_3  and  C_4
REMARK    4  A    between atoms: C_6  and  N_7
REMARK    5  A    between atoms: N_7  and  C_8
REMARK    6  A    between atoms: C_8  and  C_9
REMARK    7  A    between atoms: C_9  and  C_12
REMARK    8  A    between atoms: C_19  and  C_20
REMARK    9  A    between atoms: C_25  and  O_26
REMARK                            x       y       z     vdW  Elec       q    Type
REMARK                         _______ _______ _______ _____ _____    ______ ____
ROOT
ATOM      1  C   UNL     1      46.639   6.764  11.855  0.00  0.00    +0.000 A 
ATOM      2  C   UNL     1      45.666   6.137  11.063  0.00  0.00    +0.000 A 
ATOM      3  C   UNL     1      45.136   4.872  11.392  0.00  0.00    +0.000 A 
ATOM      4  C   UNL     1      45.567   4.272  12.576  0.00  0.00    +0.000 A 
ATOM      5  C   UNL     1      46.559   4.861  13.364  0.00  0.00    +0.000 A 
ATOM      6  C   UNL     1      47.085   6.104  13.008  0.00  0.00    +0.000 A 
ENDROOT
BRANCH   5   7
ATOM      7  C   UNL     1      47.007   4.125  14.572  0.00  0.00    +0.000 C 
ATOM      8  N   UNL     1      47.012   4.808  15.754  0.00  0.00    +0.000 N 
ATOM      9  O   UNL     1      47.418   2.970  14.509  0.00  0.00    +0.000 OA
ATOM     10  H   UNL     1      46.926   5.812  15.801  0.00  0.00    +0.000 HD
ATOM     11  H   UNL     1      47.451   4.338  16.535  0.00  0.00    +0.000 HD
ENDBRANCH   5   7
BRANCH   1  12
ATOM     12  N   UNL     1      47.113   8.078  11.635  0.00  0.00    +0.000 N 
ATOM     13  H   UNL     1      47.372   8.215  10.658  0.00  0.00    +0.000 HD
BRANCH  12  15
ATOM     14  C   UNL     1      47.844   9.691  13.344  0.00  0.00    +0.000 C 
ATOM     15  C   UNL     1      46.797   9.312  12.312  0.00  0.00    +0.000 C 
ATOM     16  C   UNL     1      46.275  10.427  11.369  0.00  0.00    +0.000 C 
ATOM     17  C   UNL     1      44.826  10.017  11.700  0.00  0.00    +0.000 C 
ATOM     18  C   UNL     1      45.358   9.214  12.901  0.00  0.00    +0.000 C 
BRANCH  17  19
ATOM     19  O   UNL     1      44.123   9.255  10.698  0.00  0.00    +0.000 OA
ATOM     20  H   UNL     1      43.192   9.271  10.983  0.00  0.00    +0.000 HD
ENDBRANCH  17  19
ENDBRANCH  12  15
ENDBRANCH   1  12
BRANCH   3  21
ATOM     21  N   UNL     1      44.164   4.306  10.550  0.00  0.00    +0.000 N 
ATOM     22  H   UNL     1      43.292   4.835  10.615  0.00  0.00    +0.000 HD
BRANCH  21  23
ATOM     23  C   UNL     1      44.536   3.977   9.154  0.00  0.00    +0.000 C 
BRANCH  23  24
ATOM     24  C   UNL     1      45.073   2.540   8.958  0.00  0.00    +0.000 C 
ATOM     25  F   UNL     1      45.626   2.140  10.148  0.00  0.00    +0.000 F 
ATOM     26  F   UNL     1      43.989   1.721   8.788  0.00  0.00    +0.000 F 
BRANCH  24  27
ATOM     27  C   UNL     1      46.034   2.423   7.824  0.00  0.00    +0.000 A 
ATOM     28  C   UNL     1      46.881   1.342   7.683  0.00  0.00    +0.000 A 
ATOM     29  N   UNL     1      47.767   1.213   6.682  0.00  0.00    +0.000 NA
ATOM     30  C   UNL     1      47.792   2.217   5.792  0.00  0.00    +0.000 A 
ATOM     31  N   UNL     1      47.016   3.313   5.819  0.00  0.00    +0.000 NA
ATOM     32  C   UNL     1      46.148   3.386   6.846  0.00  0.00    +0.000 A 
ENDBRANCH  24  27
ENDBRANCH  23  24
ENDBRANCH  21  23
ENDBRANCH   3  21
TORSDOF 8
ENDMDL
MODEL 3
REMARK VINA RESULT:    -7.594      1.555      1.990
REMARK INTER + INTRA:         -12.348
REMARK INTER:                 -11.295
REMARK INTRA:                  -1.052
REMARK UNBOUND:                -1.424
REMARK  Name = 
REMARK  9 active torsions:
REMARK  status: ('A' for Active; 'I' for Inactive)
REMARK    1  A    between atoms: C_1  and  C_2
REMARK    2  A    between atoms: C_2  and  N_3
REMARK    3  A    between atoms: N_3  and  C_4
REMARK    4  A    between atoms: C_6  and  N_7
REMARK    5  A    between atoms: N_7  and  C_8
REMARK    6  A    between atoms: C_8  and  C_9
REMARK    7  A    between atoms: C_9  and  C_12
REMARK    8  A    between atoms: C_19  and  C_20
REMARK    9  A    between atoms: C_25  and  O_26
REMARK                            x       y       z     vdW  Elec       q    Type
REMARK                         _______ _______ _______ _____ _____    ______ ____
ROOT
ATOM      1  C   UNL     1      44.951   8.312  12.215  0.00  0.00    +0.000 A 
ATOM      2  C   UNL     1      44.285   7.218  11.642  0.00  0.00    +0.000 A 
ATOM      3  C   UNL     1      44.813   5.912  11.692  0.00  0.00    +0.000 A 
ATOM      4  C   UNL     1      46.008   5.717  12.387  0.00  0.00    +0.000 A 
ATOM      5  C   UNL     1      46.707   6.795  12.936  0.00  0.00    +0.000 A 
ATOM      6  C   UNL     1      46.175   8.083  12.857  0.00  0.00    +0.000 A 
ENDROOT
BRANCH   5   7
ATOM      7  C   UNL     1      48.003   6.508  13.601  0.00  0.00    +0.000 C 
ATOM      8  N   UNL     1      48.031   6.565  14.965  0.00  0.00    +0.000 N 
ATOM      9  O   UNL     1      49.025   6.293  12.957  0.00  0.00    +0.000 OA
ATOM     10  H   UNL     1      47.289   6.981  15.506  0.00  0.00    +0.000 HD
ATOM     11  H   UNL     1      48.947   6.508  15.391  0.00  0.00    +0.000 HD
ENDBRANCH   5   7
BRANCH   1  12
ATOM     12  N   UNL     1      44.410   9.615  12.296  0.00  0.00    +0.000 N 
ATOM     13  H   UNL     1      44.559  10.016  13.222  0.00  0.00    +0.000 HD
BRANCH  12  15
ATOM     14  C   UNL     1      45.433  11.516  11.114  0.00  0.00    +0.000 C 
ATOM     15  C   UNL     1      44.220  10.616  11.274  0.00  0.00    +0.000 C 
ATOM     16  C   UNL     1      43.546  10.075   9.986  0.00  0.00    +0.000 C 
ATOM     17  C   UNL     1      42.176  10.537  10.520  0.00  0.00    +0.000 C 
ATOM     18  C   UNL     1      42.906  11.399  11.567  0.00  0.00    +0.000 C 
BRANCH  17  19
ATOM     19  O   UNL     1      41.306   9.515  11.046  0.00  0.00    +0.000 OA
ATOM     20  H   UNL     1      41.907   8.823  11.374  0.00  0.00    +0.000 HD
ENDBRANCH  17  19
ENDBRANCH  12  15
ENDBRANCH   1  12
BRANCH   3  21
ATOM     21  N   UNL     1      44.089   4.866  11.095  0.00  0.00    +0.000 N 
ATOM     22  H   UNL     1      43.321   5.244  10.539  0.00  0.00    +0.000 HD
BRANCH  21  23
ATOM     23  C   UNL     1      44.834   3.794  10.395  0.00  0.00    +0.000 C 
BRANCH  23  24
ATOM     24  C   UNL     1      45.155   4.101   8.914  0.00  0.00    +0.000 C 
ATOM     25  F   UNL     1      43.969   4.374   8.282  0.00  0.00    +0.000 F 
ATOM     26  F   UNL     1      45.843   5.285   8.884  0.00  0.00    +0.000 F 
BRANCH  24  27
ATOM     27  C   UNL     1      45.913   3.008   8.240  0.00  0.00    +0.000 A 
ATOM     28  C   UNL     1      46.804   3.252   7.214  0.00  0.00    +0.000 A 
ATOM     29  N   UNL     1      47.491   2.289   6.576  0.00  0.00    +0.000 NA
ATOM     30  C   UNL     1      47.265   1.036   6.997  0.00  0.00    +0.000 A 
ATOM     31  N   UNL     1      46.430   0.675   7.985  0.00  0.00    +0.000 NA
ATOM     32  C   UNL     1      45.770   1.683   8.587  0.00  0.00    +0.000 A 
ENDBRANCH  24  27
ENDBRANCH  23  24
ENDBRANCH  21  23
ENDBRANCH   3  21
TORSDOF 8
ENDMDL
MODEL 4
REMARK VINA RESULT:    -7.473      2.954      3.934
REMARK INTER + INTRA:         -12.174
REMARK INTER:                 -11.014
REMARK INTRA:                  -1.159
REMARK UNBOUND:                -1.424
REMARK  Name = 
REMARK  9 active torsions:
REMARK  status: ('A' for Active; 'I' for Inactive)
REMARK    1  A    between atoms: C_1  and  C_2
REMARK    2  A    between atoms: C_2  and  N_3
REMARK    3  A    between atoms: N_3  and  C_4
REMARK    4  A    between atoms: C_6  and  N_7
REMARK    5  A    between atoms: N_7  and  C_8
REMARK    6  A    between atoms: C_8  and  C_9
REMARK    7  A    between atoms: C_9  and  C_12
REMARK    8  A    between atoms: C_19  and  C_20
REMARK    9  A    between atoms: C_25  and  O_26
REMARK                            x       y       z     vdW  Elec       q    Type
REMARK                         _______ _______ _______ _____ _____    ______ ____
ROOT
ATOM      1  C   UNL     1      46.978   7.265  13.000  0.00  0.00    +0.000 A 
ATOM      2  C   UNL     1      46.056   6.818  12.041  0.00  0.00    +0.000 A 
ATOM      3  C   UNL     1      45.525   5.513  12.065  0.00  0.00    +0.000 A 
ATOM      4  C   UNL     1      45.898   4.676  13.118  0.00  0.00    +0.000 A 
ATOM      5  C   UNL     1      46.838   5.086  14.066  0.00  0.00    +0.000 A 
ATOM      6  C   UNL     1      47.368   6.377  14.011  0.00  0.00    +0.000 A 
ENDROOT
BRANCH   5   7
ATOM      7  C   UNL     1      47.229   4.111  15.115  0.00  0.00    +0.000 C 
ATOM      8  N   UNL     1      47.209   4.544  16.410  0.00  0.00    +0.000 N 
ATOM      9  O   UNL     1      47.617   2.981  14.834  0.00  0.00    +0.000 OA
ATOM     10  H   UNL     1      47.145   5.521  16.654  0.00  0.00    +0.000 HD
ATOM     11  H   UNL     1      47.612   3.916  17.093  0.00  0.00    +0.000 HD
ENDBRANCH   5   7
BRANCH   1  12
ATOM     12  N   UNL     1      47.446   8.596  13.090  0.00  0.00    +0.000 N 
ATOM     13  H   UNL     1      47.403   8.935  14.050  0.00  0.00    +0.000 HD
BRANCH  12  15
ATOM     14  C   UNL     1      47.765  10.302  11.345  0.00  0.00    +0.000 C 
ATOM     15  C   UNL     1      48.414   9.303  12.286  0.00  0.00    +0.000 C 
ATOM     16  C   UNL     1      49.667   9.762  13.076  0.00  0.00    +0.000 C 
ATOM     17  C   UNL     1      50.407   8.487  12.627  0.00  0.00    +0.000 C 
ATOM     18  C   UNL     1      49.322   8.268  11.557  0.00  0.00    +0.000 C 
BRANCH  17  19
ATOM     19  O   UNL     1      50.545   7.438  13.605  0.00  0.00    +0.000 OA
ATOM     20  H   UNL     1      51.277   7.727  14.178  0.00  0.00    +0.000 HD
ENDBRANCH  17  19
ENDBRANCH  12  15
ENDBRANCH   1  12
BRANCH   3  21
ATOM     21  N   UNL     1      44.608   5.137  11.069  0.00  0.00    +0.000 N 
ATOM     22  H   UNL     1      44.401   5.933  10.464  0.00  0.00    +0.000 HD
BRANCH  21  23
ATOM     23  C   UNL     1      44.851   3.886  10.315  0.00  0.00    +0.000 C 
BRANCH  23  24
ATOM     24  C   UNL     1      45.185   4.096   8.820  0.00  0.00    +0.000 C 
ATOM     25  F   UNL     1      44.006   4.342   8.163  0.00  0.00    +0.000 F 
ATOM     26  F   UNL     1      45.886   5.268   8.721  0.00  0.00    +0.000 F 
BRANCH  24  27
ATOM     27  C   UNL     1      45.935   2.954   8.221  0.00  0.00    +0.000 A 
ATOM     28  C   UNL     1      45.700   1.644   8.588  0.00  0.00    +0.000 A 
ATOM     29  N   UNL     1      46.367   0.595   8.078  0.00  0.00    +0.000 NA
ATOM     30  C   UNL     1      47.304   0.888   7.163  0.00  0.00    +0.000 A 
ATOM     31  N   UNL     1      47.617   2.117   6.723  0.00  0.00    +0.000 NA
ATOM     32  C   UNL     1      46.915   3.128   7.270  0.00  0.00    +0.000 A 
ENDBRANCH  24  27
ENDBRANCH  23  24
ENDBRANCH  21  23
ENDBRANCH   3  21
TORSDOF 8
ENDMDL
MODEL 5
REMARK VINA RESULT:    -7.337      3.239      5.581
REMARK INTER + INTRA:         -11.977
REMARK INTER:                 -11.325
REMARK INTRA:                  -0.652
REMARK UNBOUND:                -1.424
REMARK  Name = 
REMARK  9 active torsions:
REMARK  status: ('A' for Active; 'I' for Inactive)
REMARK    1  A    between atoms: C_1  and  C_2
REMARK    2  A    between atoms: C_2  and  N_3
REMARK    3  A    between atoms: N_3  and  C_4
REMARK    4  A    between atoms: C_6  and  N_7
REMARK    5  A    between atoms: N_7  and  C_8
REMARK    6  A    between atoms: C_8  and  C_9
REMARK    7  A    between atoms: C_9  and  C_12
REMARK    8  A    between atoms: C_19  and  C_20
REMARK    9  A    between atoms: C_25  and  O_26
REMARK                            x       y       z     vdW  Elec       q    Type
REMARK                         _______ _______ _______ _____ _____    ______ ____
ROOT
ATOM      1  C   UNL     1      46.922   4.585  14.482  0.00  0.00    +0.000 A 
ATOM      2  C   UNL     1      45.917   4.466  13.509  0.00  0.00    +0.000 A 
ATOM      3  C   UNL     1      45.867   5.307  12.379  0.00  0.00    +0.000 A 
ATOM      4  C   UNL     1      46.890   6.241  12.215  0.00  0.00    +0.000 A 
ATOM      5  C   UNL     1      47.882   6.402  13.185  0.00  0.00    +0.000 A 
ATOM      6  C   UNL     1      47.901   5.572  14.307  0.00  0.00    +0.000 A 
ENDROOT
BRANCH   5   7
ATOM      7  C   UNL     1      48.896   7.465  12.964  0.00  0.00    +0.000 C 
ATOM      8  N   UNL     1      50.005   7.129  12.242  0.00  0.00    +0.000 N 
ATOM      9  O   UNL     1      48.780   8.580  13.461  0.00  0.00    +0.000 OA
ATOM     10  H   UNL     1      50.252   6.172  12.040  0.00  0.00    +0.000 HD
ATOM     11  H   UNL     1      50.746   7.819  12.223  0.00  0.00    +0.000 HD
ENDBRANCH   5   7
BRANCH   1  12
ATOM     12  N   UNL     1      47.086   3.693  15.566  0.00  0.00    +0.000 N 
ATOM     13  H   UNL     1      47.218   2.737  15.236  0.00  0.00    +0.000 HD
BRANCH  12  15
ATOM     14  C   UNL     1      46.939   5.057  17.610  0.00  0.00    +0.000 C 
ATOM     15  C   UNL     1      47.628   3.914  16.885  0.00  0.00    +0.000 C 
ATOM     16  C   UNL     1      47.891   2.609  17.680  0.00  0.00    +0.000 C 
ATOM     17  C   UNL     1      49.358   2.627  17.207  0.00  0.00    +0.000 C 
ATOM     18  C   UNL     1      49.171   4.093  16.777  0.00  0.00    +0.000 C 
BRANCH  17  19
ATOM     19  O   UNL     1      49.713   1.705  16.158  0.00  0.00    +0.000 OA
ATOM     20  H   UNL     1      49.600   0.823  16.553  0.00  0.00    +0.000 HD
ENDBRANCH  17  19
ENDBRANCH  12  15
ENDBRANCH   1  12
BRANCH   3  21
ATOM     21  N   UNL     1      44.830   5.128  11.449  0.00  0.00    +0.000 N 
ATOM     22  H   UNL     1      44.670   5.993  10.931  0.00  0.00    +0.000 HD
BRANCH  21  23
ATOM     23  C   UNL     1      44.854   3.930  10.577  0.00  0.00    +0.000 C 
BRANCH  23  24
ATOM     24  C   UNL     1      45.116   4.232   9.084  0.00  0.00    +0.000 C 
ATOM     25  F   UNL     1      43.904   4.491   8.495  0.00  0.00    +0.000 F 
ATOM     26  F   UNL     1      45.792   5.422   9.022  0.00  0.00    +0.000 F 
BRANCH  24  27
ATOM     27  C   UNL     1      45.858   3.142   8.386  0.00  0.00    +0.000 A 
ATOM     28  C   UNL     1      46.754   3.395   7.367  0.00  0.00    +0.000 A 
ATOM     29  N   UNL     1      47.427   2.436   6.710  0.00  0.00    +0.000 NA
ATOM     30  C   UNL     1      47.181   1.177   7.103  0.00  0.00    +0.000 A 
ATOM     31  N   UNL     1      46.339   0.807   8.082  0.00  0.00    +0.000 NA
ATOM     32  C   UNL     1      45.693   1.812   8.704  0.00  0.00    +0.000 A 
ENDBRANCH  24  27
ENDBRANCH  23  24
ENDBRANCH  21  23
ENDBRANCH   3  21
TORSDOF 8
ENDMDL
MODEL 6
REMARK VINA RESULT:    -7.158      1.620      4.427
REMARK INTER + INTRA:         -11.721
REMARK INTER:                 -10.431
REMARK INTRA:                  -1.290
REMARK UNBOUND:                -1.424
REMARK  Name = 
REMARK  9 active torsions:
REMARK  status: ('A' for Active; 'I' for Inactive)
REMARK    1  A    between atoms: C_1  and  C_2
REMARK    2  A    between atoms: C_2  and  N_3
REMARK    3  A    between atoms: N_3  and  C_4
REMARK    4  A    between atoms: C_6  and  N_7
REMARK    5  A    between atoms: N_7  and  C_8
REMARK    6  A    between atoms: C_8  and  C_9
REMARK    7  A    between atoms: C_9  and  C_12
REMARK    8  A    between atoms: C_19  and  C_20
REMARK    9  A    between atoms: C_25  and  O_26
REMARK                            x       y       z     vdW  Elec       q    Type
REMARK                         _______ _______ _______ _____ _____    ______ ____
ROOT
ATOM      1  C   UNL     1      47.491   6.770  13.446  0.00  0.00    +0.000 A 
ATOM      2  C   UNL     1      46.729   5.596  13.556  0.00  0.00    +0.000 A 
ATOM      3  C   UNL     1      45.397   5.523  13.099  0.00  0.00    +0.000 A 
ATOM      4  C   UNL     1      44.861   6.649  12.471  0.00  0.00    +0.000 A 
ATOM      5  C   UNL     1      45.586   7.838  12.380  0.00  0.00    +0.000 A 
ATOM      6  C   UNL     1      46.897   7.894  12.858  0.00  0.00    +0.000 A 
ENDROOT
BRANCH   5   7
ATOM      7  C   UNL     1      44.917   9.007  11.756  0.00  0.00    +0.000 C 
ATOM      8  N   UNL     1      43.791   8.765  11.023  0.00  0.00    +0.000 N 
ATOM      9  O   UNL     1      45.386  10.139  11.837  0.00  0.00    +0.000 OA
ATOM     10  H   UNL     1      43.525   7.838  10.727  0.00  0.00    +0.000 HD
ATOM     11  H   UNL     1      43.431   9.548  10.492  0.00  0.00    +0.000 HD
ENDBRANCH   5   7
BRANCH   1  12
ATOM     12  N   UNL     1      48.862   6.858  13.777  0.00  0.00    +0.000 N 
ATOM     13  H   UNL     1      49.447   6.622  12.976  0.00  0.00    +0.000 HD
BRANCH  12  15
ATOM     14  C   UNL     1      50.535   8.635  14.098  0.00  0.00    +0.000 C 
ATOM     15  C   UNL     1      49.539   7.687  14.745  0.00  0.00    +0.000 C 
ATOM     16  C   UNL     1      48.605   8.259  15.842  0.00  0.00    +0.000 C 
ATOM     17  C   UNL     1      48.984   7.084  16.765  0.00  0.00    +0.000 C 
ATOM     18  C   UNL     1      50.175   6.777  15.838  0.00  0.00    +0.000 C 
BRANCH  17  19
ATOM     19  O   UNL     1      48.011   6.031  16.907  0.00  0.00    +0.000 OA
ATOM     20  H   UNL     1      47.160   6.491  17.016  0.00  0.00    +0.000 HD
ENDBRANCH  17  19
ENDBRANCH  12  15
ENDBRANCH   1  12
BRANCH   3  21
ATOM     21  N   UNL     1      44.697   4.314  13.244  0.00  0.00    +0.000 N 
ATOM     22  H   UNL     1      43.697   4.497  13.336  0.00  0.00    +0.000 HD
BRANCH  21  23
ATOM     23  C   UNL     1      44.997   3.202  12.312  0.00  0.00    +0.000 C 
BRANCH  23  24
ATOM     24  C   UNL     1      44.094   3.158  11.059  0.00  0.00    +0.000 C 
ATOM     25  F   UNL     1      43.348   2.009  11.126  0.00  0.00    +0.000 F 
ATOM     26  F   UNL     1      43.180   4.171  11.180  0.00  0.00    +0.000 F 
BRANCH  24  27
ATOM     27  C   UNL     1      44.858   3.258   9.782  0.00  0.00    +0.000 A 
ATOM     28  C   UNL     1      45.305   2.144   9.101  0.00  0.00    +0.000 A 
ATOM     29  N   UNL     1      46.007   2.199   7.956  0.00  0.00    +0.000 NA
ATOM     30  C   UNL     1      46.263   3.431   7.489  0.00  0.00    +0.000 A 
ATOM     31  N   UNL     1      45.878   4.585   8.057  0.00  0.00    +0.000 NA
ATOM     32  C   UNL     1      45.177   4.465   9.201  0.00  0.00    +0.000 A 
ENDBRANCH  24  27
ENDBRANCH  23  24
ENDBRANCH  21  23
ENDBRANCH   3  21
TORSDOF 8
ENDMDL
MODEL 7
REMARK VINA RESULT:    -7.075      2.823      5.429
REMARK INTER + INTRA:         -11.600
REMARK INTER:                 -10.846
REMARK INTRA:                  -0.754
REMARK UNBOUND:                -1.424
REMARK  Name = 
REMARK  9 active torsions:
REMARK  status: ('A' for Active; 'I' for Inactive)
REMARK    1  A    between atoms: C_1  and  C_2
REMARK    2  A    between atoms: C_2  and  N_3
REMARK    3  A    between atoms: N_3  and  C_4
REMARK    4  A    between atoms: C_6  and  N_7
REMARK    5  A    between atoms: N_7  and  C_8
REMARK    6  A    between atoms: C_8  and  C_9
REMARK    7  A    between atoms: C_9  and  C_12
REMARK    8  A    between atoms: C_19  and  C_20
REMARK    9  A    between atoms: C_25  and  O_26
REMARK                            x       y       z     vdW  Elec       q    Type
REMARK                         _______ _______ _______ _____ _____    ______ ____
ROOT
ATOM      1  C   UNL     1      47.839   5.499  15.112  0.00  0.00    +0.000 A 
ATOM      2  C   UNL     1      46.764   4.688  14.716  0.00  0.00    +0.000 A 
ATOM      3  C   UNL     1      46.038   4.934  13.533  0.00  0.00    +0.000 A 
ATOM      4  C   UNL     1      46.455   5.988  12.718  0.00  0.00    +0.000 A 
ATOM      5  C   UNL     1      47.500   6.829  13.106  0.00  0.00    +0.000 A 
ATOM      6  C   UNL     1      48.193   6.579  14.293  0.00  0.00    +0.000 A 
ENDROOT
BRANCH   5   7
ATOM      7  C   UNL     1      47.837   7.966  12.214  0.00  0.00    +0.000 C 
ATOM      8  N   UNL     1      46.929   8.981  12.125  0.00  0.00    +0.000 N 
ATOM      9  O   UNL     1      48.857   7.971  11.531  0.00  0.00    +0.000 OA
ATOM     10  H   UNL     1      45.983   8.894  12.466  0.00  0.00    +0.000 HD
ATOM     11  H   UNL     1      47.107   9.674  11.410  0.00  0.00    +0.000 HD
ENDBRANCH   5   7
BRANCH   1  12
ATOM     12  N   UNL     1      48.672   5.225  16.221  0.00  0.00    +0.000 N 
ATOM     13  H   UNL     1      49.381   5.949  16.332  0.00  0.00    +0.000 HD
BRANCH  12  15
ATOM     14  C   UNL     1      47.941   5.439  18.561  0.00  0.00    +0.000 C 
ATOM     15  C   UNL     1      48.395   4.514  17.445  0.00  0.00    +0.000 C 
ATOM     16  C   UNL     1      47.613   3.192  17.239  0.00  0.00    +0.000 C 
ATOM     17  C   UNL     1      48.944   2.415  17.231  0.00  0.00    +0.000 C 
ATOM     18  C   UNL     1      49.638   3.654  17.825  0.00  0.00    +0.000 C 
BRANCH  17  19
ATOM     19  O   UNL     1      49.433   1.977  15.948  0.00  0.00    +0.000 OA
ATOM     20  H   UNL     1      48.687   1.493  15.551  0.00  0.00    +0.000 HD
ENDBRANCH  17  19
ENDBRANCH  12  15
ENDBRANCH   1  12
BRANCH   3  21
ATOM     21  N   UNL     1      44.973   4.079  13.203  0.00  0.00    +0.000 N 
ATOM     22  H   UNL     1      44.109   4.615  13.108  0.00  0.00    +0.000 HD
BRANCH  21  23
ATOM     23  C   UNL     1      45.163   3.095  12.112  0.00  0.00    +0.000 C 
BRANCH  23  24
ATOM     24  C   UNL     1      44.261   3.327  10.878  0.00  0.00    +0.000 C 
ATOM     25  F   UNL     1      43.263   2.387  10.913  0.00  0.00    +0.000 F 
ATOM     26  F   UNL     1      43.618   4.521  11.063  0.00  0.00    +0.000 F 
BRANCH  24  27
ATOM     27  C   UNL     1      45.012   3.300   9.590  0.00  0.00    +0.000 A 
ATOM     28  C   UNL     1      45.461   2.125   9.022  0.00  0.00    +0.000 A 
ATOM     29  N   UNL     1      46.152   2.067   7.871  0.00  0.00    +0.000 NA
ATOM     30  C   UNL     1      46.394   3.246   7.277  0.00  0.00    +0.000 A 
ATOM     31  N   UNL     1      46.005   4.450   7.727  0.00  0.00    +0.000 NA
ATOM     32  C   UNL     1      45.316   4.444   8.885  0.00  0.00    +0.000 A 
ENDBRANCH  24  27
ENDBRANCH  23  24
ENDBRANCH  21  23
ENDBRANCH   3  21
TORSDOF 8
ENDMDL
MODEL 8
REMARK VINA RESULT:    -6.991      4.165      6.380
REMARK INTER + INTRA:         -11.480
REMARK INTER:                 -10.682
REMARK INTRA:                  -0.798
REMARK UNBOUND:                -1.424
REMARK  Name = 
REMARK  9 active torsions:
REMARK  status: ('A' for Active; 'I' for Inactive)
REMARK    1  A    between atoms: C_1  and  C_2
REMARK    2  A    between atoms: C_2  and  N_3
REMARK    3  A    between atoms: N_3  and  C_4
REMARK    4  A    between atoms: C_6  and  N_7
REMARK    5  A    between atoms: N_7  and  C_8
REMARK    6  A    between atoms: C_8  and  C_9
REMARK    7  A    between atoms: C_9  and  C_12
REMARK    8  A    between atoms: C_19  and  C_20
REMARK    9  A    between atoms: C_25  and  O_26
REMARK                            x       y       z     vdW  Elec       q    Type
REMARK                         _______ _______ _______ _____ _____    ______ ____
ROOT
ATOM      1  C   UNL     1      46.477   6.314  12.015  0.00  0.00    +0.000 A 
ATOM      2  C   UNL     1      46.581   5.883  13.347  0.00  0.00    +0.000 A 
ATOM      3  C   UNL     1      47.718   6.156  14.134  0.00  0.00    +0.000 A 
ATOM      4  C   UNL     1      48.734   6.928  13.568  0.00  0.00    +0.000 A 
ATOM      5  C   UNL     1      48.669   7.340  12.235  0.00  0.00    +0.000 A 
ATOM      6  C   UNL     1      47.542   7.041  11.467  0.00  0.00    +0.000 A 
ENDROOT
BRANCH   5   7
ATOM      7  C   UNL     1      49.822   8.102  11.692  0.00  0.00    +0.000 C 
ATOM      8  N   UNL     1      50.944   7.392  11.372  0.00  0.00    +0.000 N 
ATOM      9  O   UNL     1      49.798   9.324  11.592  0.00  0.00    +0.000 OA
ATOM     10  H   UNL     1      51.089   6.440  11.674  0.00  0.00    +0.000 HD
ATOM     11  H   UNL     1      51.762   7.940  11.139  0.00  0.00    +0.000 HD
ENDBRANCH   5   7
BRANCH   1  12
ATOM     12  N   UNL     1      45.314   6.171  11.225  0.00  0.00    +0.000 N 
ATOM     13  H   UNL     1      45.272   6.890  10.503  0.00  0.00    +0.000 HD
BRANCH  12  15
ATOM     14  C   UNL     1      44.953   4.399   9.556  0.00  0.00    +0.000 C 
ATOM     15  C   UNL     1      44.547   4.994  10.893  0.00  0.00    +0.000 C 
ATOM     16  C   UNL     1      44.342   4.024  12.084  0.00  0.00    +0.000 C 
ATOM     17  C   UNL     1      42.979   4.682  12.373  0.00  0.00    +0.000 C 
ATOM     18  C   UNL     1      43.030   5.335  10.980  0.00  0.00    +0.000 C 
BRANCH  17  19
ATOM     19  O   UNL     1      42.920   5.590  13.491  0.00  0.00    +0.000 OA
ATOM     20  H   UNL     1      41.978   5.822  13.573  0.00  0.00    +0.000 HD
ENDBRANCH  17  19
ENDBRANCH  12  15
ENDBRANCH   1  12
BRANCH   3  21
ATOM     21  N   UNL     1      47.751   5.691  15.459  0.00  0.00    +0.000 N 
ATOM     22  H   UNL     1      47.450   6.429  16.097  0.00  0.00    +0.000 HD
BRANCH  21  23
ATOM     23  C   UNL     1      47.141   4.377  15.768  0.00  0.00    +0.000 C 
BRANCH  23  24
ATOM     24  C   UNL     1      47.497   3.820  17.166  0.00  0.00    +0.000 C 
ATOM     25  F   UNL     1      47.287   4.824  18.077  0.00  0.00    +0.000 F 
ATOM     26  F   UNL     1      46.561   2.871  17.476  0.00  0.00    +0.000 F 
BRANCH  24  27
ATOM     27  C   UNL     1      48.882   3.272  17.242  0.00  0.00    +0.000 A 
ATOM     28  C   UNL     1      49.886   3.902  17.951  0.00  0.00    +0.000 A 
ATOM     29  N   UNL     1      51.147   3.443  18.029  0.00  0.00    +0.000 NA
ATOM     30  C   UNL     1      51.394   2.304  17.364  0.00  0.00    +0.000 A 
ATOM     31  N   UNL     1      50.502   1.600  16.648  0.00  0.00    +0.000 NA
ATOM     32  C   UNL     1      49.256   2.109  16.607  0.00  0.00    +0.000 A 
ENDBRANCH  24  27
ENDBRANCH  23  24
ENDBRANCH  21  23
ENDBRANCH   3  21
TORSDOF 8
ENDMDL
MODEL 9
REMARK VINA RESULT:    -6.654      2.834      3.702
REMARK INTER + INTRA:         -10.995
REMARK INTER:                 -10.059
REMARK INTRA:                  -0.936
REMARK UNBOUND:                -1.424
REMARK  Name = 
REMARK  9 active torsions:
REMARK  status: ('A' for Active; 'I' for Inactive)
REMARK    1  A    between atoms: C_1  and  C_2
REMARK    2  A    between atoms: C_2  and  N_3
REMARK    3  A    between atoms: N_3  and  C_4
REMARK    4  A    between atoms: C_6  and  N_7
REMARK    5  A    between atoms: N_7  and  C_8
REMARK    6  A    between atoms: C_8  and  C_9
REMARK    7  A    between atoms: C_9  and  C_12
REMARK    8  A    between atoms: C_19  and  C_20
REMARK    9  A    between atoms: C_25  and  O_26
REMARK                            x       y       z     vdW  Elec       q    Type
REMARK                         _______ _______ _______ _____ _____    ______ ____
ROOT
ATOM      1  C   UNL     1      47.942   6.753  13.946  0.00  0.00    +0.000 A 
ATOM      2  C   UNL     1      46.888   6.364  13.105  0.00  0.00    +0.000 A 
ATOM      3  C   UNL     1      46.161   5.176  13.318  0.00  0.00    +0.000 A 
ATOM      4  C   UNL     1      46.480   4.408  14.439  0.00  0.00    +0.000 A 
ATOM      5  C   UNL     1      47.545   4.756  15.272  0.00  0.00    +0.000 A 
ATOM      6  C   UNL     1      48.267   5.926  15.030  0.00  0.00    +0.000 A 
ENDROOT
BRANCH   5   7
ATOM      7  C   UNL     1      47.859   3.848  16.405  0.00  0.00    +0.000 C 
ATOM      8  N   UNL     1      46.811   3.405  17.159  0.00  0.00    +0.000 N 
ATOM      9  O   UNL     1      49.015   3.556  16.696  0.00  0.00    +0.000 OA
ATOM     10  H   UNL     1      45.892   3.819  17.107  0.00  0.00    +0.000 HD
ATOM     11  H   UNL     1      47.054   2.906  18.005  0.00  0.00    +0.000 HD
ENDBRANCH   5   7
BRANCH   1  12
ATOM     12  N   UNL     1      48.622   7.988  13.847  0.00  0.00    +0.000 N 
ATOM     13  H   UNL     1      49.097   8.216  14.720  0.00  0.00    +0.000 HD
BRANCH  12  15
ATOM     14  C   UNL     1      49.945   7.684  11.794  0.00  0.00    +0.000 C 
ATOM     15  C   UNL     1      49.201   8.648  12.702  0.00  0.00    +0.000 C 
ATOM     16  C   UNL     1      48.264   9.688  12.037  0.00  0.00    +0.000 C 
ATOM     17  C   UNL     1      48.931  10.805  12.865  0.00  0.00    +0.000 C 
ATOM     18  C   UNL     1      50.082   9.836  13.191  0.00  0.00    +0.000 C 
BRANCH  17  19
ATOM     19  O   UNL     1      48.190  11.305  13.996  0.00  0.00    +0.000 OA
ATOM     20  H   UNL     1      48.323  12.269  13.972  0.00  0.00    +0.000 HD
ENDBRANCH  17  19
ENDBRANCH  12  15
ENDBRANCH   1  12
BRANCH   3  21
ATOM     21  N   UNL     1      45.119   4.853  12.433  0.00  0.00    +0.000 N 
ATOM     22  H   UNL     1      45.165   5.448  11.604  0.00  0.00    +0.000 HD
BRANCH  21  23
ATOM     23  C   UNL     1      44.879   3.428  12.107  0.00  0.00    +0.000 C 
BRANCH  23  24
ATOM     24  C   UNL     1      44.061   3.197  10.816  0.00  0.00    +0.000 C 
ATOM     25  F   UNL     1      43.384   2.013  10.960  0.00  0.00    +0.000 F 
ATOM     26  F   UNL     1      43.081   4.153  10.778  0.00  0.00    +0.000 F 
BRANCH  24  27
ATOM     27  C   UNL     1      44.897   3.219   9.581  0.00  0.00    +0.000 A 
ATOM     28  C   UNL     1      45.412   2.068   9.019  0.00  0.00    +0.000 A 
ATOM     29  N   UNL     1      46.181   2.054   7.916  0.00  0.00    +0.000 NA
ATOM     30  C   UNL     1      46.432   3.252   7.366  0.00  0.00    +0.000 A 
ATOM     31  N   UNL     1      45.984   4.435   7.816  0.00  0.00    +0.000 NA
ATOM     32  C   UNL     1      45.219   4.386   8.923  0.00  0.00    +0.000 A 
ENDBRANCH  24  27
ENDBRANCH  23  24
ENDBRANCH  21  23
ENDBRANCH   3  21
TORSDOF 8
ENDMDL
