MODEL 1
REMARK VINA RESULT:    -8.065      0.000      0.000
REMARK INTER + INTRA:         -12.940
REMARK INTER:                 -12.073
REMARK INTRA:                  -0.867
REMARK UNBOUND:                -0.867
REMARK  Name = 
REMARK  10 active torsions:
REMARK  status: ('A' for Active; 'I' for Inactive)
REMARK    1  A    between atoms: C_1  and  C_2
REMARK    2  A    between atoms: C_2  and  N_3
REMARK    3  A    between atoms: C_2  and  C_19
REMARK    4  A    between atoms: N_3  and  C_4
REMARK    5  A    between atoms: C_4  and  C_5
REMARK    6  A    between atoms: C_8  and  C_9
REMARK    7  A    between atoms: C_9  and  O_10
REMARK    8  A    between atoms: C_9  and  C_11
REMARK    9  A    between atoms: C_11  and  N_12
REMARK   10  A    between atoms: C_19  and  C_21
REMARK                            x       y       z     vdW  Elec       q    Type
REMARK                         _______ _______ _______ _____ _____    ______ ____
ROOT
ATOM      1  N   UNL     1      47.938   5.444  15.815  0.00  0.00    +0.000 NA
ATOM      2  H   UNL     1      48.062   4.468  15.530  0.00  0.00    +0.000 HD
ENDROOT
BRANCH   1   4
ATOM      3  C   UNL     1      48.651   7.080  17.500  0.00  0.00    +0.000 C 
ATOM      4  C   UNL     1      49.027   5.799  16.757  0.00  0.00    +0.000 C 
BRANCH   4   5
ATOM      5  C   UNL     1      49.305   4.632  17.745  0.00  0.00    +0.000 C 
ATOM      6  O   UNL     1      48.379   4.030  18.291  0.00  0.00    +0.000 OA
BRANCH   5   7
ATOM      7  C   UNL     1      50.703   4.263  18.004  0.00  0.00    +0.000 A 
ATOM      8  C   UNL     1      51.612   5.124  18.595  0.00  0.00    +0.000 A 
ATOM      9  S   UNL     1      53.122   4.394  18.918  0.00  0.00    +0.000 S 
ATOM     10  C   UNL     1      52.601   2.908  18.266  0.00  0.00    +0.000 A 
ATOM     11  N   UNL     1      53.410   1.814  18.293  0.00  0.00    +0.000 NA
ATOM     12  C   UNL     1      52.873   0.754  17.787  0.00  0.00    +0.000 A 
ATOM     13  N   UNL     1      51.626   0.697  17.221  0.00  0.00    +0.000 N 
ATOM     14  C   UNL     1      50.851   1.826  17.019  0.00  0.00    +0.000 A 
ATOM     15  O   UNL     1      49.920   1.829  16.220  0.00  0.00    +0.000 OA
ATOM     16  C   UNL     1      51.334   2.995  17.732  0.00  0.00    +0.000 A 
ATOM     17  H   UNL     1      51.316  -0.137  16.749  0.00  0.00    +0.000 HD
ENDBRANCH   5   7
ENDBRANCH   4   5
ENDBRANCH   1   4
BRANCH   1  18
ATOM     18  C   UNL     1      48.020   6.288  14.617  0.00  0.00    +0.000 C 
BRANCH  18  19
ATOM     19  C   UNL     1      47.128   5.810  13.514  0.00  0.00    +0.000 A 
ATOM     20  C   UNL     1      46.331   4.673  13.640  0.00  0.00    +0.000 A 
ATOM     21  C   UNL     1      45.487   4.304  12.596  0.00  0.00    +0.000 A 
ATOM     22  C   UNL     1      45.465   5.083  11.438  0.00  0.00    +0.000 A 
ATOM     23  N   UNL     1      46.208   6.213  11.318  0.00  0.00    +0.000 NA
ATOM     24  C   UNL     1      47.020   6.544  12.341  0.00  0.00    +0.000 A 
BRANCH  22  25
ATOM     25  C   UNL     1      44.693   4.666  10.198  0.00  0.00    +0.000 C 
BRANCH  25  26
ATOM     26  O   UNL     1      43.464   5.403  10.112  0.00  0.00    +0.000 OA
ATOM     27  H   UNL     1      42.984   5.283  10.944  0.00  0.00    +0.000 HD
ENDBRANCH  25  26
BRANCH  25  28
ATOM     28  C   UNL     1      45.513   4.799   8.885  0.00  0.00    +0.000 C 
BRANCH  28  29
ATOM     29  N   UNL     1      45.166   3.810   7.836  0.00  0.00    +0.000 NA
ATOM     30  C   UNL     1      44.713   2.515   8.363  0.00  0.00    +0.000 C 
ATOM     31  C   UNL     1      45.968   1.678   8.499  0.00  0.00    +0.000 C 
ATOM     32  C   UNL     1      46.807   2.111   7.315  0.00  0.00    +0.000 C 
ATOM     33  C   UNL     1      46.313   3.511   6.964  0.00  0.00    +0.000 C 
ENDBRANCH  28  29
ENDBRANCH  25  28
ENDBRANCH  22  25
ENDBRANCH  18  19
ENDBRANCH   1  18
TORSDOF 9
ENDMDL
MODEL 2
REMARK VINA RESULT:    -7.192      2.728      9.060
REMARK INTER + INTRA:         -11.632
REMARK INTER:                 -10.467
REMARK INTRA:                  -1.165
REMARK UNBOUND:                -0.867
REMARK  Name = 
REMARK  10 active torsions:
REMARK  status: ('A' for Active; 'I' for Inactive)
REMARK    1  A    between atoms: C_1  and  C_2
REMARK    2  A    between atoms: C_2  and  N_3
REMARK    3  A    between atoms: C_2  and  C_19
REMARK    4  A    between atoms: N_3  and  C_4
REMARK    5  A    between atoms: C_4  and  C_5
REMARK    6  A    between atoms: C_8  and  C_9
REMARK    7  A    between atoms: C_9  and  O_10
REMARK    8  A    between atoms: C_9  and  C_11
REMARK    9  A    between atoms: C_11  and  N_12
REMARK   10  A    between atoms: C_19  and  C_21
REMARK                            x       y       z     vdW  Elec       q    Type
REMARK                         _______ _______ _______ _____ _____    ______ ____
ROOT
ATOM      1  N   UNL     1      46.690   6.210  12.419  0.00  0.00    +0.000 NA
ATOM      2  H   UNL     1      46.445   5.296  12.811  0.00  0.00    +0.000 HD
ENDROOT
BRANCH   1   4
ATOM      3  C   UNL     1      45.915   8.523  12.145  0.00  0.00    +0.000 C 
ATOM      4  C   UNL     1      45.513   7.104  12.543  0.00  0.00    +0.000 C 
BRANCH   4   5
ATOM      5  C   UNL     1      44.332   6.586  11.676  0.00  0.00    +0.000 C 
ATOM      6  O   UNL     1      43.534   7.370  11.159  0.00  0.00    +0.000 OA
BRANCH   5   7
ATOM      7  C   UNL     1      44.198   5.136  11.485  0.00  0.00    +0.000 A 
ATOM      8  C   UNL     1      43.569   4.311  12.401  0.00  0.00    +0.000 A 
ATOM      9  S   UNL     1      43.418   2.697  11.863  0.00  0.00    +0.000 S 
ATOM     10  C   UNL     1      44.200   3.059  10.393  0.00  0.00    +0.000 A 
ATOM     11  N   UNL     1      44.343   2.109   9.428  0.00  0.00    +0.000 NA
ATOM     12  C   UNL     1      44.931   2.535   8.360  0.00  0.00    +0.000 A 
ATOM     13  N   UNL     1      45.426   3.800   8.184  0.00  0.00    +0.000 N 
ATOM     14  C   UNL     1      45.455   4.733   9.206  0.00  0.00    +0.000 A 
ATOM     15  O   UNL     1      46.193   5.712   9.159  0.00  0.00    +0.000 OA
ATOM     16  C   UNL     1      44.646   4.362  10.353  0.00  0.00    +0.000 A 
ATOM     17  H   UNL     1      45.969   4.029   7.367  0.00  0.00    +0.000 HD
ENDBRANCH   5   7
ENDBRANCH   4   5
ENDBRANCH   1   4
BRANCH   1  18
ATOM     18  C   UNL     1      47.814   6.756  13.189  0.00  0.00    +0.000 C 
BRANCH  18  19
ATOM     19  C   UNL     1      47.954   6.117  14.534  0.00  0.00    +0.000 A 
ATOM     20  C   UNL     1      48.684   6.705  15.567  0.00  0.00    +0.000 A 
ATOM     21  C   UNL     1      48.740   6.085  16.812  0.00  0.00    +0.000 A 
ATOM     22  C   UNL     1      48.064   4.877  16.995  0.00  0.00    +0.000 A 
ATOM     23  N   UNL     1      47.320   4.313  16.011  0.00  0.00    +0.000 NA
ATOM     24  C   UNL     1      47.287   4.932  14.814  0.00  0.00    +0.000 A 
BRANCH  22  25
ATOM     25  C   UNL     1      48.201   4.061  18.269  0.00  0.00    +0.000 C 
BRANCH  25  26
ATOM     26  O   UNL     1      47.368   2.893  18.197  0.00  0.00    +0.000 OA
ATOM     27  H   UNL     1      47.491   2.492  17.325  0.00  0.00    +0.000 HD
ENDBRANCH  25  26
BRANCH  25  28
ATOM     28  C   UNL     1      49.669   3.675  18.602  0.00  0.00    +0.000 C 
BRANCH  28  29
ATOM     29  N   UNL     1      50.515   3.378  17.421  0.00  0.00    +0.000 NA
ATOM     30  C   UNL     1      50.435   1.984  16.965  0.00  0.00    +0.000 C 
ATOM     31  C   UNL     1      51.526   1.253  17.719  0.00  0.00    +0.000 C 
ATOM     32  C   UNL     1      52.634   2.280  17.813  0.00  0.00    +0.000 C 
ATOM     33  C   UNL     1      51.939   3.632  17.689  0.00  0.00    +0.000 C 
ENDBRANCH  28  29
ENDBRANCH  25  28
ENDBRANCH  22  25
ENDBRANCH  18  19
ENDBRANCH   1  18
TORSDOF 9
ENDMDL
MODEL 3
REMARK VINA RESULT:    -7.150      2.081      2.730
REMARK INTER + INTRA:         -11.570
REMARK INTER:                 -10.395
REMARK INTRA:                  -1.175
REMARK UNBOUND:                -0.867
REMARK  Name = 
REMARK  10 active torsions:
REMARK  status: ('A' for Active; 'I' for Inactive)
REMARK    1  A    between atoms: C_1  and  C_2
REMARK    2  A    between atoms: C_2  and  N_3
REMARK    3  A    between atoms: C_2  and  C_19
REMARK    4  A    between atoms: N_3  and  C_4
REMARK    5  A    between atoms: C_4  and  C_5
REMARK    6  A    between atoms: C_8  and  C_9
REMARK    7  A    between atoms: C_9  and  O_10
REMARK    8  A    between atoms: C_9  and  C_11
REMARK    9  A    between atoms: C_11  and  N_12
REMARK   10  A    between atoms: C_19  and  C_21
REMARK                            x       y       z     vdW  Elec       q    Type
REMARK                         _______ _______ _______ _____ _____    ______ ____
ROOT
ATOM      1  N   UNL     1      49.162   6.628  14.328  0.00  0.00    +0.000 NA
ATOM      2  H   UNL     1      49.932   6.380  13.700  0.00  0.00    +0.000 HD
ENDROOT
BRANCH   1   4
ATOM      3  C   UNL     1      49.632   8.780  15.413  0.00  0.00    +0.000 C 
ATOM      4  C   UNL     1      49.735   7.262  15.542  0.00  0.00    +0.000 C 
BRANCH   4   5
ATOM      5  C   UNL     1      49.016   6.753  16.822  0.00  0.00    +0.000 C 
ATOM      6  O   UNL     1      48.536   7.544  17.637  0.00  0.00    +0.000 OA
BRANCH   5   7
ATOM      7  C   UNL     1      48.917   5.302  17.030  0.00  0.00    +0.000 A 
ATOM      8  C   UNL     1      47.730   4.602  16.899  0.00  0.00    +0.000 A 
ATOM      9  S   UNL     1      47.925   2.911  17.046  0.00  0.00    +0.000 S 
ATOM     10  C   UNL     1      49.603   3.074  17.298  0.00  0.00    +0.000 A 
ATOM     11  N   UNL     1      50.396   1.976  17.433  0.00  0.00    +0.000 NA
ATOM     12  C   UNL     1      51.647   2.253  17.593  0.00  0.00    +0.000 A 
ATOM     13  N   UNL     1      52.170   3.517  17.674  0.00  0.00    +0.000 N 
ATOM     14  C   UNL     1      51.373   4.647  17.718  0.00  0.00    +0.000 A 
ATOM     15  O   UNL     1      51.803   5.718  18.135  0.00  0.00    +0.000 OA
ATOM     16  C   UNL     1      49.989   4.395  17.360  0.00  0.00    +0.000 A 
ATOM     17  H   UNL     1      53.140   3.655  17.909  0.00  0.00    +0.000 HD
ENDBRANCH   5   7
ENDBRANCH   4   5
ENDBRANCH   1   4
BRANCH   1  18
ATOM     18  C   UNL     1      48.289   7.581  13.634  0.00  0.00    +0.000 C 
BRANCH  18  19
ATOM     19  C   UNL     1      46.998   6.964  13.195  0.00  0.00    +0.000 A 
ATOM     20  C   UNL     1      46.591   5.702  13.625  0.00  0.00    +0.000 A 
ATOM     21  C   UNL     1      45.358   5.199  13.219  0.00  0.00    +0.000 A 
ATOM     22  C   UNL     1      44.557   5.975  12.380  0.00  0.00    +0.000 A 
ATOM     23  N   UNL     1      44.924   7.220  11.985  0.00  0.00    +0.000 NA
ATOM     24  C   UNL     1      46.124   7.680  12.388  0.00  0.00    +0.000 A 
BRANCH  22  25
ATOM     25  C   UNL     1      43.273   5.440  11.769  0.00  0.00    +0.000 C 
BRANCH  25  26
ATOM     26  O   UNL     1      42.292   6.486  11.687  0.00  0.00    +0.000 OA
ATOM     27  H   UNL     1      41.529   6.141  11.203  0.00  0.00    +0.000 HD
ENDBRANCH  25  26
BRANCH  25  28
ATOM     28  C   UNL     1      43.481   4.766  10.383  0.00  0.00    +0.000 C 
BRANCH  28  29
ATOM     29  N   UNL     1      44.831   4.192  10.171  0.00  0.00    +0.000 NA
ATOM     30  C   UNL     1      45.401   4.481   8.848  0.00  0.00    +0.000 C 
ATOM     31  C   UNL     1      44.959   3.335   7.962  0.00  0.00    +0.000 C 
ATOM     32  C   UNL     1      44.985   2.143   8.895  0.00  0.00    +0.000 C 
ATOM     33  C   UNL     1      44.829   2.726  10.296  0.00  0.00    +0.000 C 
ENDBRANCH  28  29
ENDBRANCH  25  28
ENDBRANCH  22  25
ENDBRANCH  18  19
ENDBRANCH   1  18
TORSDOF 9
ENDMDL
MODEL 4
REMARK VINA RESULT:    -7.067      2.959      4.230
REMARK INTER + INTRA:         -11.445
REMARK INTER:                 -10.038
REMARK INTRA:                  -1.407
REMARK UNBOUND:                -0.867
REMARK  Name = 
REMARK  10 active torsions:
REMARK  status: ('A' for Active; 'I' for Inactive)
REMARK    1  A    between atoms: C_1  and  C_2
REMARK    2  A    between atoms: C_2  and  N_3
REMARK    3  A    between atoms: C_2  and  C_19
REMARK    4  A    between atoms: N_3  and  C_4
REMARK    5  A    between atoms: C_4  and  C_5
REMARK    6  A    between atoms: C_8  and  C_9
REMARK    7  A    between atoms: C_9  and  O_10
REMARK    8  A    between atoms: C_9  and  C_11
REMARK    9  A    between atoms: C_11  and  N_12
REMARK   10  A    between atoms: C_19  and  C_21
REMARK                            x       y       z     vdW  Elec       q    Type
REMARK                         _______ _______ _______ _____ _____    ______ ____
ROOT
ATOM      1  N   UNL     1      47.110   4.794  16.527  0.00  0.00    +0.000 NA
ATOM      2  H   UNL     1      46.089   4.835  16.590  0.00  0.00    +0.000 HD
ENDROOT
BRANCH   1   4
ATOM      3  C   UNL     1      48.282   2.903  17.565  0.00  0.00    +0.000 C 
ATOM      4  C   UNL     1      47.638   4.267  17.809  0.00  0.00    +0.000 C 
BRANCH   4   5
ATOM      5  C   UNL     1      48.647   5.264  18.442  0.00  0.00    +0.000 C 
ATOM      6  O   UNL     1      49.664   4.862  19.010  0.00  0.00    +0.000 OA
BRANCH   5   7
ATOM      7  C   UNL     1      48.358   6.701  18.339  0.00  0.00    +0.000 A 
ATOM      8  C   UNL     1      47.538   7.370  19.232  0.00  0.00    +0.000 A 
ATOM      9  S   UNL     1      47.493   9.057  18.972  0.00  0.00    +0.000 S 
ATOM     10  C   UNL     1      48.564   8.935  17.651  0.00  0.00    +0.000 A 
ATOM     11  N   UNL     1      48.998  10.049  17.002  0.00  0.00    +0.000 NA
ATOM     12  C   UNL     1      49.824   9.805  16.040  0.00  0.00    +0.000 A 
ATOM     13  N   UNL     1      50.219   8.555  15.641  0.00  0.00    +0.000 N 
ATOM     14  C   UNL     1      49.663   7.399  16.161  0.00  0.00    +0.000 A 
ATOM     15  O   UNL     1      49.754   6.325  15.577  0.00  0.00    +0.000 OA
ATOM     16  C   UNL     1      48.875   7.625  17.360  0.00  0.00    +0.000 A 
ATOM     17  H   UNL     1      50.781   8.436  14.812  0.00  0.00    +0.000 HD
ENDBRANCH   5   7
ENDBRANCH   4   5
ENDBRANCH   1   4
BRANCH   1  18
ATOM     18  C   UNL     1      47.468   3.887  15.430  0.00  0.00    +0.000 C 
BRANCH  18  19
ATOM     19  C   UNL     1      46.808   4.258  14.138  0.00  0.00    +0.000 A 
ATOM     20  C   UNL     1      46.827   5.559  13.638  0.00  0.00    +0.000 A 
ATOM     21  C   UNL     1      46.236   5.834  12.408  0.00  0.00    +0.000 A 
ATOM     22  C   UNL     1      45.628   4.793  11.705  0.00  0.00    +0.000 A 
ATOM     23  N   UNL     1      45.635   3.516  12.162  0.00  0.00    +0.000 NA
ATOM     24  C   UNL     1      46.209   3.278  13.358  0.00  0.00    +0.000 A 
BRANCH  22  25
ATOM     25  C   UNL     1      44.828   5.036  10.436  0.00  0.00    +0.000 C 
BRANCH  25  26
ATOM     26  O   UNL     1      44.073   6.252  10.554  0.00  0.00    +0.000 OA
ATOM     27  H   UNL     1      43.881   6.394  11.492  0.00  0.00    +0.000 HD
ENDBRANCH  25  26
BRANCH  25  28
ATOM     28  C   UNL     1      45.698   5.047   9.148  0.00  0.00    +0.000 C 
BRANCH  28  29
ATOM     29  N   UNL     1      45.230   4.135   8.077  0.00  0.00    +0.000 NA
ATOM     30  C   UNL     1      44.543   2.935   8.573  0.00  0.00    +0.000 C 
ATOM     31  C   UNL     1      45.630   1.896   8.751  0.00  0.00    +0.000 C 
ATOM     32  C   UNL     1      46.578   2.183   7.606  0.00  0.00    +0.000 C 
ATOM     33  C   UNL     1      46.344   3.647   7.248  0.00  0.00    +0.000 C 
ENDBRANCH  28  29
ENDBRANCH  25  28
ENDBRANCH  22  25
ENDBRANCH  18  19
ENDBRANCH   1  18
TORSDOF 9
ENDMDL
MODEL 5
REMARK VINA RESULT:    -6.992      2.340      2.798
REMARK INTER + INTRA:         -11.333
REMARK INTER:                  -9.954
REMARK INTRA:                  -1.378
REMARK UNBOUND:                -0.867
REMARK  Name = 
REMARK  10 active torsions:
REMARK  status: ('A' for Active; 'I' for Inactive)
REMARK    1  A    between atoms: C_1  and  C_2
REMARK    2  A    between atoms: C_2  and  N_3
REMARK    3  A    between atoms: C_2  and  C_19
REMARK    4  A    between atoms: N_3  and  C_4
REMARK    5  A    between atoms: C_4  and  C_5
REMARK    6  A    between atoms: C_8  and  C_9
REMARK    7  A    between atoms: C_9  and  O_10
REMARK    8  A    between atoms: C_9  and  C_11
REMARK    9  A    between atoms: C_11  and  N_12
REMARK   10  A    between atoms: C_19  and  C_21
REMARK                            x       y       z     vdW  Elec       q    Type
REMARK                         _______ _______ _______ _____ _____    ______ ____
ROOT
ATOM      1  N   UNL     1      47.124   5.051  16.276  0.00  0.00    +0.000 NA
ATOM      2  H   UNL     1      46.148   5.299  16.089  0.00  0.00    +0.000 HD
ENDROOT
BRANCH   1   4
ATOM      3  C   UNL     1      47.982   3.090  17.479  0.00  0.00    +0.000 C 
ATOM      4  C   UNL     1      47.194   4.392  17.604  0.00  0.00    +0.000 C 
BRANCH   4   5
ATOM      5  C   UNL     1      47.831   5.341  18.658  0.00  0.00    +0.000 C 
ATOM      6  O   UNL     1      47.126   6.035  19.393  0.00  0.00    +0.000 OA
BRANCH   5   7
ATOM      7  C   UNL     1      49.296   5.381  18.758  0.00  0.00    +0.000 A 
ATOM      8  C   UNL     1      49.995   4.804  19.804  0.00  0.00    +0.000 A 
ATOM      9  S   UNL     1      51.689   4.864  19.597  0.00  0.00    +0.000 S 
ATOM     10  C   UNL     1      51.531   5.673  18.105  0.00  0.00    +0.000 A 
ATOM     11  N   UNL     1      52.626   5.971  17.354  0.00  0.00    +0.000 NA
ATOM     12  C   UNL     1      52.351   6.560  16.239  0.00  0.00    +0.000 A 
ATOM     13  N   UNL     1      51.094   6.916  15.826  0.00  0.00    +0.000 N 
ATOM     14  C   UNL     1      49.982   6.788  16.641  0.00  0.00    +0.000 A 
ATOM     15  O   UNL     1      48.950   7.413  16.418  0.00  0.00    +0.000 OA
ATOM     16  C   UNL     1      50.217   5.970  17.817  0.00  0.00    +0.000 A 
ATOM     17  H   UNL     1      50.966   7.471  14.995  0.00  0.00    +0.000 HD
ENDBRANCH   5   7
ENDBRANCH   4   5
ENDBRANCH   1   4
BRANCH   1  18
ATOM     18  C   UNL     1      47.571   4.119  15.234  0.00  0.00    +0.000 C 
BRANCH  18  19
ATOM     19  C   UNL     1      46.772   4.239  13.974  0.00  0.00    +0.000 A 
ATOM     20  C   UNL     1      46.227   3.130  13.328  0.00  0.00    +0.000 A 
ATOM     21  C   UNL     1      45.454   3.309  12.185  0.00  0.00    +0.000 A 
ATOM     22  C   UNL     1      45.247   4.603  11.706  0.00  0.00    +0.000 A 
ATOM     23  N   UNL     1      45.739   5.694  12.346  0.00  0.00    +0.000 NA
ATOM     24  C   UNL     1      46.489   5.492  13.448  0.00  0.00    +0.000 A 
BRANCH  22  25
ATOM     25  C   UNL     1      44.550   4.873  10.384  0.00  0.00    +0.000 C 
BRANCH  25  26
ATOM     26  O   UNL     1      43.728   6.046  10.490  0.00  0.00    +0.000 OA
ATOM     27  H   UNL     1      44.120   6.626  11.159  0.00  0.00    +0.000 HD
ENDBRANCH  25  26
BRANCH  25  28
ATOM     28  C   UNL     1      45.527   4.988   9.180  0.00  0.00    +0.000 C 
BRANCH  28  29
ATOM     29  N   UNL     1      45.206   4.102   8.036  0.00  0.00    +0.000 NA
ATOM     30  C   UNL     1      44.583   2.829   8.423  0.00  0.00    +0.000 C 
ATOM     31  C   UNL     1      45.734   1.866   8.628  0.00  0.00    +0.000 C 
ATOM     32  C   UNL     1      46.732   2.285   7.569  0.00  0.00    +0.000 C 
ATOM     33  C   UNL     1      46.408   3.744   7.266  0.00  0.00    +0.000 C 
ENDBRANCH  28  29
ENDBRANCH  25  28
ENDBRANCH  22  25
ENDBRANCH  18  19
ENDBRANCH   1  18
TORSDOF 9
ENDMDL
MODEL 6
REMARK VINA RESULT:    -6.966      3.118      3.914
REMARK INTER + INTRA:         -11.294
REMARK INTER:                  -9.527
REMARK INTRA:                  -1.767
REMARK UNBOUND:                -0.867
REMARK  Name = 
REMARK  10 active torsions:
REMARK  status: ('A' for Active; 'I' for Inactive)
REMARK    1  A    between atoms: C_1  and  C_2
REMARK    2  A    between atoms: C_2  and  N_3
REMARK    3  A    between atoms: C_2  and  C_19
REMARK    4  A    between atoms: N_3  and  C_4
REMARK    5  A    between atoms: C_4  and  C_5
REMARK    6  A    between atoms: C_8  and  C_9
REMARK    7  A    between atoms: C_9  and  O_10
REMARK    8  A    between atoms: C_9  and  C_11
REMARK    9  A    between atoms: C_11  and  N_12
REMARK   10  A    between atoms: C_19  and  C_21
REMARK                            x       y       z     vdW  Elec       q    Type
REMARK                         _______ _______ _______ _____ _____    ______ ____
ROOT
ATOM      1  N   UNL     1      50.459   7.327  14.458  0.00  0.00    +0.000 NA
ATOM      2  H   UNL     1      51.351   6.956  14.118  0.00  0.00    +0.000 HD
ENDROOT
BRANCH   1   4
ATOM      3  C   UNL     1      50.884   9.473  15.571  0.00  0.00    +0.000 C 
ATOM      4  C   UNL     1      50.691   7.972  15.774  0.00  0.00    +0.000 C 
BRANCH   4   5
ATOM      5  C   UNL     1      49.515   7.679  16.747  0.00  0.00    +0.000 C 
ATOM      6  O   UNL     1      48.569   8.462  16.851  0.00  0.00    +0.000 OA
BRANCH   5   7
ATOM      7  C   UNL     1      49.561   6.440  17.535  0.00  0.00    +0.000 A 
ATOM      8  C   UNL     1      50.343   6.297  18.668  0.00  0.00    +0.000 A 
ATOM      9  S   UNL     1      50.094   4.813  19.477  0.00  0.00    +0.000 S 
ATOM     10  C   UNL     1      48.939   4.320  18.325  0.00  0.00    +0.000 A 
ATOM     11  N   UNL     1      48.274   3.141  18.467  0.00  0.00    +0.000 NA
ATOM     12  C   UNL     1      47.412   2.912  17.533  0.00  0.00    +0.000 A 
ATOM     13  N   UNL     1      47.185   3.725  16.454  0.00  0.00    +0.000 N 
ATOM     14  C   UNL     1      47.965   4.837  16.187  0.00  0.00    +0.000 A 
ATOM     15  O   UNL     1      47.993   5.347  15.072  0.00  0.00    +0.000 OA
ATOM     16  C   UNL     1      48.814   5.229  17.298  0.00  0.00    +0.000 A 
ATOM     17  H   UNL     1      46.575   3.429  15.708  0.00  0.00    +0.000 HD
ENDBRANCH   5   7
ENDBRANCH   4   5
ENDBRANCH   1   4
BRANCH   1  18
ATOM     18  C   UNL     1      49.974   8.322  13.494  0.00  0.00    +0.000 C 
BRANCH  18  19
ATOM     19  C   UNL     1      48.556   8.081  13.083  0.00  0.00    +0.000 A 
ATOM     20  C   UNL     1      47.487   8.770  13.655  0.00  0.00    +0.000 A 
ATOM     21  C   UNL     1      46.193   8.537  13.198  0.00  0.00    +0.000 A 
ATOM     22  C   UNL     1      45.995   7.607  12.177  0.00  0.00    +0.000 A 
ATOM     23  N   UNL     1      47.029   6.957  11.586  0.00  0.00    +0.000 NA
ATOM     24  C   UNL     1      48.272   7.198  12.050  0.00  0.00    +0.000 A 
BRANCH  22  25
ATOM     25  C   UNL     1      44.607   7.181  11.730  0.00  0.00    +0.000 C 
BRANCH  25  26
ATOM     26  O   UNL     1      43.953   8.265  11.053  0.00  0.00    +0.000 OA
ATOM     27  H   UNL     1      43.142   7.921  10.651  0.00  0.00    +0.000 HD
ENDBRANCH  25  26
BRANCH  25  28
ATOM     28  C   UNL     1      44.605   5.898  10.853  0.00  0.00    +0.000 C 
BRANCH  28  29
ATOM     29  N   UNL     1      43.382   5.069  10.971  0.00  0.00    +0.000 NA
ATOM     30  C   UNL     1      42.712   5.177  12.274  0.00  0.00    +0.000 C 
ATOM     31  C   UNL     1      43.327   4.091  13.132  0.00  0.00    +0.000 C 
ATOM     32  C   UNL     1      43.569   2.965  12.150  0.00  0.00    +0.000 C 
ATOM     33  C   UNL     1      43.670   3.638  10.785  0.00  0.00    +0.000 C 
ENDBRANCH  28  29
ENDBRANCH  25  28
ENDBRANCH  22  25
ENDBRANCH  18  19
ENDBRANCH   1  18
TORSDOF 9
ENDMDL
MODEL 7
REMARK VINA RESULT:    -6.733      3.058      4.145
REMARK INTER + INTRA:         -10.946
REMARK INTER:                  -9.990
REMARK INTRA:                  -0.955
REMARK UNBOUND:                -0.867
REMARK  Name = 
REMARK  10 active torsions:
REMARK  status: ('A' for Active; 'I' for Inactive)
REMARK    1  A    between atoms: C_1  and  C_2
REMARK    2  A    between atoms: C_2  and  N_3
REMARK    3  A    between atoms: C_2  and  C_19
REMARK    4  A    between atoms: N_3  and  C_4
REMARK    5  A    between atoms: C_4  and  C_5
REMARK    6  A    between atoms: C_8  and  C_9
REMARK    7  A    between atoms: C_9  and  O_10
REMARK    8  A    between atoms: C_9  and  C_11
REMARK    9  A    between atoms: C_11  and  N_12
REMARK   10  A    between atoms: C_19  and  C_21
REMARK                            x       y       z     vdW  Elec       q    Type
REMARK                         _______ _______ _______ _____ _____    ______ ____
ROOT
ATOM      1  N   UNL     1      47.086   8.864  14.500  0.00  0.00    +0.000 NA
ATOM      2  H   UNL     1      46.771   7.997  14.944  0.00  0.00    +0.000 HD
ENDROOT
BRANCH   1   4
ATOM      3  C   UNL     1      49.035   9.747  13.295  0.00  0.00    +0.000 C 
ATOM      4  C   UNL     1      48.569   8.845  14.436  0.00  0.00    +0.000 C 
BRANCH   4   5
ATOM      5  C   UNL     1      49.186   9.285  15.793  0.00  0.00    +0.000 C 
ATOM      6  O   UNL     1      50.065  10.148  15.840  0.00  0.00    +0.000 OA
BRANCH   5   7
ATOM      7  C   UNL     1      48.686   8.649  17.020  0.00  0.00    +0.000 A 
ATOM      8  C   UNL     1      48.056   9.355  18.031  0.00  0.00    +0.000 A 
ATOM      9  S   UNL     1      47.442   8.353  19.270  0.00  0.00    +0.000 S 
ATOM     10  C   UNL     1      48.012   6.949  18.490  0.00  0.00    +0.000 A 
ATOM     11  N   UNL     1      47.756   5.715  19.003  0.00  0.00    +0.000 NA
ATOM     12  C   UNL     1      48.227   4.746  18.292  0.00  0.00    +0.000 A 
ATOM     13  N   UNL     1      48.963   4.895  17.145  0.00  0.00    +0.000 N 
ATOM     14  C   UNL     1      49.389   6.133  16.695  0.00  0.00    +0.000 A 
ATOM     15  O   UNL     1      50.314   6.239  15.896  0.00  0.00    +0.000 OA
ATOM     16  C   UNL     1      48.734   7.247  17.355  0.00  0.00    +0.000 A 
ATOM     17  H   UNL     1      49.390   4.097  16.703  0.00  0.00    +0.000 HD
ENDBRANCH   5   7
ENDBRANCH   4   5
ENDBRANCH   1   4
BRANCH   1  18
ATOM     18  C   UNL     1      46.530   8.917  13.143  0.00  0.00    +0.000 C 
BRANCH  18  19
ATOM     19  C   UNL     1      45.846   7.644  12.753  0.00  0.00    +0.000 A 
ATOM     20  C   UNL     1      44.771   7.618  11.865  0.00  0.00    +0.000 A 
ATOM     21  C   UNL     1      44.205   6.398  11.503  0.00  0.00    +0.000 A 
ATOM     22  C   UNL     1      44.728   5.224  12.048  0.00  0.00    +0.000 A 
ATOM     23  N   UNL     1      45.798   5.233  12.883  0.00  0.00    +0.000 NA
ATOM     24  C   UNL     1      46.323   6.427  13.221  0.00  0.00    +0.000 A 
BRANCH  22  25
ATOM     25  C   UNL     1      44.073   3.871  11.828  0.00  0.00    +0.000 C 
BRANCH  25  26
ATOM     26  O   UNL     1      42.740   4.045  11.322  0.00  0.00    +0.000 OA
ATOM     27  H   UNL     1      42.299   4.713  11.867  0.00  0.00    +0.000 HD
ENDBRANCH  25  26
BRANCH  25  28
ATOM     28  C   UNL     1      44.896   2.927  10.908  0.00  0.00    +0.000 C 
BRANCH  28  29
ATOM     29  N   UNL     1      44.406   2.841   9.512  0.00  0.00    +0.000 NA
ATOM     30  C   UNL     1      44.848   1.636   8.797  0.00  0.00    +0.000 C 
ATOM     31  C   UNL     1      46.155   2.019   8.136  0.00  0.00    +0.000 C 
ATOM     32  C   UNL     1      45.940   3.467   7.750  0.00  0.00    +0.000 C 
ATOM     33  C   UNL     1      44.863   3.980   8.700  0.00  0.00    +0.000 C 
ENDBRANCH  28  29
ENDBRANCH  25  28
ENDBRANCH  22  25
ENDBRANCH  18  19
ENDBRANCH   1  18
TORSDOF 9
ENDMDL
MODEL 8
REMARK VINA RESULT:    -6.519      2.718      3.422
REMARK INTER + INTRA:         -10.626
REMARK INTER:                  -9.592
REMARK INTRA:                  -1.034
REMARK UNBOUND:                -0.867
REMARK  Name = 
REMARK  10 active torsions:
REMARK  status: ('A' for Active; 'I' for Inactive)
REMARK    1  A    between atoms: C_1  and  C_2
REMARK    2  A    between atoms: C_2  and  N_3
REMARK    3  A    between atoms: C_2  and  C_19
REMARK    4  A    between atoms: N_3  and  C_4
REMARK    5  A    between atoms: C_4  and  C_5
REMARK    6  A    between atoms: C_8  and  C_9
REMARK    7  A    between atoms: C_9  and  O_10
REMARK    8  A    between atoms: C_9  and  C_11
REMARK    9  A    between atoms: C_11  and  N_12
REMARK   10  A    between atoms: C_19  and  C_21
REMARK                            x       y       z     vdW  Elec       q    Type
REMARK                         _______ _______ _______ _____ _____    ______ ____
ROOT
ATOM      1  N   UNL     1      46.597   4.272  16.563  0.00  0.00    +0.000 NA
ATOM      2  H   UNL     1      45.910   3.512  16.533  0.00  0.00    +0.000 HD
ENDROOT
BRANCH   1   4
ATOM      3  C   UNL     1      48.723   3.508  17.524  0.00  0.00    +0.000 C 
ATOM      4  C   UNL     1      47.371   4.153  17.823  0.00  0.00    +0.000 C 
BRANCH   4   5
ATOM      5  C   UNL     1      47.544   5.543  18.497  0.00  0.00    +0.000 C 
ATOM      6  O   UNL     1      46.692   5.981  19.273  0.00  0.00    +0.000 OA
BRANCH   5   7
ATOM      7  C   UNL     1      48.754   6.317  18.189  0.00  0.00    +0.000 A 
ATOM      8  C   UNL     1      48.917   7.020  17.008  0.00  0.00    +0.000 A 
ATOM      9  S   UNL     1      50.349   7.953  16.972  0.00  0.00    +0.000 S 
ATOM     10  C   UNL     1      50.791   7.430  18.532  0.00  0.00    +0.000 A 
ATOM     11  N   UNL     1      51.909   7.915  19.138  0.00  0.00    +0.000 NA
ATOM     12  C   UNL     1      52.104   7.449  20.326  0.00  0.00    +0.000 A 
ATOM     13  N   UNL     1      51.313   6.516  20.945  0.00  0.00    +0.000 N 
ATOM     14  C   UNL     1      50.275   5.874  20.293  0.00  0.00    +0.000 A 
ATOM     15  O   UNL     1      49.808   4.821  20.714  0.00  0.00    +0.000 OA
ATOM     16  C   UNL     1      49.911   6.495  19.031  0.00  0.00    +0.000 A 
ATOM     17  H   UNL     1      51.588   6.118  21.829  0.00  0.00    +0.000 HD
ENDBRANCH   5   7
ENDBRANCH   4   5
ENDBRANCH   1   4
BRANCH   1  18
ATOM     18  C   UNL     1      47.495   4.127  15.411  0.00  0.00    +0.000 C 
BRANCH  18  19
ATOM     19  C   UNL     1      46.804   4.378  14.108  0.00  0.00    +0.000 A 
ATOM     20  C   UNL     1      46.799   5.631  13.496  0.00  0.00    +0.000 A 
ATOM     21  C   UNL     1      46.179   5.793  12.260  0.00  0.00    +0.000 A 
ATOM     22  C   UNL     1      45.566   4.690  11.664  0.00  0.00    +0.000 A 
ATOM     23  N   UNL     1      45.595   3.457  12.230  0.00  0.00    +0.000 NA
ATOM     24  C   UNL     1      46.198   3.329  13.429  0.00  0.00    +0.000 A 
BRANCH  22  25
ATOM     25  C   UNL     1      44.736   4.814  10.397  0.00  0.00    +0.000 C 
BRANCH  25  26
ATOM     26  O   UNL     1      43.800   5.896  10.525  0.00  0.00    +0.000 OA
ATOM     27  H   UNL     1      44.219   6.592  11.052  0.00  0.00    +0.000 HD
ENDBRANCH  25  26
BRANCH  25  28
ATOM     28  C   UNL     1      45.592   4.971   9.109  0.00  0.00    +0.000 C 
BRANCH  28  29
ATOM     29  N   UNL     1      45.218   4.059   8.002  0.00  0.00    +0.000 NA
ATOM     30  C   UNL     1      44.626   2.790   8.449  0.00  0.00    +0.000 C 
ATOM     31  C   UNL     1      45.794   1.840   8.612  0.00  0.00    +0.000 C 
ATOM     32  C   UNL     1      46.731   2.242   7.493  0.00  0.00    +0.000 C 
ATOM     33  C   UNL     1      46.380   3.692   7.177  0.00  0.00    +0.000 C 
ENDBRANCH  28  29
ENDBRANCH  25  28
ENDBRANCH  22  25
ENDBRANCH  18  19
ENDBRANCH   1  18
TORSDOF 9
ENDMDL
MODEL 9
REMARK VINA RESULT:    -6.487      2.452      3.394
REMARK INTER + INTRA:         -10.577
REMARK INTER:                  -9.169
REMARK INTRA:                  -1.408
REMARK UNBOUND:                -0.867
REMARK  Name = 
REMARK  10 active torsions:
REMARK  status: ('A' for Active; 'I' for Inactive)
REMARK    1  A    between atoms: C_1  and  C_2
REMARK    2  A    between atoms: C_2  and  N_3
REMARK    3  A    between atoms: C_2  and  C_19
REMARK    4  A    between atoms: N_3  and  C_4
REMARK    5  A    between atoms: C_4  and  C_5
REMARK    6  A    between atoms: C_8  and  C_9
REMARK    7  A    between atoms: C_9  and  O_10
REMARK    8  A    between atoms: C_9  and  C_11
REMARK    9  A    between atoms: C_11  and  N_12
REMARK   10  A    between atoms: C_19  and  C_21
REMARK                            x       y       z     vdW  Elec       q    Type
REMARK                         _______ _______ _______ _____ _____    ______ ____
ROOT
ATOM      1  N   UNL     1      50.165   6.639  14.930  0.00  0.00    +0.000 NA
ATOM      2  H   UNL     1      51.092   6.393  14.569  0.00  0.00    +0.000 HD
ENDROOT
BRANCH   1   4
ATOM      3  C   UNL     1      50.167   8.715  16.240  0.00  0.00    +0.000 C 
ATOM      4  C   UNL     1      50.327   7.197  16.295  0.00  0.00    +0.000 C 
BRANCH   4   5
ATOM      5  C   UNL     1      49.308   6.556  17.278  0.00  0.00    +0.000 C 
ATOM      6  O   UNL     1      48.690   7.247  18.090  0.00  0.00    +0.000 OA
BRANCH   5   7
ATOM      7  C   UNL     1      49.096   5.104  17.206  0.00  0.00    +0.000 A 
ATOM      8  C   UNL     1      47.886   4.536  16.846  0.00  0.00    +0.000 A 
ATOM      9  S   UNL     1      47.958   2.836  16.696  0.00  0.00    +0.000 S 
ATOM     10  C   UNL     1      49.608   2.815  17.120  0.00  0.00    +0.000 A 
ATOM     11  N   UNL     1      50.313   1.651  17.119  0.00  0.00    +0.000 NA
ATOM     12  C   UNL     1      51.556   1.793  17.435  0.00  0.00    +0.000 A 
ATOM     13  N   UNL     1      52.148   2.976  17.793  0.00  0.00    +0.000 N 
ATOM     14  C   UNL     1      51.424   4.142  17.974  0.00  0.00    +0.000 A 
ATOM     15  O   UNL     1      51.877   5.084  18.616  0.00  0.00    +0.000 OA
ATOM     16  C   UNL     1      50.069   4.069  17.456  0.00  0.00    +0.000 A 
ATOM     17  H   UNL     1      53.097   2.992  18.133  0.00  0.00    +0.000 HD
ENDBRANCH   5   7
ENDBRANCH   4   5
ENDBRANCH   1   4
BRANCH   1  18
ATOM     18  C   UNL     1      49.580   7.652  14.044  0.00  0.00    +0.000 C 
BRANCH  18  19
ATOM     19  C   UNL     1      48.490   7.099  13.180  0.00  0.00    +0.000 A 
ATOM     20  C   UNL     1      47.540   6.200  13.662  0.00  0.00    +0.000 A 
ATOM     21  C   UNL     1      46.522   5.756  12.823  0.00  0.00    +0.000 A 
ATOM     22  C   UNL     1      46.481   6.221  11.508  0.00  0.00    +0.000 A 
ATOM     23  N   UNL     1      47.377   7.125  11.037  0.00  0.00    +0.000 NA
ATOM     24  C   UNL     1      48.355   7.534  11.868  0.00  0.00    +0.000 A 
BRANCH  22  25
ATOM     25  C   UNL     1      45.500   5.670  10.487  0.00  0.00    +0.000 C 
BRANCH  25  26
ATOM     26  O   UNL     1      46.015   5.857   9.158  0.00  0.00    +0.000 OA
ATOM     27  H   UNL     1      45.878   5.034   8.667  0.00  0.00    +0.000 HD
ENDBRANCH  25  26
BRANCH  25  28
ATOM     28  C   UNL     1      45.123   4.182  10.731  0.00  0.00    +0.000 C 
BRANCH  28  29
ATOM     29  N   UNL     1      43.695   3.951  11.056  0.00  0.00    +0.000 NA
ATOM     30  C   UNL     1      42.947   5.178  11.364  0.00  0.00    +0.000 C 
ATOM     31  C   UNL     1      43.084   5.365  12.861  0.00  0.00    +0.000 C 
ATOM     32  C   UNL     1      43.070   3.948  13.393  0.00  0.00    +0.000 C 
ATOM     33  C   UNL     1      43.535   3.078  12.230  0.00  0.00    +0.000 C 
ENDBRANCH  28  29
ENDBRANCH  25  28
ENDBRANCH  22  25
ENDBRANCH  18  19
ENDBRANCH   1  18
TORSDOF 9
ENDMDL
