MODEL 1
REMARK VINA RESULT:    -7.619      0.000      0.000
REMARK INTER + INTRA:         -10.048
REMARK INTER:                  -9.623
REMARK INTRA:                  -0.425
REMARK UNBOUND:                -0.425
REMARK  Name = 
REMARK  5 active torsions:
REMARK  status: ('A' for Active; 'I' for Inactive)
REMARK    1  A    between atoms: N_1  and  C_2
REMARK    2  A    between atoms: C_2  and  C_3
REMARK    3  A    between atoms: C_3  and  C_4
REMARK    4  A    between atoms: C_8  and  C_9
REMARK    5  A    between atoms: C_9  and  N_10
REMARK                            x       y       z     vdW  Elec       q    Type
REMARK                         _______ _______ _______ _____ _____    ______ ____
ROOT
ATOM      1  C   UNL     1      45.311   5.007  12.900  0.00  0.00    +0.000 A 
ATOM      2  C   UNL     1      44.113   5.627  13.245  0.00  0.00    +0.000 A 
ATOM      3  C   UNL     1      42.948   5.235  12.599  0.00  0.00    +0.000 A 
ATOM      4  C   UNL     1      43.004   4.244  11.624  0.00  0.00    +0.000 A 
ATOM      5  C   UNL     1      44.242   3.691  11.301  0.00  0.00    +0.000 A 
ATOM      6  N   UNL     1      45.388   4.064  11.927  0.00  0.00    +0.000 NA
ENDROOT
BRANCH   1   7
ATOM      7  C   UNL     1      46.592   5.377  13.601  0.00  0.00    +0.000 C 
BRANCH   7   8
ATOM      8  C   UNL     1      46.852   4.467  14.801  0.00  0.00    +0.000 C 
BRANCH   8   9
ATOM      9  N   UNL     1      47.394   3.177  14.378  0.00  0.00    +0.000 NA
ATOM     10  H   UNL     1      47.770   2.688  15.188  0.00  0.00    +0.000 HD
ATOM     11  H   UNL     1      48.185   3.329  13.752  0.00  0.00    +0.000 HD
ENDBRANCH   8   9
ENDBRANCH   7   8
ENDBRANCH   1   7
BRANCH   5  12
ATOM     12  C   UNL     1      44.362   2.647  10.220  0.00  0.00    +0.000 C 
BRANCH  12  13
ATOM     13  N   UNL     1      45.178   3.110   9.115  0.00  0.00    +0.000 N 
ATOM     14  C   UNL     1      45.292   4.415   8.717  0.00  0.00    +0.000 A 
ATOM     15  N   UNL     1      46.104   4.544   7.694  0.00  0.00    +0.000 NA
ATOM     16  C   UNL     1      46.522   3.269   7.406  0.00  0.00    +0.000 A 
ATOM     17  C   UNL     1      47.414   2.827   6.416  0.00  0.00    +0.000 A 
ATOM     18  C   UNL     1      47.683   1.458   6.310  0.00  0.00    +0.000 A 
ATOM     19  C   UNL     1      47.062   0.543   7.161  0.00  0.00    +0.000 A 
ATOM     20  C   UNL     1      46.169   0.962   8.156  0.00  0.00    +0.000 A 
ATOM     21  C   UNL     1      45.934   2.339   8.263  0.00  0.00    +0.000 A 
ENDBRANCH  12  13
ENDBRANCH   5  12
TORSDOF 5
ENDMDL
MODEL 2
REMARK VINA RESULT:    -7.172      1.736      6.245
REMARK INTER + INTRA:          -9.484
REMARK INTER:                  -9.048
REMARK INTRA:                  -0.436
REMARK UNBOUND:                -0.425
REMARK  Name = 
REMARK  5 active torsions:
REMARK  status: ('A' for Active; 'I' for Inactive)
REMARK    1  A    between atoms: N_1  and  C_2
REMARK    2  A    between atoms: C_2  and  C_3
REMARK    3  A    between atoms: C_3  and  C_4
REMARK    4  A    between atoms: C_8  and  C_9
REMARK    5  A    between atoms: C_9  and  N_10
REMARK                            x       y       z     vdW  Elec       q    Type
REMARK                         _______ _______ _______ _____ _____    ______ ____
ROOT
ATOM      1  C   UNL     1      46.019   3.320   7.919  0.00  0.00    +0.000 A 
ATOM      2  C   UNL     1      45.596   2.001   8.064  0.00  0.00    +0.000 A 
ATOM      3  C   UNL     1      44.711   1.693   9.087  0.00  0.00    +0.000 A 
ATOM      4  C   UNL     1      44.274   2.699   9.944  0.00  0.00    +0.000 A 
ATOM      5  C   UNL     1      44.766   3.990   9.766  0.00  0.00    +0.000 A 
ATOM      6  N   UNL     1      45.631   4.305   8.768  0.00  0.00    +0.000 NA
ENDROOT
BRANCH   1   7
ATOM      7  C   UNL     1      46.953   3.705   6.800  0.00  0.00    +0.000 C 
BRANCH   7   8
ATOM      8  C   UNL     1      47.047   2.598   5.751  0.00  0.00    +0.000 C 
BRANCH   8   9
ATOM      9  N   UNL     1      48.379   1.995   5.739  0.00  0.00    +0.000 NA
ATOM     10  H   UNL     1      48.813   2.157   4.831  0.00  0.00    +0.000 HD
ATOM     11  H   UNL     1      48.297   0.983   5.833  0.00  0.00    +0.000 HD
ENDBRANCH   8   9
ENDBRANCH   7   8
ENDBRANCH   1   7
BRANCH   5  12
ATOM     12  C   UNL     1      44.359   5.105  10.695  0.00  0.00    +0.000 C 
BRANCH  12  13
ATOM     13  N   UNL     1      45.138   5.097  11.918  0.00  0.00    +0.000 N 
ATOM     14  C   UNL     1      44.840   4.356  13.031  0.00  0.00    +0.000 A 
ATOM     15  N   UNL     1      45.720   4.538  13.987  0.00  0.00    +0.000 NA
ATOM     16  C   UNL     1      46.618   5.444  13.480  0.00  0.00    +0.000 A 
ATOM     17  C   UNL     1      47.772   5.979  14.072  0.00  0.00    +0.000 A 
ATOM     18  C   UNL     1      48.534   6.906  13.352  0.00  0.00    +0.000 A 
ATOM     19  C   UNL     1      48.145   7.307  12.073  0.00  0.00    +0.000 A 
ATOM     20  C   UNL     1      46.997   6.785  11.464  0.00  0.00    +0.000 A 
ATOM     21  C   UNL     1      46.262   5.838  12.190  0.00  0.00    +0.000 A 
ENDBRANCH  12  13
ENDBRANCH   5  12
TORSDOF 5
ENDMDL
MODEL 3
REMARK VINA RESULT:    -7.061      1.900      3.316
REMARK INTER + INTRA:          -9.343
REMARK INTER:                  -8.819
REMARK INTRA:                  -0.525
REMARK UNBOUND:                -0.425
REMARK  Name = 
REMARK  5 active torsions:
REMARK  status: ('A' for Active; 'I' for Inactive)
REMARK    1  A    between atoms: N_1  and  C_2
REMARK    2  A    between atoms: C_2  and  C_3
REMARK    3  A    between atoms: C_3  and  C_4
REMARK    4  A    between atoms: C_8  and  C_9
REMARK    5  A    between atoms: C_9  and  N_10
REMARK                            x       y       z     vdW  Elec       q    Type
REMARK                         _______ _______ _______ _____ _____    ______ ____
ROOT
ATOM      1  C   UNL     1      46.665   6.522  13.197  0.00  0.00    +0.000 A 
ATOM      2  C   UNL     1      47.044   7.820  12.868  0.00  0.00    +0.000 A 
ATOM      3  C   UNL     1      46.197   8.583  12.076  0.00  0.00    +0.000 A 
ATOM      4  C   UNL     1      44.999   8.035  11.627  0.00  0.00    +0.000 A 
ATOM      5  C   UNL     1      44.698   6.717  11.963  0.00  0.00    +0.000 A 
ATOM      6  N   UNL     1      45.518   5.961  12.737  0.00  0.00    +0.000 NA
ENDROOT
BRANCH   1   7
ATOM      7  C   UNL     1      47.538   5.671  14.083  0.00  0.00    +0.000 C 
BRANCH   7   8
ATOM      8  C   UNL     1      46.775   4.461  14.618  0.00  0.00    +0.000 C 
BRANCH   8   9
ATOM      9  N   UNL     1      47.174   3.237  13.925  0.00  0.00    +0.000 NA
ATOM     10  H   UNL     1      47.790   3.476  13.150  0.00  0.00    +0.000 HD
ATOM     11  H   UNL     1      46.354   2.799  13.505  0.00  0.00    +0.000 HD
ENDBRANCH   8   9
ENDBRANCH   7   8
ENDBRANCH   1   7
BRANCH   5  12
ATOM     12  C   UNL     1      43.436   6.063  11.462  0.00  0.00    +0.000 C 
BRANCH  12  13
ATOM     13  N   UNL     1      43.664   4.687  11.064  0.00  0.00    +0.000 N 
ATOM     14  C   UNL     1      43.148   3.592  11.703  0.00  0.00    +0.000 A 
ATOM     15  N   UNL     1      43.512   2.472  11.122  0.00  0.00    +0.000 NA
ATOM     16  C   UNL     1      44.309   2.856  10.072  0.00  0.00    +0.000 A 
ATOM     17  C   UNL     1      44.951   2.066   9.107  0.00  0.00    +0.000 A 
ATOM     18  C   UNL     1      45.727   2.693   8.125  0.00  0.00    +0.000 A 
ATOM     19  C   UNL     1      45.874   4.082   8.115  0.00  0.00    +0.000 A 
ATOM     20  C   UNL     1      45.242   4.889   9.068  0.00  0.00    +0.000 A 
ATOM     21  C   UNL     1      44.448   4.244  10.026  0.00  0.00    +0.000 A 
ENDBRANCH  12  13
ENDBRANCH   5  12
TORSDOF 5
ENDMDL
MODEL 4
REMARK VINA RESULT:    -6.855      1.440      2.313
REMARK INTER + INTRA:          -9.084
REMARK INTER:                  -8.397
REMARK INTRA:                  -0.686
REMARK UNBOUND:                -0.425
REMARK  Name = 
REMARK  5 active torsions:
REMARK  status: ('A' for Active; 'I' for Inactive)
REMARK    1  A    between atoms: N_1  and  C_2
REMARK    2  A    between atoms: C_2  and  C_3
REMARK    3  A    between atoms: C_3  and  C_4
REMARK    4  A    between atoms: C_8  and  C_9
REMARK    5  A    between atoms: C_9  and  N_10
REMARK                            x       y       z     vdW  Elec       q    Type
REMARK                         _______ _______ _______ _____ _____    ______ ____
ROOT
ATOM      1  C   UNL     1      45.575   5.451  12.367  0.00  0.00    +0.000 A 
ATOM      2  C   UNL     1      44.466   5.493  13.208  0.00  0.00    +0.000 A 
ATOM      3  C   UNL     1      43.223   5.157  12.691  0.00  0.00    +0.000 A 
ATOM      4  C   UNL     1      43.111   4.794  11.352  0.00  0.00    +0.000 A 
ATOM      5  C   UNL     1      44.255   4.809  10.557  0.00  0.00    +0.000 A 
ATOM      6  N   UNL     1      45.477   5.134  11.051  0.00  0.00    +0.000 NA
ENDROOT
BRANCH   1   7
ATOM      7  C   UNL     1      46.948   5.775  12.896  0.00  0.00    +0.000 C 
BRANCH   7   8
ATOM      8  C   UNL     1      47.532   7.007  12.205  0.00  0.00    +0.000 C 
BRANCH   8   9
ATOM      9  N   UNL     1      46.498   8.006  11.946  0.00  0.00    +0.000 NA
ATOM     10  H   UNL     1      46.922   8.824  11.511  0.00  0.00    +0.000 HD
ATOM     11  H   UNL     1      46.108   8.331  12.831  0.00  0.00    +0.000 HD
ENDBRANCH   8   9
ENDBRANCH   7   8
ENDBRANCH   1   7
BRANCH   5  12
ATOM     12  C   UNL     1      44.179   4.469   9.090  0.00  0.00    +0.000 C 
BRANCH  12  13
ATOM     13  N   UNL     1      44.834   3.211   8.794  0.00  0.00    +0.000 N 
ATOM     14  C   UNL     1      44.479   1.999   9.325  0.00  0.00    +0.000 A 
ATOM     15  N   UNL     1      45.241   1.029   8.876  0.00  0.00    +0.000 NA
ATOM     16  C   UNL     1      46.136   1.637   8.031  0.00  0.00    +0.000 A 
ATOM     17  C   UNL     1      47.164   1.068   7.265  0.00  0.00    +0.000 A 
ATOM     18  C   UNL     1      47.962   1.904   6.475  0.00  0.00    +0.000 A 
ATOM     19  C   UNL     1      47.750   3.283   6.461  0.00  0.00    +0.000 A 
ATOM     20  C   UNL     1      46.730   3.872   7.218  0.00  0.00    +0.000 A 
ATOM     21  C   UNL     1      45.925   3.015   7.981  0.00  0.00    +0.000 A 
ENDBRANCH  12  13
ENDBRANCH   5  12
TORSDOF 5
ENDMDL
MODEL 5
REMARK VINA RESULT:    -6.454      2.468      4.092
REMARK INTER + INTRA:          -8.577
REMARK INTER:                  -7.892
REMARK INTRA:                  -0.685
REMARK UNBOUND:                -0.425
REMARK  Name = 
REMARK  5 active torsions:
REMARK  status: ('A' for Active; 'I' for Inactive)
REMARK    1  A    between atoms: N_1  and  C_2
REMARK    2  A    between atoms: C_2  and  C_3
REMARK    3  A    between atoms: C_3  and  C_4
REMARK    4  A    between atoms: C_8  and  C_9
REMARK    5  A    between atoms: C_9  and  N_10
REMARK                            x       y       z     vdW  Elec       q    Type
REMARK                         _______ _______ _______ _____ _____    ______ ____
ROOT
ATOM      1  C   UNL     1      47.613   7.345  12.524  0.00  0.00    +0.000 A 
ATOM      2  C   UNL     1      48.131   6.579  13.565  0.00  0.00    +0.000 A 
ATOM      3  C   UNL     1      47.361   5.546  14.080  0.00  0.00    +0.000 A 
ATOM      4  C   UNL     1      46.096   5.304  13.553  0.00  0.00    +0.000 A 
ATOM      5  C   UNL     1      45.624   6.132  12.537  0.00  0.00    +0.000 A 
ATOM      6  N   UNL     1      46.368   7.146  12.024  0.00  0.00    +0.000 NA
ENDROOT
BRANCH   1   7
ATOM      7  C   UNL     1      48.430   8.454  11.912  0.00  0.00    +0.000 C 
BRANCH   7   8
ATOM      8  C   UNL     1      48.113   9.801  12.563  0.00  0.00    +0.000 C 
BRANCH   8   9
ATOM      9  N   UNL     1      46.690   9.909  12.883  0.00  0.00    +0.000 NA
ATOM     10  H   UNL     1      46.585  10.307  13.815  0.00  0.00    +0.000 HD
ATOM     11  H   UNL     1      46.279   8.977  12.929  0.00  0.00    +0.000 HD
ENDBRANCH   8   9
ENDBRANCH   7   8
ENDBRANCH   1   7
BRANCH   5  12
ATOM     12  C   UNL     1      44.242   5.941  11.965  0.00  0.00    +0.000 C 
BRANCH  12  13
ATOM     13  N   UNL     1      44.090   4.638  11.351  0.00  0.00    +0.000 N 
ATOM     14  C   UNL     1      43.329   3.617  11.857  0.00  0.00    +0.000 A 
ATOM     15  N   UNL     1      43.369   2.553  11.088  0.00  0.00    +0.000 NA
ATOM     16  C   UNL     1      44.200   2.892  10.050  0.00  0.00    +0.000 A 
ATOM     17  C   UNL     1      44.580   2.134   8.931  0.00  0.00    +0.000 A 
ATOM     18  C   UNL     1      45.456   2.699   7.998  0.00  0.00    +0.000 A 
ATOM     19  C   UNL     1      45.959   3.988   8.183  0.00  0.00    +0.000 A 
ATOM     20  C   UNL     1      45.594   4.761   9.292  0.00  0.00    +0.000 A 
ATOM     21  C   UNL     1      44.694   4.187  10.201  0.00  0.00    +0.000 A 
ENDBRANCH  12  13
ENDBRANCH   5  12
TORSDOF 5
ENDMDL
MODEL 6
REMARK VINA RESULT:    -6.127      1.926      6.216
REMARK INTER + INTRA:          -8.164
REMARK INTER:                  -7.736
REMARK INTRA:                  -0.428
REMARK UNBOUND:                -0.425
REMARK  Name = 
REMARK  5 active torsions:
REMARK  status: ('A' for Active; 'I' for Inactive)
REMARK    1  A    between atoms: N_1  and  C_2
REMARK    2  A    between atoms: C_2  and  C_3
REMARK    3  A    between atoms: C_3  and  C_4
REMARK    4  A    between atoms: C_8  and  C_9
REMARK    5  A    between atoms: C_9  and  N_10
REMARK                            x       y       z     vdW  Elec       q    Type
REMARK                         _______ _______ _______ _____ _____    ______ ____
ROOT
ATOM      1  C   UNL     1      45.131   4.086   9.522  0.00  0.00    +0.000 A 
ATOM      2  C   UNL     1      44.466   2.863   9.536  0.00  0.00    +0.000 A 
ATOM      3  C   UNL     1      43.796   2.481  10.691  0.00  0.00    +0.000 A 
ATOM      4  C   UNL     1      43.808   3.320  11.801  0.00  0.00    +0.000 A 
ATOM      5  C   UNL     1      44.524   4.513  11.731  0.00  0.00    +0.000 A 
ATOM      6  N   UNL     1      45.183   4.898  10.608  0.00  0.00    +0.000 NA
ENDROOT
BRANCH   1   7
ATOM      7  C   UNL     1      45.842   4.554   8.279  0.00  0.00    +0.000 C 
BRANCH   7   8
ATOM      8  C   UNL     1      46.105   3.394   7.319  0.00  0.00    +0.000 C 
BRANCH   8   9
ATOM      9  N   UNL     1      46.943   3.816   6.198  0.00  0.00    +0.000 NA
ATOM     10  H   UNL     1      47.638   3.096   6.008  0.00  0.00    +0.000 HD
ATOM     11  H   UNL     1      47.469   4.650   6.461  0.00  0.00    +0.000 HD
ENDBRANCH   8   9
ENDBRANCH   7   8
ENDBRANCH   1   7
BRANCH   5  12
ATOM     12  C   UNL     1      44.607   5.434  12.921  0.00  0.00    +0.000 C 
BRANCH  12  13
ATOM     13  N   UNL     1      45.972   5.600  13.379  0.00  0.00    +0.000 N 
ATOM     14  C   UNL     1      46.605   4.775  14.271  0.00  0.00    +0.000 A 
ATOM     15  N   UNL     1      47.839   5.160  14.499  0.00  0.00    +0.000 NA
ATOM     16  C   UNL     1      48.011   6.287  13.735  0.00  0.00    +0.000 A 
ATOM     17  C   UNL     1      49.148   7.095  13.584  0.00  0.00    +0.000 A 
ATOM     18  C   UNL     1      49.077   8.212  12.743  0.00  0.00    +0.000 A 
ATOM     19  C   UNL     1      47.891   8.529  12.080  0.00  0.00    +0.000 A 
ATOM     20  C   UNL     1      46.745   7.737  12.217  0.00  0.00    +0.000 A 
ATOM     21  C   UNL     1      46.844   6.608  13.041  0.00  0.00    +0.000 A 
ENDBRANCH  12  13
ENDBRANCH   5  12
TORSDOF 5
ENDMDL
MODEL 7
REMARK VINA RESULT:    -6.079      2.066      3.337
REMARK INTER + INTRA:          -8.104
REMARK INTER:                  -7.440
REMARK INTRA:                  -0.663
REMARK UNBOUND:                -0.425
REMARK  Name = 
REMARK  5 active torsions:
REMARK  status: ('A' for Active; 'I' for Inactive)
REMARK    1  A    between atoms: N_1  and  C_2
REMARK    2  A    between atoms: C_2  and  C_3
REMARK    3  A    between atoms: C_3  and  C_4
REMARK    4  A    between atoms: C_8  and  C_9
REMARK    5  A    between atoms: C_9  and  N_10
REMARK                            x       y       z     vdW  Elec       q    Type
REMARK                         _______ _______ _______ _____ _____    ______ ____
ROOT
ATOM      1  C   UNL     1      46.664   6.963  12.758  0.00  0.00    +0.000 A 
ATOM      2  C   UNL     1      47.136   6.085  13.731  0.00  0.00    +0.000 A 
ATOM      3  C   UNL     1      46.616   4.799  13.778  0.00  0.00    +0.000 A 
ATOM      4  C   UNL     1      45.638   4.420  12.863  0.00  0.00    +0.000 A 
ATOM      5  C   UNL     1      45.185   5.360  11.940  0.00  0.00    +0.000 A 
ATOM      6  N   UNL     1      45.686   6.620  11.883  0.00  0.00    +0.000 NA
ENDROOT
BRANCH   1   7
ATOM      7  C   UNL     1      47.226   8.357  12.650  0.00  0.00    +0.000 C 
BRANCH   7   8
ATOM      8  C   UNL     1      46.202   9.324  12.058  0.00  0.00    +0.000 C 
BRANCH   8   9
ATOM      9  N   UNL     1      44.988   9.368  12.872  0.00  0.00    +0.000 NA
ATOM     10  H   UNL     1      45.100   8.754  13.677  0.00  0.00    +0.000 HD
ATOM     11  H   UNL     1      44.206   8.988  12.338  0.00  0.00    +0.000 HD
ENDBRANCH   8   9
ENDBRANCH   7   8
ENDBRANCH   1   7
BRANCH   5  12
ATOM     12  C   UNL     1      44.094   5.013  10.958  0.00  0.00    +0.000 C 
BRANCH  12  13
ATOM     13  N   UNL     1      44.435   3.850  10.164  0.00  0.00    +0.000 N 
ATOM     14  C   UNL     1      43.972   2.581  10.393  0.00  0.00    +0.000 A 
ATOM     15  N   UNL     1      44.439   1.726   9.514  0.00  0.00    +0.000 NA
ATOM     16  C   UNL     1      45.249   2.466   8.689  0.00  0.00    +0.000 A 
ATOM     17  C   UNL     1      45.985   2.058   7.567  0.00  0.00    +0.000 A 
ATOM     18  C   UNL     1      46.755   3.005   6.881  0.00  0.00    +0.000 A 
ATOM     19  C   UNL     1      46.804   4.331   7.316  0.00  0.00    +0.000 A 
ATOM     20  C   UNL     1      46.077   4.759   8.434  0.00  0.00    +0.000 A 
ATOM     21  C   UNL     1      45.291   3.801   9.090  0.00  0.00    +0.000 A 
ENDBRANCH  12  13
ENDBRANCH   5  12
TORSDOF 5
ENDMDL
MODEL 8
REMARK VINA RESULT:    -6.054      2.727      4.614
REMARK INTER + INTRA:          -8.072
REMARK INTER:                  -7.338
REMARK INTRA:                  -0.734
REMARK UNBOUND:                -0.425
REMARK  Name = 
REMARK  5 active torsions:
REMARK  status: ('A' for Active; 'I' for Inactive)
REMARK    1  A    between atoms: N_1  and  C_2
REMARK    2  A    between atoms: C_2  and  C_3
REMARK    3  A    between atoms: C_3  and  C_4
REMARK    4  A    between atoms: C_8  and  C_9
REMARK    5  A    between atoms: C_9  and  N_10
REMARK                            x       y       z     vdW  Elec       q    Type
REMARK                         _______ _______ _______ _____ _____    ______ ____
ROOT
ATOM      1  C   UNL     1      48.485   7.095  14.050  0.00  0.00    +0.000 A 
ATOM      2  C   UNL     1      49.426   7.359  13.059  0.00  0.00    +0.000 A 
ATOM      3  C   UNL     1      48.998   7.458  11.742  0.00  0.00    +0.000 A 
ATOM      4  C   UNL     1      47.650   7.286  11.443  0.00  0.00    +0.000 A 
ATOM      5  C   UNL     1      46.767   6.987  12.479  0.00  0.00    +0.000 A 
ATOM      6  N   UNL     1      47.173   6.889  13.771  0.00  0.00    +0.000 NA
ENDROOT
BRANCH   1   7
ATOM      7  C   UNL     1      48.901   7.014  15.496  0.00  0.00    +0.000 C 
BRANCH   7   8
ATOM      8  C   UNL     1      48.731   8.360  16.199  0.00  0.00    +0.000 C 
BRANCH   8   9
ATOM      9  N   UNL     1      47.628   9.123  15.618  0.00  0.00    +0.000 NA
ATOM     10  H   UNL     1      47.068   8.509  15.029  0.00  0.00    +0.000 HD
ATOM     11  H   UNL     1      48.001   9.841  14.997  0.00  0.00    +0.000 HD
ENDBRANCH   8   9
ENDBRANCH   7   8
ENDBRANCH   1   7
BRANCH   5  12
ATOM     12  C   UNL     1      45.305   6.746  12.202  0.00  0.00    +0.000 C 
BRANCH  12  13
ATOM     13  N   UNL     1      45.028   5.345  11.956  0.00  0.00    +0.000 N 
ATOM     14  C   UNL     1      44.702   4.430  12.922  0.00  0.00    +0.000 A 
ATOM     15  N   UNL     1      44.498   3.237  12.414  0.00  0.00    +0.000 NA
ATOM     16  C   UNL     1      44.713   3.379  11.066  0.00  0.00    +0.000 A 
ATOM     17  C   UNL     1      44.614   2.424  10.043  0.00  0.00    +0.000 A 
ATOM     18  C   UNL     1      44.894   2.810   8.727  0.00  0.00    +0.000 A 
ATOM     19  C   UNL     1      45.284   4.119   8.437  0.00  0.00    +0.000 A 
ATOM     20  C   UNL     1      45.390   5.088   9.443  0.00  0.00    +0.000 A 
ATOM     21  C   UNL     1      45.079   4.688  10.750  0.00  0.00    +0.000 A 
ENDBRANCH  12  13
ENDBRANCH   5  12
TORSDOF 5
ENDMDL
MODEL 9
REMARK VINA RESULT:    -5.922      3.013      6.049
REMARK INTER + INTRA:          -7.905
REMARK INTER:                  -7.396
REMARK INTRA:                  -0.508
REMARK UNBOUND:                -0.425
REMARK  Name = 
REMARK  5 active torsions:
REMARK  status: ('A' for Active; 'I' for Inactive)
REMARK    1  A    between atoms: N_1  and  C_2
REMARK    2  A    between atoms: C_2  and  C_3
REMARK    3  A    between atoms: C_3  and  C_4
REMARK    4  A    between atoms: C_8  and  C_9
REMARK    5  A    between atoms: C_9  and  N_10
REMARK                            x       y       z     vdW  Elec       q    Type
REMARK                         _______ _______ _______ _____ _____    ______ ____
ROOT
ATOM      1  C   UNL     1      44.451   3.963  10.873  0.00  0.00    +0.000 A 
ATOM      2  C   UNL     1      43.111   4.108  11.220  0.00  0.00    +0.000 A 
ATOM      3  C   UNL     1      42.787   4.910  12.306  0.00  0.00    +0.000 A 
ATOM      4  C   UNL     1      43.800   5.541  13.021  0.00  0.00    +0.000 A 
ATOM      5  C   UNL     1      45.123   5.322  12.642  0.00  0.00    +0.000 A 
ATOM      6  N   UNL     1      45.453   4.542  11.581  0.00  0.00    +0.000 NA
ENDROOT
BRANCH   1   7
ATOM      7  C   UNL     1      44.845   3.129   9.680  0.00  0.00    +0.000 C 
BRANCH   7   8
ATOM      8  C   UNL     1      44.848   3.961   8.398  0.00  0.00    +0.000 C 
BRANCH   8   9
ATOM      9  N   UNL     1      45.714   5.132   8.531  0.00  0.00    +0.000 NA
ATOM     10  H   UNL     1      46.541   5.006   7.950  0.00  0.00    +0.000 HD
ATOM     11  H   UNL     1      46.055   5.196   9.491  0.00  0.00    +0.000 HD
ENDBRANCH   8   9
ENDBRANCH   7   8
ENDBRANCH   1   7
BRANCH   5  12
ATOM     12  C   UNL     1      46.259   5.945  13.412  0.00  0.00    +0.000 C 
BRANCH  12  13
ATOM     13  N   UNL     1      46.559   7.283  12.942  0.00  0.00    +0.000 N 
ATOM     14  C   UNL     1      45.661   8.317  12.897  0.00  0.00    +0.000 A 
ATOM     15  N   UNL     1      46.207   9.417  12.433  0.00  0.00    +0.000 NA
ATOM     16  C   UNL     1      47.508   9.080  12.154  0.00  0.00    +0.000 A 
ATOM     17  C   UNL     1      48.546   9.881  11.653  0.00  0.00    +0.000 A 
ATOM     18  C   UNL     1      49.803   9.304  11.440  0.00  0.00    +0.000 A 
ATOM     19  C   UNL     1      50.019   7.950  11.703  0.00  0.00    +0.000 A 
ATOM     20  C   UNL     1      48.997   7.133  12.202  0.00  0.00    +0.000 A 
ATOM     21  C   UNL     1      47.753   7.736  12.435  0.00  0.00    +0.000 A 
ENDBRANCH  12  13
ENDBRANCH   5  12
TORSDOF 5
ENDMDL
