MODEL 1
REMARK VINA RESULT:    -7.677      0.000      0.000
REMARK INTER + INTRA:         -10.397
REMARK INTER:                 -10.145
REMARK INTRA:                  -0.252
REMARK UNBOUND:                -0.252
REMARK  Name = 
REMARK  6 active torsions:
REMARK  status: ('A' for Active; 'I' for Inactive)
REMARK    1  A    between atoms: N_1  and  C_2
REMARK    2  A    between atoms: C_2  and  C_3
REMARK    3  A    between atoms: C_3  and  O_4
REMARK    4  A    between atoms: O_4  and  C_5
REMARK    5  A    between atoms: N_11  and  C_12
REMARK    6  A    between atoms: C_12  and  C_13
REMARK                            x       y       z     vdW  Elec       q    Type
REMARK                         _______ _______ _______ _____ _____    ______ ____
ROOT
ATOM      1  C   UNL     1      46.436   3.875  13.531  0.00  0.00    +0.000 A 
ATOM      2  C   UNL     1      46.097   5.172  13.899  0.00  0.00    +0.000 A 
ATOM      3  N   UNL     1      45.245   5.966  13.202  0.00  0.00    +0.000 NA
ATOM      4  C   UNL     1      44.732   5.344  12.105  0.00  0.00    +0.000 A 
ATOM      5  C   UNL     1      43.836   5.815  11.120  0.00  0.00    +0.000 A 
ATOM      6  C   UNL     1      43.627   4.786  10.223  0.00  0.00    +0.000 A 
ATOM      7  N   UNL     1      44.362   3.697  10.640  0.00  0.00    +0.000 N 
ATOM      8  C   UNL     1      45.067   4.033  11.773  0.00  0.00    +0.000 A 
ATOM      9  N   UNL     1      45.922   3.238  12.452  0.00  0.00    +0.000 NA
ENDROOT
BRANCH   1  10
ATOM     10  O   UNL     1      47.318   3.189  14.348  0.00  0.00    +0.000 OA
BRANCH  10  11
ATOM     11  C   UNL     1      47.503   3.878  15.593  0.00  0.00    +0.000 C 
BRANCH  11  12
ATOM     12  C   UNL     1      47.791   2.874  16.712  0.00  0.00    +0.000 C 
BRANCH  12  13
ATOM     13  N   UNL     1      46.732   2.838  17.722  0.00  0.00    +0.000 NA
ATOM     14  H   UNL     1      46.144   3.664  17.621  0.00  0.00    +0.000 HD
ATOM     15  H   UNL     1      47.167   2.905  18.644  0.00  0.00    +0.000 HD
ENDBRANCH  12  13
ENDBRANCH  11  12
ENDBRANCH  10  11
ENDBRANCH   1  10
BRANCH   7  16
ATOM     16  C   UNL     1      44.419   2.412   9.956  0.00  0.00    +0.000 C 
BRANCH  16  17
ATOM     17  C   UNL     1      45.381   2.433   8.798  0.00  0.00    +0.000 A 
ATOM     18  C   UNL     1      45.652   3.604   8.083  0.00  0.00    +0.000 A 
ATOM     19  C   UNL     1      46.597   3.592   7.061  0.00  0.00    +0.000 A 
ATOM     20  C   UNL     1      47.228   2.397   6.766  0.00  0.00    +0.000 A 
ATOM     21  N   UNL     1      46.960   1.235   7.398  0.00  0.00    +0.000 NA
ATOM     22  C   UNL     1      46.048   1.279   8.396  0.00  0.00    +0.000 A 
ENDBRANCH  16  17
ENDBRANCH   7  16
TORSDOF 6
ENDMDL
MODEL 2
REMARK VINA RESULT:    -7.602      2.299      3.454
REMARK INTER + INTRA:         -10.298
REMARK INTER:                  -9.861
REMARK INTRA:                  -0.437
REMARK UNBOUND:                -0.252
REMARK  Name = 
REMARK  6 active torsions:
REMARK  status: ('A' for Active; 'I' for Inactive)
REMARK    1  A    between atoms: N_1  and  C_2
REMARK    2  A    between atoms: C_2  and  C_3
REMARK    3  A    between atoms: C_3  and  O_4
REMARK    4  A    between atoms: O_4  and  C_5
REMARK    5  A    between atoms: N_11  and  C_12
REMARK    6  A    between atoms: C_12  and  C_13
REMARK                            x       y       z     vdW  Elec       q    Type
REMARK                         _______ _______ _______ _____ _____    ______ ____
ROOT
ATOM      1  C   UNL     1      46.464   6.338  11.919  0.00  0.00    +0.000 A 
ATOM      2  C   UNL     1      46.225   5.907  13.219  0.00  0.00    +0.000 A 
ATOM      3  N   UNL     1      45.405   4.875  13.542  0.00  0.00    +0.000 NA
ATOM      4  C   UNL     1      44.853   4.285  12.447  0.00  0.00    +0.000 A 
ATOM      5  C   UNL     1      43.947   3.205  12.348  0.00  0.00    +0.000 A 
ATOM      6  C   UNL     1      43.705   2.990  11.006  0.00  0.00    +0.000 A 
ATOM      7  N   UNL     1      44.446   3.900  10.284  0.00  0.00    +0.000 N 
ATOM      8  C   UNL     1      45.129   4.719  11.153  0.00  0.00    +0.000 A 
ATOM      9  N   UNL     1      45.934   5.751  10.819  0.00  0.00    +0.000 NA
ENDROOT
BRANCH   1  10
ATOM     10  O   UNL     1      47.330   7.405  11.748  0.00  0.00    +0.000 OA
BRANCH  10  11
ATOM     11  C   UNL     1      47.088   8.422  12.732  0.00  0.00    +0.000 C 
BRANCH  11  12
ATOM     12  C   UNL     1      46.197   9.518  12.143  0.00  0.00    +0.000 C 
BRANCH  12  13
ATOM     13  N   UNL     1      44.885   9.586  12.791  0.00  0.00    +0.000 NA
ATOM     14  H   UNL     1      44.421   8.683  12.703  0.00  0.00    +0.000 HD
ATOM     15  H   UNL     1      44.310  10.256  12.280  0.00  0.00    +0.000 HD
ENDBRANCH  12  13
ENDBRANCH  11  12
ENDBRANCH  10  11
ENDBRANCH   1  10
BRANCH   7  16
ATOM     16  C   UNL     1      44.459   4.008   8.831  0.00  0.00    +0.000 C 
BRANCH  16  17
ATOM     17  C   UNL     1      45.491   3.106   8.208  0.00  0.00    +0.000 A 
ATOM     18  C   UNL     1      46.412   3.576   7.266  0.00  0.00    +0.000 A 
ATOM     19  C   UNL     1      47.390   2.722   6.765  0.00  0.00    +0.000 A 
ATOM     20  C   UNL     1      47.404   1.411   7.204  0.00  0.00    +0.000 A 
ATOM     21  N   UNL     1      46.504   0.905   8.074  0.00  0.00    +0.000 NA
ATOM     22  C   UNL     1      45.573   1.760   8.555  0.00  0.00    +0.000 A 
ENDBRANCH  16  17
ENDBRANCH   7  16
TORSDOF 6
ENDMDL
MODEL 3
REMARK VINA RESULT:    -7.596      2.644      6.322
REMARK INTER + INTRA:         -10.291
REMARK INTER:                  -9.902
REMARK INTRA:                  -0.389
REMARK UNBOUND:                -0.252
REMARK  Name = 
REMARK  6 active torsions:
REMARK  status: ('A' for Active; 'I' for Inactive)
REMARK    1  A    between atoms: N_1  and  C_2
REMARK    2  A    between atoms: C_2  and  C_3
REMARK    3  A    between atoms: C_3  and  O_4
REMARK    4  A    between atoms: O_4  and  C_5
REMARK    5  A    between atoms: N_11  and  C_12
REMARK    6  A    between atoms: C_12  and  C_13
REMARK                            x       y       z     vdW  Elec       q    Type
REMARK                         _______ _______ _______ _____ _____    ______ ____
ROOT
ATOM      1  C   UNL     1      45.508   3.904   8.452  0.00  0.00    +0.000 A 
ATOM      2  C   UNL     1      44.925   2.642   8.449  0.00  0.00    +0.000 A 
ATOM      3  N   UNL     1      44.175   2.146   9.465  0.00  0.00    +0.000 NA
ATOM      4  C   UNL     1      44.031   3.031  10.489  0.00  0.00    +0.000 A 
ATOM      5  C   UNL     1      43.350   2.904  11.720  0.00  0.00    +0.000 A 
ATOM      6  C   UNL     1      43.501   4.096  12.401  0.00  0.00    +0.000 A 
ATOM      7  N   UNL     1      44.246   4.949  11.615  0.00  0.00    +0.000 N 
ATOM      8  C   UNL     1      44.603   4.301  10.456  0.00  0.00    +0.000 A 
ATOM      9  N   UNL     1      45.360   4.802   9.456  0.00  0.00    +0.000 NA
ENDROOT
BRANCH   1  10
ATOM     10  O   UNL     1      46.244   4.271   7.338  0.00  0.00    +0.000 OA
BRANCH  10  11
ATOM     11  C   UNL     1      46.524   3.131   6.513  0.00  0.00    +0.000 C 
BRANCH  11  12
ATOM     12  C   UNL     1      47.939   2.618   6.789  0.00  0.00    +0.000 C 
BRANCH  12  13
ATOM     13  N   UNL     1      48.480   1.832   5.678  0.00  0.00    +0.000 NA
ATOM     14  H   UNL     1      47.808   1.112   5.419  0.00  0.00    +0.000 HD
ATOM     15  H   UNL     1      49.313   1.343   6.008  0.00  0.00    +0.000 HD
ENDBRANCH  12  13
ENDBRANCH  11  12
ENDBRANCH  10  11
ENDBRANCH   1  10
BRANCH   7  16
ATOM     16  C   UNL     1      44.634   6.304  11.983  0.00  0.00    +0.000 C 
BRANCH  16  17
ATOM     17  C   UNL     1      46.093   6.393  12.344  0.00  0.00    +0.000 A 
ATOM     18  C   UNL     1      46.960   7.284  11.702  0.00  0.00    +0.000 A 
ATOM     19  C   UNL     1      48.287   7.379  12.112  0.00  0.00    +0.000 A 
ATOM     20  C   UNL     1      48.717   6.558  13.139  0.00  0.00    +0.000 A 
ATOM     21  N   UNL     1      47.926   5.651  13.751  0.00  0.00    +0.000 NA
ATOM     22  C   UNL     1      46.638   5.590  13.342  0.00  0.00    +0.000 A 
ENDBRANCH  16  17
ENDBRANCH   7  16
TORSDOF 6
ENDMDL
MODEL 4
REMARK VINA RESULT:    -7.162      1.639      2.130
REMARK INTER + INTRA:          -9.716
REMARK INTER:                  -9.274
REMARK INTRA:                  -0.442
REMARK UNBOUND:                -0.252
REMARK  Name = 
REMARK  6 active torsions:
REMARK  status: ('A' for Active; 'I' for Inactive)
REMARK    1  A    between atoms: N_1  and  C_2
REMARK    2  A    between atoms: C_2  and  C_3
REMARK    3  A    between atoms: C_3  and  O_4
REMARK    4  A    between atoms: O_4  and  C_5
REMARK    5  A    between atoms: N_11  and  C_12
REMARK    6  A    between atoms: C_12  and  C_13
REMARK                            x       y       z     vdW  Elec       q    Type
REMARK                         _______ _______ _______ _____ _____    ______ ____
ROOT
ATOM      1  C   UNL     1      47.074   4.291  14.096  0.00  0.00    +0.000 A 
ATOM      2  C   UNL     1      47.581   5.525  14.486  0.00  0.00    +0.000 A 
ATOM      3  N   UNL     1      47.231   6.707  13.919  0.00  0.00    +0.000 NA
ATOM      4  C   UNL     1      46.304   6.559  12.934  0.00  0.00    +0.000 A 
ATOM      5  C   UNL     1      45.695   7.522  12.098  0.00  0.00    +0.000 A 
ATOM      6  C   UNL     1      44.815   6.853  11.269  0.00  0.00    +0.000 A 
ATOM      7  N   UNL     1      44.862   5.512  11.585  0.00  0.00    +0.000 N 
ATOM      8  C   UNL     1      45.791   5.313  12.580  0.00  0.00    +0.000 A 
ATOM      9  N   UNL     1      46.140   4.130  13.129  0.00  0.00    +0.000 NA
ENDROOT
BRANCH   1  10
ATOM     10  O   UNL     1      47.526   3.171  14.774  0.00  0.00    +0.000 OA
BRANCH  10  11
ATOM     11  C   UNL     1      47.531   3.399  16.191  0.00  0.00    +0.000 C 
BRANCH  11  12
ATOM     12  C   UNL     1      48.727   2.691  16.832  0.00  0.00    +0.000 C 
BRANCH  12  13
ATOM     13  N   UNL     1      49.383   1.755  15.918  0.00  0.00    +0.000 NA
ATOM     14  H   UNL     1      48.721   1.468  15.199  0.00  0.00    +0.000 HD
ATOM     15  H   UNL     1      49.623   0.911  16.441  0.00  0.00    +0.000 HD
ENDBRANCH  12  13
ENDBRANCH  11  12
ENDBRANCH  10  11
ENDBRANCH   1  10
BRANCH   7  16
ATOM     16  C   UNL     1      44.087   4.468  10.928  0.00  0.00    +0.000 C 
BRANCH  16  17
ATOM     17  C   UNL     1      44.844   3.835   9.791  0.00  0.00    +0.000 A 
ATOM     18  C   UNL     1      44.956   2.447   9.659  0.00  0.00    +0.000 A 
ATOM     19  C   UNL     1      45.610   1.904   8.557  0.00  0.00    +0.000 A 
ATOM     20  C   UNL     1      46.158   2.770   7.628  0.00  0.00    +0.000 A 
ATOM     21  N   UNL     1      46.115   4.114   7.743  0.00  0.00    +0.000 NA
ATOM     22  C   UNL     1      45.461   4.614   8.816  0.00  0.00    +0.000 A 
ENDBRANCH  16  17
ENDBRANCH   7  16
TORSDOF 6
ENDMDL
MODEL 5
REMARK VINA RESULT:    -6.308      3.315      7.267
REMARK INTER + INTRA:          -8.589
REMARK INTER:                  -8.052
REMARK INTRA:                  -0.537
REMARK UNBOUND:                -0.252
REMARK  Name = 
REMARK  6 active torsions:
REMARK  status: ('A' for Active; 'I' for Inactive)
REMARK    1  A    between atoms: N_1  and  C_2
REMARK    2  A    between atoms: C_2  and  C_3
REMARK    3  A    between atoms: C_3  and  O_4
REMARK    4  A    between atoms: O_4  and  C_5
REMARK    5  A    between atoms: N_11  and  C_12
REMARK    6  A    between atoms: C_12  and  C_13
REMARK                            x       y       z     vdW  Elec       q    Type
REMARK                         _______ _______ _______ _____ _____    ______ ____
ROOT
ATOM      1  C   UNL     1      45.990   4.491  13.501  0.00  0.00    +0.000 A 
ATOM      2  C   UNL     1      46.332   5.472  12.578  0.00  0.00    +0.000 A 
ATOM      3  N   UNL     1      47.258   6.439  12.798  0.00  0.00    +0.000 NA
ATOM      4  C   UNL     1      47.841   6.333  14.024  0.00  0.00    +0.000 A 
ATOM      5  C   UNL     1      48.826   7.135  14.641  0.00  0.00    +0.000 A 
ATOM      6  C   UNL     1      49.080   6.594  15.886  0.00  0.00    +0.000 A 
ATOM      7  N   UNL     1      48.287   5.478  16.040  0.00  0.00    +0.000 N 
ATOM      8  C   UNL     1      47.501   5.323  14.921  0.00  0.00    +0.000 A 
ATOM      9  N   UNL     1      46.574   4.363  14.717  0.00  0.00    +0.000 NA
ENDROOT
BRANCH   1  10
ATOM     10  O   UNL     1      45.027   3.568  13.128  0.00  0.00    +0.000 OA
BRANCH  10  11
ATOM     11  C   UNL     1      43.807   4.226  12.759  0.00  0.00    +0.000 C 
BRANCH  11  12
ATOM     12  C   UNL     1      43.203   3.557  11.521  0.00  0.00    +0.000 C 
BRANCH  12  13
ATOM     13  N   UNL     1      43.078   2.106  11.671  0.00  0.00    +0.000 NA
ATOM     14  H   UNL     1      42.259   1.898  12.240  0.00  0.00    +0.000 HD
ATOM     15  H   UNL     1      43.886   1.767  12.194  0.00  0.00    +0.000 HD
ENDBRANCH  12  13
ENDBRANCH  11  12
ENDBRANCH  10  11
ENDBRANCH   1  10
BRANCH   7  16
ATOM     16  C   UNL     1      48.251   4.630  17.224  0.00  0.00    +0.000 C 
BRANCH  16  17
ATOM     17  C   UNL     1      49.391   3.647  17.247  0.00  0.00    +0.000 A 
ATOM     18  C   UNL     1      50.638   3.973  17.791  0.00  0.00    +0.000 A 
ATOM     19  C   UNL     1      51.643   3.011  17.849  0.00  0.00    +0.000 A 
ATOM     20  C   UNL     1      51.379   1.755  17.336  0.00  0.00    +0.000 A 
ATOM     21  N   UNL     1      50.208   1.414  16.759  0.00  0.00    +0.000 NA
ATOM     22  C   UNL     1      49.244   2.363  16.728  0.00  0.00    +0.000 A 
ENDBRANCH  16  17
ENDBRANCH   7  16
TORSDOF 6
ENDMDL
MODEL 6
REMARK VINA RESULT:    -6.140      2.324      2.549
REMARK INTER + INTRA:          -8.366
REMARK INTER:                  -8.101
REMARK INTRA:                  -0.266
REMARK UNBOUND:                -0.252
REMARK  Name = 
REMARK  6 active torsions:
REMARK  status: ('A' for Active; 'I' for Inactive)
REMARK    1  A    between atoms: N_1  and  C_2
REMARK    2  A    between atoms: C_2  and  C_3
REMARK    3  A    between atoms: C_3  and  O_4
REMARK    4  A    between atoms: O_4  and  C_5
REMARK    5  A    between atoms: N_11  and  C_12
REMARK    6  A    between atoms: C_12  and  C_13
REMARK                            x       y       z     vdW  Elec       q    Type
REMARK                         _______ _______ _______ _____ _____    ______ ____
ROOT
ATOM      1  C   UNL     1      47.045   6.176  12.670  0.00  0.00    +0.000 A 
ATOM      2  C   UNL     1      46.402   7.379  12.940  0.00  0.00    +0.000 A 
ATOM      3  N   UNL     1      45.117   7.650  12.599  0.00  0.00    +0.000 NA
ATOM      4  C   UNL     1      44.509   6.602  11.978  0.00  0.00    +0.000 A 
ATOM      5  C   UNL     1      43.202   6.480  11.457  0.00  0.00    +0.000 A 
ATOM      6  C   UNL     1      43.081   5.207  10.936  0.00  0.00    +0.000 A 
ATOM      7  N   UNL     1      44.274   4.547  11.134  0.00  0.00    +0.000 N 
ATOM      8  C   UNL     1      45.168   5.398  11.743  0.00  0.00    +0.000 A 
ATOM      9  N   UNL     1      46.449   5.120  12.067  0.00  0.00    +0.000 NA
ENDROOT
BRANCH   1  10
ATOM     10  O   UNL     1      48.360   6.047  13.084  0.00  0.00    +0.000 OA
BRANCH  10  11
ATOM     11  C   UNL     1      48.836   7.273  13.659  0.00  0.00    +0.000 C 
BRANCH  11  12
ATOM     12  C   UNL     1      49.366   7.018  15.073  0.00  0.00    +0.000 C 
BRANCH  12  13
ATOM     13  N   UNL     1      48.343   7.212  16.101  0.00  0.00    +0.000 NA
ATOM     14  H   UNL     1      47.507   6.689  15.846  0.00  0.00    +0.000 HD
ATOM     15  H   UNL     1      48.076   8.197  16.105  0.00  0.00    +0.000 HD
ENDBRANCH  12  13
ENDBRANCH  11  12
ENDBRANCH  10  11
ENDBRANCH   1  10
BRANCH   7  16
ATOM     16  C   UNL     1      44.557   3.180  10.716  0.00  0.00    +0.000 C 
BRANCH  16  17
ATOM     17  C   UNL     1      45.264   3.132   9.388  0.00  0.00    +0.000 A 
ATOM     18  C   UNL     1      45.670   1.925   8.809  0.00  0.00    +0.000 A 
ATOM     19  C   UNL     1      46.263   1.922   7.550  0.00  0.00    +0.000 A 
ATOM     20  C   UNL     1      46.457   3.135   6.914  0.00  0.00    +0.000 A 
ATOM     21  N   UNL     1      46.124   4.325   7.458  0.00  0.00    +0.000 NA
ATOM     22  C   UNL     1      45.538   4.297   8.677  0.00  0.00    +0.000 A 
ENDBRANCH  16  17
ENDBRANCH   7  16
TORSDOF 6
ENDMDL
MODEL 7
REMARK VINA RESULT:    -5.999      3.137      5.226
REMARK INTER + INTRA:          -8.180
REMARK INTER:                  -7.653
REMARK INTRA:                  -0.526
REMARK UNBOUND:                -0.252
REMARK  Name = 
REMARK  6 active torsions:
REMARK  status: ('A' for Active; 'I' for Inactive)
REMARK    1  A    between atoms: N_1  and  C_2
REMARK    2  A    between atoms: C_2  and  C_3
REMARK    3  A    between atoms: C_3  and  O_4
REMARK    4  A    between atoms: O_4  and  C_5
REMARK    5  A    between atoms: N_11  and  C_12
REMARK    6  A    between atoms: C_12  and  C_13
REMARK                            x       y       z     vdW  Elec       q    Type
REMARK                         _______ _______ _______ _____ _____    ______ ____
ROOT
ATOM      1  C   UNL     1      46.742   3.922  13.739  0.00  0.00    +0.000 A 
ATOM      2  C   UNL     1      45.897   3.258  12.858  0.00  0.00    +0.000 A 
ATOM      3  N   UNL     1      45.067   3.879  11.983  0.00  0.00    +0.000 NA
ATOM      4  C   UNL     1      45.166   5.235  12.041  0.00  0.00    +0.000 A 
ATOM      5  C   UNL     1      44.477   6.235  11.320  0.00  0.00    +0.000 A 
ATOM      6  C   UNL     1      44.955   7.458  11.749  0.00  0.00    +0.000 A 
ATOM      7  N   UNL     1      45.923   7.231  12.703  0.00  0.00    +0.000 N 
ATOM      8  C   UNL     1      46.042   5.877  12.914  0.00  0.00    +0.000 A 
ATOM      9  N   UNL     1      46.864   5.271  13.797  0.00  0.00    +0.000 NA
ENDROOT
BRANCH   1  10
ATOM     10  O   UNL     1      47.534   3.149  14.571  0.00  0.00    +0.000 OA
BRANCH  10  11
ATOM     11  C   UNL     1      47.474   3.628  15.923  0.00  0.00    +0.000 C 
BRANCH  11  12
ATOM     12  C   UNL     1      48.436   2.829  16.806  0.00  0.00    +0.000 C 
BRANCH  12  13
ATOM     13  N   UNL     1      49.263   1.897  16.037  0.00  0.00    +0.000 NA
ATOM     14  H   UNL     1      49.546   1.125  16.639  0.00  0.00    +0.000 HD
ATOM     15  H   UNL     1      50.121   2.379  15.765  0.00  0.00    +0.000 HD
ENDBRANCH  12  13
ENDBRANCH  11  12
ENDBRANCH  10  11
ENDBRANCH   1  10
BRANCH   7  16
ATOM     16  C   UNL     1      46.664   8.267  13.410  0.00  0.00    +0.000 C 
BRANCH  16  17
ATOM     17  C   UNL     1      48.131   8.237  13.077  0.00  0.00    +0.000 A 
ATOM     18  C   UNL     1      48.590   8.241  11.755  0.00  0.00    +0.000 A 
ATOM     19  C   UNL     1      49.957   8.278  11.494  0.00  0.00    +0.000 A 
ATOM     20  C   UNL     1      50.830   8.284  12.567  0.00  0.00    +0.000 A 
ATOM     21  N   UNL     1      50.430   8.231  13.855  0.00  0.00    +0.000 NA
ATOM     22  C   UNL     1      49.097   8.210  14.080  0.00  0.00    +0.000 A 
ENDBRANCH  16  17
ENDBRANCH   7  16
TORSDOF 6
ENDMDL
MODEL 8
REMARK VINA RESULT:    -5.406      4.031      6.364
REMARK INTER + INTRA:          -7.396
REMARK INTER:                  -7.023
REMARK INTRA:                  -0.374
REMARK UNBOUND:                -0.252
REMARK  Name = 
REMARK  6 active torsions:
REMARK  status: ('A' for Active; 'I' for Inactive)
REMARK    1  A    between atoms: N_1  and  C_2
REMARK    2  A    between atoms: C_2  and  C_3
REMARK    3  A    between atoms: C_3  and  O_4
REMARK    4  A    between atoms: O_4  and  C_5
REMARK    5  A    between atoms: N_11  and  C_12
REMARK    6  A    between atoms: C_12  and  C_13
REMARK                            x       y       z     vdW  Elec       q    Type
REMARK                         _______ _______ _______ _____ _____    ______ ____
ROOT
ATOM      1  C   UNL     1      45.513   4.633  11.902  0.00  0.00    +0.000 A 
ATOM      2  C   UNL     1      45.695   3.747  12.958  0.00  0.00    +0.000 A 
ATOM      3  N   UNL     1      46.511   3.979  14.016  0.00  0.00    +0.000 NA
ATOM      4  C   UNL     1      47.122   5.193  13.948  0.00  0.00    +0.000 A 
ATOM      5  C   UNL     1      48.045   5.804  14.826  0.00  0.00    +0.000 A 
ATOM      6  C   UNL     1      48.353   7.045  14.304  0.00  0.00    +0.000 A 
ATOM      7  N   UNL     1      47.636   7.212  13.140  0.00  0.00    +0.000 N 
ATOM      8  C   UNL     1      46.902   6.075  12.892  0.00  0.00    +0.000 A 
ATOM      9  N   UNL     1      46.101   5.851  11.828  0.00  0.00    +0.000 NA
ENDROOT
BRANCH   1  10
ATOM     10  O   UNL     1      44.642   4.255  10.893  0.00  0.00    +0.000 OA
BRANCH  10  11
ATOM     11  C   UNL     1      43.345   3.950  11.426  0.00  0.00    +0.000 C 
BRANCH  11  12
ATOM     12  C   UNL     1      42.604   5.242  11.777  0.00  0.00    +0.000 C 
BRANCH  12  13
ATOM     13  N   UNL     1      42.547   5.485  13.219  0.00  0.00    +0.000 NA
ATOM     14  H   UNL     1      42.294   6.457  13.386  0.00  0.00    +0.000 HD
ATOM     15  H   UNL     1      43.485   5.361  13.602  0.00  0.00    +0.000 HD
ENDBRANCH  12  13
ENDBRANCH  11  12
ENDBRANCH  10  11
ENDBRANCH   1  10
BRANCH   7  16
ATOM     16  C   UNL     1      47.691   8.388  12.282  0.00  0.00    +0.000 C 
BRANCH  16  17
ATOM     17  C   UNL     1      49.091   8.674  11.807  0.00  0.00    +0.000 A 
ATOM     18  C   UNL     1      49.957   7.654  11.400  0.00  0.00    +0.000 A 
ATOM     19  C   UNL     1      51.220   7.969  10.908  0.00  0.00    +0.000 A 
ATOM     20  C   UNL     1      51.591   9.301  10.861  0.00  0.00    +0.000 A 
ATOM     21  N   UNL     1      50.805  10.311  11.289  0.00  0.00    +0.000 NA
ATOM     22  C   UNL     1      49.578   9.977  11.750  0.00  0.00    +0.000 A 
ENDBRANCH  16  17
ENDBRANCH   7  16
TORSDOF 6
ENDMDL
MODEL 9
REMARK VINA RESULT:    -5.381      3.748      5.240
REMARK INTER + INTRA:          -7.363
REMARK INTER:                  -6.740
REMARK INTRA:                  -0.623
REMARK UNBOUND:                -0.252
REMARK  Name = 
REMARK  6 active torsions:
REMARK  status: ('A' for Active; 'I' for Inactive)
REMARK    1  A    between atoms: N_1  and  C_2
REMARK    2  A    between atoms: C_2  and  C_3
REMARK    3  A    between atoms: C_3  and  O_4
REMARK    4  A    between atoms: O_4  and  C_5
REMARK    5  A    between atoms: N_11  and  C_12
REMARK    6  A    between atoms: C_12  and  C_13
REMARK                            x       y       z     vdW  Elec       q    Type
REMARK                         _______ _______ _______ _____ _____    ______ ____
ROOT
ATOM      1  C   UNL     1      49.250   6.146  16.214  0.00  0.00    +0.000 A 
ATOM      2  C   UNL     1      49.346   7.372  16.863  0.00  0.00    +0.000 A 
ATOM      3  N   UNL     1      48.946   8.553  16.327  0.00  0.00    +0.000 NA
ATOM      4  C   UNL     1      48.413   8.407  15.083  0.00  0.00    +0.000 A 
ATOM      5  C   UNL     1      47.900   9.373  14.188  0.00  0.00    +0.000 A 
ATOM      6  C   UNL     1      47.472   8.704  13.058  0.00  0.00    +0.000 A 
ATOM      7  N   UNL     1      47.700   7.358  13.244  0.00  0.00    +0.000 N 
ATOM      8  C   UNL     1      48.303   7.164  14.465  0.00  0.00    +0.000 A 
ATOM      9  N   UNL     1      48.708   5.984  14.983  0.00  0.00    +0.000 NA
ENDROOT
BRANCH   1  10
ATOM     10  O   UNL     1      49.698   5.026  16.893  0.00  0.00    +0.000 OA
BRANCH  10  11
ATOM     11  C   UNL     1      48.682   4.014  16.936  0.00  0.00    +0.000 C 
BRANCH  11  12
ATOM     12  C   UNL     1      49.311   2.650  17.230  0.00  0.00    +0.000 C 
BRANCH  12  13
ATOM     13  N   UNL     1      49.386   1.797  16.043  0.00  0.00    +0.000 NA
ATOM     14  H   UNL     1      50.084   2.173  15.403  0.00  0.00    +0.000 HD
ATOM     15  H   UNL     1      48.491   1.848  15.554  0.00  0.00    +0.000 HD
ENDBRANCH  12  13
ENDBRANCH  11  12
ENDBRANCH  10  11
ENDBRANCH   1  10
BRANCH   7  16
ATOM     16  C   UNL     1      47.395   6.314  12.274  0.00  0.00    +0.000 C 
BRANCH  16  17
ATOM     17  C   UNL     1      45.991   5.794  12.428  0.00  0.00    +0.000 A 
ATOM     18  C   UNL     1      44.905   6.392  11.779  0.00  0.00    +0.000 A 
ATOM     19  C   UNL     1      43.633   5.839  11.899  0.00  0.00    +0.000 A 
ATOM     20  C   UNL     1      43.479   4.714  12.688  0.00  0.00    +0.000 A 
ATOM     21  N   UNL     1      44.491   4.135  13.370  0.00  0.00    +0.000 NA
ATOM     22  C   UNL     1      45.718   4.685  13.225  0.00  0.00    +0.000 A 
ENDBRANCH  16  17
ENDBRANCH   7  16
TORSDOF 6
ENDMDL
