MODEL 1
REMARK VINA RESULT:    -8.477      0.000      0.000
REMARK INTER + INTRA:         -10.620
REMARK INTER:                 -10.459
REMARK INTRA:                  -0.161
REMARK UNBOUND:                -0.161
REMARK  Name = 
REMARK  4 active torsions:
REMARK  status: ('A' for Active; 'I' for Inactive)
REMARK    1  A    between atoms: C_2  and  C_4
REMARK    2  A    between atoms: N_8  and  C_9
REMARK    3  A    between atoms: C_9  and  C_10
REMARK    4  A    between atoms: C_13  and  C_14
REMARK                            x       y       z     vdW  Elec       q    Type
REMARK                         _______ _______ _______ _____ _____    ______ ____
ROOT
ATOM      1  C   UNL     1      44.454   3.940  11.309  0.00  0.00    +0.000 C 
ATOM      2  C   UNL     1      42.933   3.981  11.383  0.00  0.00    +0.000 C 
ATOM      3  C   UNL     1      43.695   5.258  11.364  0.00  0.00    +0.000 C 
ATOM      4  F   UNL     1      43.740   5.990  12.539  0.00  0.00    +0.000 F 
ENDROOT
BRANCH   1   9
ATOM      5  C   UNL     1      47.815   5.967  14.508  0.00  0.00    +0.000 A 
ATOM      6  C   UNL     1      47.183   4.899  15.100  0.00  0.00    +0.000 A 
ATOM      7  N   UNL     1      46.319   4.085  14.450  0.00  0.00    +0.000 NA
ATOM      8  C   UNL     1      46.071   4.363  13.159  0.00  0.00    +0.000 A 
ATOM      9  N   UNL     1      45.204   3.494  12.496  0.00  0.00    +0.000 N 
ATOM     10  N   UNL     1      46.620   5.404  12.508  0.00  0.00    +0.000 NA
ATOM     11  C   UNL     1      47.474   6.191  13.198  0.00  0.00    +0.000 A 
ATOM     12  H   UNL     1      44.753   2.902  13.181  0.00  0.00    +0.000 HD
BRANCH   5  14
ATOM     13  N   UNL     1      48.297   7.865  15.939  0.00  0.00    +0.000 N 
ATOM     14  C   UNL     1      48.788   6.837  15.182  0.00  0.00    +0.000 C 
ATOM     15  O   UNL     1      49.988   6.621  15.108  0.00  0.00    +0.000 OA
ATOM     16  H   UNL     1      48.977   8.372  16.493  0.00  0.00    +0.000 HD
ATOM     17  H   UNL     1      47.333   7.917  16.244  0.00  0.00    +0.000 HD
ENDBRANCH   5  14
ENDBRANCH   1   9
BRANCH   1  18
ATOM     18  C   UNL     1      45.110   3.575   9.978  0.00  0.00    +0.000 A 
ATOM     19  C   UNL     1      45.260   2.242   9.560  0.00  0.00    +0.000 A 
ATOM     20  C   UNL     1      45.888   1.920   8.351  0.00  0.00    +0.000 A 
ATOM     21  C   UNL     1      46.376   2.930   7.510  0.00  0.00    +0.000 A 
ATOM     22  C   UNL     1      46.202   4.264   7.897  0.00  0.00    +0.000 A 
ATOM     23  C   UNL     1      45.583   4.574   9.110  0.00  0.00    +0.000 A 
BRANCH  21  24
ATOM     24  C   UNL     1      47.085   2.617   6.218  0.00  0.00    +0.000 C 
ATOM     25  F   UNL     1      46.766   3.462   5.198  0.00  0.00    +0.000 F 
ATOM     26  F   UNL     1      48.442   2.670   6.337  0.00  0.00    +0.000 F 
ATOM     27  F   UNL     1      46.802   1.364   5.763  0.00  0.00    +0.000 F 
ENDBRANCH  21  24
ENDBRANCH   1  18
TORSDOF 4
ENDMDL
MODEL 2
REMARK VINA RESULT:    -8.262      1.317      1.942
REMARK INTER + INTRA:         -10.354
REMARK INTER:                 -10.634
REMARK INTRA:                   0.279
REMARK UNBOUND:                -0.161
REMARK  Name = 
REMARK  4 active torsions:
REMARK  status: ('A' for Active; 'I' for Inactive)
REMARK    1  A    between atoms: C_2  and  C_4
REMARK    2  A    between atoms: N_8  and  C_9
REMARK    3  A    between atoms: C_9  and  C_10
REMARK    4  A    between atoms: C_13  and  C_14
REMARK                            x       y       z     vdW  Elec       q    Type
REMARK                         _______ _______ _______ _____ _____    ______ ____
ROOT
ATOM      1  C   UNL     1      44.226   4.766  11.116  0.00  0.00    +0.000 C 
ATOM      2  C   UNL     1      43.752   3.935  12.301  0.00  0.00    +0.000 C 
ATOM      3  C   UNL     1      42.751   4.471  11.342  0.00  0.00    +0.000 C 
ATOM      4  F   UNL     1      41.938   5.503  11.780  0.00  0.00    +0.000 F 
ENDROOT
BRANCH   1   9
ATOM      5  C   UNL     1      48.279   6.822  13.349  0.00  0.00    +0.000 A 
ATOM      6  C   UNL     1      47.729   7.711  12.456  0.00  0.00    +0.000 A 
ATOM      7  N   UNL     1      46.567   7.490  11.796  0.00  0.00    +0.000 NA
ATOM      8  C   UNL     1      45.943   6.324  12.033  0.00  0.00    +0.000 A 
ATOM      9  N   UNL     1      44.733   6.126  11.369  0.00  0.00    +0.000 N 
ATOM     10  N   UNL     1      46.424   5.383  12.865  0.00  0.00    +0.000 NA
ATOM     11  C   UNL     1      47.586   5.647  13.499  0.00  0.00    +0.000 A 
ATOM     12  H   UNL     1      44.632   6.839  10.658  0.00  0.00    +0.000 HD
BRANCH   5  14
ATOM     13  N   UNL     1      50.495   7.795  13.501  0.00  0.00    +0.000 N 
ATOM     14  C   UNL     1      49.514   7.060  14.108  0.00  0.00    +0.000 C 
ATOM     15  O   UNL     1      49.638   6.658  15.255  0.00  0.00    +0.000 OA
ATOM     16  H   UNL     1      51.281   8.052  14.087  0.00  0.00    +0.000 HD
ATOM     17  H   UNL     1      50.334   8.365  12.681  0.00  0.00    +0.000 HD
ENDBRANCH   5  14
ENDBRANCH   1   9
BRANCH   1  18
ATOM     18  C   UNL     1      44.904   4.050   9.948  0.00  0.00    +0.000 A 
ATOM     19  C   UNL     1      44.889   2.651   9.819  0.00  0.00    +0.000 A 
ATOM     20  C   UNL     1      45.538   2.006   8.759  0.00  0.00    +0.000 A 
ATOM     21  C   UNL     1      46.214   2.748   7.781  0.00  0.00    +0.000 A 
ATOM     22  C   UNL     1      46.207   4.144   7.877  0.00  0.00    +0.000 A 
ATOM     23  C   UNL     1      45.565   4.777   8.943  0.00  0.00    +0.000 A 
BRANCH  21  24
ATOM     24  C   UNL     1      46.949   2.083   6.645  0.00  0.00    +0.000 C 
ATOM     25  F   UNL     1      46.822   0.727   6.629  0.00  0.00    +0.000 F 
ATOM     26  F   UNL     1      46.526   2.514   5.424  0.00  0.00    +0.000 F 
ATOM     27  F   UNL     1      48.289   2.330   6.682  0.00  0.00    +0.000 F 
ENDBRANCH  21  24
ENDBRANCH   1  18
TORSDOF 4
ENDMDL
MODEL 3
REMARK VINA RESULT:    -7.902      1.215      1.718
REMARK INTER + INTRA:          -9.910
REMARK INTER:                 -10.549
REMARK INTRA:                   0.639
REMARK UNBOUND:                -0.161
REMARK  Name = 
REMARK  4 active torsions:
REMARK  status: ('A' for Active; 'I' for Inactive)
REMARK    1  A    between atoms: C_2  and  C_4
REMARK    2  A    between atoms: N_8  and  C_9
REMARK    3  A    between atoms: C_9  and  C_10
REMARK    4  A    between atoms: C_13  and  C_14
REMARK                            x       y       z     vdW  Elec       q    Type
REMARK                         _______ _______ _______ _____ _____    ______ ____
ROOT
ATOM      1  C   UNL     1      44.317   4.669  11.077  0.00  0.00    +0.000 C 
ATOM      2  C   UNL     1      43.438   3.845  12.008  0.00  0.00    +0.000 C 
ATOM      3  C   UNL     1      42.799   4.778  11.043  0.00  0.00    +0.000 C 
ATOM      4  F   UNL     1      42.215   5.924  11.557  0.00  0.00    +0.000 F 
ENDROOT
BRANCH   1   9
ATOM      5  C   UNL     1      47.562   5.271  14.916  0.00  0.00    +0.000 A 
ATOM      6  C   UNL     1      47.751   6.258  13.978  0.00  0.00    +0.000 A 
ATOM      7  N   UNL     1      46.952   6.429  12.899  0.00  0.00    +0.000 NA
ATOM      8  C   UNL     1      45.934   5.565  12.749  0.00  0.00    +0.000 A 
ATOM      9  N   UNL     1      45.103   5.776  11.649  0.00  0.00    +0.000 N 
ATOM     10  N   UNL     1      45.693   4.551  13.598  0.00  0.00    +0.000 NA
ATOM     11  C   UNL     1      46.517   4.418  14.660  0.00  0.00    +0.000 A 
ATOM     12  H   UNL     1      45.542   6.449  11.034  0.00  0.00    +0.000 HD
BRANCH   5  14
ATOM     13  N   UNL     1      47.878   4.326  17.127  0.00  0.00    +0.000 N 
ATOM     14  C   UNL     1      48.389   5.093  16.117  0.00  0.00    +0.000 C 
ATOM     15  O   UNL     1      49.511   5.573  16.189  0.00  0.00    +0.000 OA
ATOM     16  H   UNL     1      48.514   4.114  17.887  0.00  0.00    +0.000 HD
ATOM     17  H   UNL     1      47.093   3.701  17.005  0.00  0.00    +0.000 HD
ENDBRANCH   5  14
ENDBRANCH   1   9
BRANCH   1  18
ATOM     18  C   UNL     1      44.986   3.968   9.895  0.00  0.00    +0.000 A 
ATOM     19  C   UNL     1      45.017   2.568   9.777  0.00  0.00    +0.000 A 
ATOM     20  C   UNL     1      45.659   1.938   8.704  0.00  0.00    +0.000 A 
ATOM     21  C   UNL     1      46.280   2.695   7.701  0.00  0.00    +0.000 A 
ATOM     22  C   UNL     1      46.226   4.091   7.787  0.00  0.00    +0.000 A 
ATOM     23  C   UNL     1      45.592   4.709   8.866  0.00  0.00    +0.000 A 
BRANCH  21  24
ATOM     24  C   UNL     1      47.005   2.047   6.549  0.00  0.00    +0.000 C 
ATOM     25  F   UNL     1      48.357   2.209   6.592  0.00  0.00    +0.000 F 
ATOM     26  F   UNL     1      46.792   0.703   6.485  0.00  0.00    +0.000 F 
ATOM     27  F   UNL     1      46.610   2.544   5.344  0.00  0.00    +0.000 F 
ENDBRANCH  21  24
ENDBRANCH   1  18
TORSDOF 4
ENDMDL
MODEL 4
REMARK VINA RESULT:    -7.067      4.281      6.823
REMARK INTER + INTRA:          -8.881
REMARK INTER:                  -8.879
REMARK INTRA:                  -0.002
REMARK UNBOUND:                -0.161
REMARK  Name = 
REMARK  4 active torsions:
REMARK  status: ('A' for Active; 'I' for Inactive)
REMARK    1  A    between atoms: C_2  and  C_4
REMARK    2  A    between atoms: N_8  and  C_9
REMARK    3  A    between atoms: C_9  and  C_10
REMARK    4  A    between atoms: C_13  and  C_14
REMARK                            x       y       z     vdW  Elec       q    Type
REMARK                         _______ _______ _______ _____ _____    ______ ____
ROOT
ATOM      1  C   UNL     1      44.102   5.296  11.303  0.00  0.00    +0.000 C 
ATOM      2  C   UNL     1      43.320   6.355  10.536  0.00  0.00    +0.000 C 
ATOM      3  C   UNL     1      42.808   5.883  11.848  0.00  0.00    +0.000 C 
ATOM      4  F   UNL     1      41.676   5.086  11.841  0.00  0.00    +0.000 F 
ENDROOT
BRANCH   1   9
ATOM      5  C   UNL     1      46.417   2.761   7.581  0.00  0.00    +0.000 A 
ATOM      6  C   UNL     1      45.993   1.889   8.555  0.00  0.00    +0.000 A 
ATOM      7  N   UNL     1      45.238   2.259   9.616  0.00  0.00    +0.000 NA
ATOM      8  C   UNL     1      44.908   3.558   9.709  0.00  0.00    +0.000 A 
ATOM      9  N   UNL     1      44.104   3.915  10.790  0.00  0.00    +0.000 N 
ATOM     10  N   UNL     1      45.305   4.487   8.820  0.00  0.00    +0.000 NA
ATOM     11  C   UNL     1      46.058   4.072   7.778  0.00  0.00    +0.000 A 
ATOM     12  H   UNL     1      44.069   3.140  11.439  0.00  0.00    +0.000 HD
BRANCH   5  14
ATOM     13  N   UNL     1      47.129   3.188   5.303  0.00  0.00    +0.000 N 
ATOM     14  C   UNL     1      47.199   2.375   6.400  0.00  0.00    +0.000 C 
ATOM     15  O   UNL     1      47.923   1.390   6.415  0.00  0.00    +0.000 OA
ATOM     16  H   UNL     1      47.772   2.972   4.550  0.00  0.00    +0.000 HD
ATOM     17  H   UNL     1      46.770   4.134   5.336  0.00  0.00    +0.000 HD
ENDBRANCH   5  14
ENDBRANCH   1   9
BRANCH   1  18
ATOM     18  C   UNL     1      45.397   5.710  12.001  0.00  0.00    +0.000 A 
ATOM     19  C   UNL     1      45.832   5.100  13.191  0.00  0.00    +0.000 A 
ATOM     20  C   UNL     1      47.006   5.508  13.835  0.00  0.00    +0.000 A 
ATOM     21  C   UNL     1      47.794   6.535  13.298  0.00  0.00    +0.000 A 
ATOM     22  C   UNL     1      47.392   7.127  12.095  0.00  0.00    +0.000 A 
ATOM     23  C   UNL     1      46.214   6.720  11.465  0.00  0.00    +0.000 A 
BRANCH  21  24
ATOM     24  C   UNL     1      49.046   7.019  13.983  0.00  0.00    +0.000 C 
ATOM     25  F   UNL     1      50.146   7.021  13.179  0.00  0.00    +0.000 F 
ATOM     26  F   UNL     1      48.926   8.291  14.457  0.00  0.00    +0.000 F 
ATOM     27  F   UNL     1      49.375   6.252  15.061  0.00  0.00    +0.000 F 
ENDBRANCH  21  24
ENDBRANCH   1  18
TORSDOF 4
ENDMDL
MODEL 5
REMARK VINA RESULT:    -6.705      2.425      2.970
REMARK INTER + INTRA:          -8.434
REMARK INTER:                  -8.787
REMARK INTRA:                   0.353
REMARK UNBOUND:                -0.161
REMARK  Name = 
REMARK  4 active torsions:
REMARK  status: ('A' for Active; 'I' for Inactive)
REMARK    1  A    between atoms: C_2  and  C_4
REMARK    2  A    between atoms: N_8  and  C_9
REMARK    3  A    between atoms: C_9  and  C_10
REMARK    4  A    between atoms: C_13  and  C_14
REMARK                            x       y       z     vdW  Elec       q    Type
REMARK                         _______ _______ _______ _____ _____    ______ ____
ROOT
ATOM      1  C   UNL     1      44.359   5.051  11.827  0.00  0.00    +0.000 C 
ATOM      2  C   UNL     1      44.800   4.482  13.169  0.00  0.00    +0.000 C 
ATOM      3  C   UNL     1      43.439   4.170  12.660  0.00  0.00    +0.000 C 
ATOM      4  F   UNL     1      42.367   4.769  13.302  0.00  0.00    +0.000 F 
ENDROOT
BRANCH   1   9
ATOM      5  C   UNL     1      46.932   9.347  12.571  0.00  0.00    +0.000 A 
ATOM      6  C   UNL     1      45.863   9.574  11.737  0.00  0.00    +0.000 A 
ATOM      7  N   UNL     1      44.924   8.642  11.451  0.00  0.00    +0.000 NA
ATOM      8  C   UNL     1      45.073   7.431  12.014  0.00  0.00    +0.000 A 
ATOM      9  N   UNL     1      44.080   6.494  11.733  0.00  0.00    +0.000 N 
ATOM     10  N   UNL     1      46.104   7.111  12.816  0.00  0.00    +0.000 NA
ATOM     11  C   UNL     1      47.017   8.072  13.072  0.00  0.00    +0.000 A 
ATOM     12  H   UNL     1      43.506   6.845  10.978  0.00  0.00    +0.000 HD
BRANCH   5  14
ATOM     13  N   UNL     1      49.026   9.935  13.645  0.00  0.00    +0.000 N 
ATOM     14  C   UNL     1      47.938  10.355  12.930  0.00  0.00    +0.000 C 
ATOM     15  O   UNL     1      47.830  11.516  12.562  0.00  0.00    +0.000 OA
ATOM     16  H   UNL     1      49.764  10.617  13.770  0.00  0.00    +0.000 HD
ATOM     17  H   UNL     1      49.287   8.961  13.734  0.00  0.00    +0.000 HD
ENDBRANCH   5  14
ENDBRANCH   1   9
BRANCH   1  18
ATOM     18  C   UNL     1      44.933   4.437  10.550  0.00  0.00    +0.000 A 
ATOM     19  C   UNL     1      44.830   3.064  10.270  0.00  0.00    +0.000 A 
ATOM     20  C   UNL     1      45.386   2.510   9.110  0.00  0.00    +0.000 A 
ATOM     21  C   UNL     1      46.053   3.322   8.182  0.00  0.00    +0.000 A 
ATOM     22  C   UNL     1      46.132   4.697   8.431  0.00  0.00    +0.000 A 
ATOM     23  C   UNL     1      45.583   5.237   9.596  0.00  0.00    +0.000 A 
BRANCH  21  24
ATOM     24  C   UNL     1      46.690   2.752   6.940  0.00  0.00    +0.000 C 
ATOM     25  F   UNL     1      48.042   2.913   6.893  0.00  0.00    +0.000 F 
ATOM     26  F   UNL     1      46.466   1.415   6.802  0.00  0.00    +0.000 F 
ATOM     27  F   UNL     1      46.208   3.328   5.802  0.00  0.00    +0.000 F 
ENDBRANCH  21  24
ENDBRANCH   1  18
TORSDOF 4
ENDMDL
MODEL 6
REMARK VINA RESULT:    -6.186      1.808      2.154
REMARK INTER + INTRA:          -7.793
REMARK INTER:                  -7.421
REMARK INTRA:                  -0.371
REMARK UNBOUND:                -0.161
REMARK  Name = 
REMARK  4 active torsions:
REMARK  status: ('A' for Active; 'I' for Inactive)
REMARK    1  A    between atoms: C_2  and  C_4
REMARK    2  A    between atoms: N_8  and  C_9
REMARK    3  A    between atoms: C_9  and  C_10
REMARK    4  A    between atoms: C_13  and  C_14
REMARK                            x       y       z     vdW  Elec       q    Type
REMARK                         _______ _______ _______ _____ _____    ______ ____
ROOT
ATOM      1  C   UNL     1      45.046   5.624  12.400  0.00  0.00    +0.000 C 
ATOM      2  C   UNL     1      43.611   5.981  12.765  0.00  0.00    +0.000 C 
ATOM      3  C   UNL     1      44.521   7.046  12.267  0.00  0.00    +0.000 C 
ATOM      4  F   UNL     1      44.956   7.990  13.182  0.00  0.00    +0.000 F 
ENDROOT
BRANCH   1   9
ATOM      5  C   UNL     1      49.582   7.273  13.929  0.00  0.00    +0.000 A 
ATOM      6  C   UNL     1      48.924   6.666  14.972  0.00  0.00    +0.000 A 
ATOM      7  N   UNL     1      47.741   6.022  14.838  0.00  0.00    +0.000 NA
ATOM      8  C   UNL     1      47.192   6.000  13.611  0.00  0.00    +0.000 A 
ATOM      9  N   UNL     1      45.990   5.305  13.485  0.00  0.00    +0.000 N 
ATOM     10  N   UNL     1      47.749   6.595  12.541  0.00  0.00    +0.000 NA
ATOM     11  C   UNL     1      48.929   7.227  12.723  0.00  0.00    +0.000 A 
ATOM     12  H   UNL     1      45.637   5.096  14.410  0.00  0.00    +0.000 HD
BRANCH   5  14
ATOM     13  N   UNL     1      51.580   8.170  12.887  0.00  0.00    +0.000 N 
ATOM     14  C   UNL     1      50.886   7.940  14.043  0.00  0.00    +0.000 C 
ATOM     15  O   UNL     1      51.312   8.318  15.124  0.00  0.00    +0.000 OA
ATOM     16  H   UNL     1      52.413   8.740  12.976  0.00  0.00    +0.000 HD
ATOM     17  H   UNL     1      51.158   8.123  11.969  0.00  0.00    +0.000 HD
ENDBRANCH   5  14
ENDBRANCH   1   9
BRANCH   1  18
ATOM     18  C   UNL     1      45.300   4.857  11.102  0.00  0.00    +0.000 A 
ATOM     19  C   UNL     1      45.112   3.467  11.007  0.00  0.00    +0.000 A 
ATOM     20  C   UNL     1      45.375   2.773   9.820  0.00  0.00    +0.000 A 
ATOM     21  C   UNL     1      45.823   3.454   8.680  0.00  0.00    +0.000 A 
ATOM     22  C   UNL     1      45.980   4.844   8.750  0.00  0.00    +0.000 A 
ATOM     23  C   UNL     1      45.724   5.525   9.941  0.00  0.00    +0.000 A 
BRANCH  21  24
ATOM     24  C   UNL     1      46.145   2.732   7.396  0.00  0.00    +0.000 C 
ATOM     25  F   UNL     1      45.250   2.967   6.396  0.00  0.00    +0.000 F 
ATOM     26  F   UNL     1      47.365   3.074   6.895  0.00  0.00    +0.000 F 
ATOM     27  F   UNL     1      46.175   1.379   7.557  0.00  0.00    +0.000 F 
ENDBRANCH  21  24
ENDBRANCH   1  18
TORSDOF 4
ENDMDL
MODEL 7
REMARK VINA RESULT:    -6.169      4.118      5.771
REMARK INTER + INTRA:          -7.772
REMARK INTER:                  -7.492
REMARK INTRA:                  -0.280
REMARK UNBOUND:                -0.161
REMARK  Name = 
REMARK  4 active torsions:
REMARK  status: ('A' for Active; 'I' for Inactive)
REMARK    1  A    between atoms: C_2  and  C_4
REMARK    2  A    between atoms: N_8  and  C_9
REMARK    3  A    between atoms: C_9  and  C_10
REMARK    4  A    between atoms: C_13  and  C_14
REMARK                            x       y       z     vdW  Elec       q    Type
REMARK                         _______ _______ _______ _____ _____    ______ ____
ROOT
ATOM      1  C   UNL     1      45.750   5.120  12.524  0.00  0.00    +0.000 C 
ATOM      2  C   UNL     1      44.675   4.746  11.512  0.00  0.00    +0.000 C 
ATOM      3  C   UNL     1      44.281   5.051  12.913  0.00  0.00    +0.000 C 
ATOM      4  F   UNL     1      43.862   3.992  13.701  0.00  0.00    +0.000 F 
ENDROOT
BRANCH   1   9
ATOM      5  C   UNL     1      48.213   4.046  16.816  0.00  0.00    +0.000 A 
ATOM      6  C   UNL     1      48.068   2.909  16.057  0.00  0.00    +0.000 A 
ATOM      7  N   UNL     1      47.557   2.905  14.803  0.00  0.00    +0.000 NA
ATOM      8  C   UNL     1      47.162   4.087  14.300  0.00  0.00    +0.000 A 
ATOM      9  N   UNL     1      46.667   4.068  12.996  0.00  0.00    +0.000 N 
ATOM     10  N   UNL     1      47.236   5.243  14.983  0.00  0.00    +0.000 NA
ATOM     11  C   UNL     1      47.752   5.199  16.230  0.00  0.00    +0.000 A 
ATOM     12  H   UNL     1      46.511   3.107  12.722  0.00  0.00    +0.000 HD
BRANCH   5  14
ATOM     13  N   UNL     1      48.300   3.218  19.094  0.00  0.00    +0.000 N 
ATOM     14  C   UNL     1      48.804   4.080  18.160  0.00  0.00    +0.000 C 
ATOM     15  O   UNL     1      49.744   4.818  18.419  0.00  0.00    +0.000 OA
ATOM     16  H   UNL     1      48.805   3.170  19.971  0.00  0.00    +0.000 HD
ATOM     17  H   UNL     1      47.725   2.420  18.857  0.00  0.00    +0.000 HD
ENDBRANCH   5  14
ENDBRANCH   1   9
BRANCH   1  18
ATOM     18  C   UNL     1      46.379   6.510  12.440  0.00  0.00    +0.000 A 
ATOM     19  C   UNL     1      45.710   7.661  12.891  0.00  0.00    +0.000 A 
ATOM     20  C   UNL     1      46.286   8.932  12.782  0.00  0.00    +0.000 A 
ATOM     21  C   UNL     1      47.564   9.091  12.228  0.00  0.00    +0.000 A 
ATOM     22  C   UNL     1      48.256   7.950  11.808  0.00  0.00    +0.000 A 
ATOM     23  C   UNL     1      47.669   6.687  11.912  0.00  0.00    +0.000 A 
BRANCH  21  24
ATOM     24  C   UNL     1      48.199  10.449  12.068  0.00  0.00    +0.000 C 
ATOM     25  F   UNL     1      49.272  10.652  12.882  0.00  0.00    +0.000 F 
ATOM     26  F   UNL     1      48.644  10.672  10.799  0.00  0.00    +0.000 F 
ATOM     27  F   UNL     1      47.329  11.462  12.340  0.00  0.00    +0.000 F 
ENDBRANCH  21  24
ENDBRANCH   1  18
TORSDOF 4
ENDMDL
MODEL 8
REMARK VINA RESULT:    -5.984      3.863      5.588
REMARK INTER + INTRA:          -7.544
REMARK INTER:                  -7.355
REMARK INTRA:                  -0.189
REMARK UNBOUND:                -0.161
REMARK  Name = 
REMARK  4 active torsions:
REMARK  status: ('A' for Active; 'I' for Inactive)
REMARK    1  A    between atoms: C_2  and  C_4
REMARK    2  A    between atoms: N_8  and  C_9
REMARK    3  A    between atoms: C_9  and  C_10
REMARK    4  A    between atoms: C_13  and  C_14
REMARK                            x       y       z     vdW  Elec       q    Type
REMARK                         _______ _______ _______ _____ _____    ______ ____
ROOT
ATOM      1  C   UNL     1      47.997   7.646  13.443  0.00  0.00    +0.000 C 
ATOM      2  C   UNL     1      48.765   8.550  12.487  0.00  0.00    +0.000 C 
ATOM      3  C   UNL     1      49.347   7.237  12.870  0.00  0.00    +0.000 C 
ATOM      4  F   UNL     1      50.445   7.250  13.714  0.00  0.00    +0.000 F 
ENDROOT
BRANCH   1   9
ATOM      5  C   UNL     1      49.041   5.513  17.914  0.00  0.00    +0.000 A 
ATOM      6  C   UNL     1      49.033   6.882  18.034  0.00  0.00    +0.000 A 
ATOM      7  N   UNL     1      48.668   7.720  17.035  0.00  0.00    +0.000 NA
ATOM      8  C   UNL     1      48.311   7.160  15.867  0.00  0.00    +0.000 A 
ATOM      9  N   UNL     1      47.907   8.036  14.860  0.00  0.00    +0.000 N 
ATOM     10  N   UNL     1      48.320   5.832  15.650  0.00  0.00    +0.000 NA
ATOM     11  C   UNL     1      48.693   5.036  16.675  0.00  0.00    +0.000 A 
ATOM     12  H   UNL     1      48.145   8.979  15.136  0.00  0.00    +0.000 HD
BRANCH   5  14
ATOM     13  N   UNL     1      48.496   3.595  19.295  0.00  0.00    +0.000 N 
ATOM     14  C   UNL     1      49.392   4.584  18.997  0.00  0.00    +0.000 C 
ATOM     15  O   UNL     1      50.466   4.664  19.576  0.00  0.00    +0.000 OA
ATOM     16  H   UNL     1      48.813   2.894  19.954  0.00  0.00    +0.000 HD
ATOM     17  H   UNL     1      47.739   3.329  18.678  0.00  0.00    +0.000 HD
ENDBRANCH   5  14
ENDBRANCH   1   9
BRANCH   1  18
ATOM     18  C   UNL     1      46.769   6.903  12.916  0.00  0.00    +0.000 A 
ATOM     19  C   UNL     1      46.730   5.502  12.815  0.00  0.00    +0.000 A 
ATOM     20  C   UNL     1      45.609   4.836  12.304  0.00  0.00    +0.000 A 
ATOM     21  C   UNL     1      44.481   5.556  11.889  0.00  0.00    +0.000 A 
ATOM     22  C   UNL     1      44.492   6.950  12.017  0.00  0.00    +0.000 A 
ATOM     23  C   UNL     1      45.618   7.605  12.519  0.00  0.00    +0.000 A 
BRANCH  21  24
ATOM     24  C   UNL     1      43.270   4.872  11.306  0.00  0.00    +0.000 C 
ATOM     25  F   UNL     1      43.101   3.592  11.740  0.00  0.00    +0.000 F 
ATOM     26  F   UNL     1      42.109   5.523  11.597  0.00  0.00    +0.000 F 
ATOM     27  F   UNL     1      43.324   4.798   9.946  0.00  0.00    +0.000 F 
ENDBRANCH  21  24
ENDBRANCH   1  18
TORSDOF 4
ENDMDL
MODEL 9
REMARK VINA RESULT:    -5.769      5.792      8.890
REMARK INTER + INTRA:          -7.278
REMARK INTER:                  -7.264
REMARK INTRA:                  -0.015
REMARK UNBOUND:                -0.161
REMARK  Name = 
REMARK  4 active torsions:
REMARK  status: ('A' for Active; 'I' for Inactive)
REMARK    1  A    between atoms: C_2  and  C_4
REMARK    2  A    between atoms: N_8  and  C_9
REMARK    3  A    between atoms: C_9  and  C_10
REMARK    4  A    between atoms: C_13  and  C_14
REMARK                            x       y       z     vdW  Elec       q    Type
REMARK                         _______ _______ _______ _____ _____    ______ ____
ROOT
ATOM      1  C   UNL     1      49.366   5.316  17.686  0.00  0.00    +0.000 C 
ATOM      2  C   UNL     1      49.231   6.180  18.933  0.00  0.00    +0.000 C 
ATOM      3  C   UNL     1      48.148   5.220  18.593  0.00  0.00    +0.000 C 
ATOM      4  F   UNL     1      46.951   5.746  18.137  0.00  0.00    +0.000 F 
ENDROOT
BRANCH   1   9
ATOM      5  C   UNL     1      46.495   4.676  13.565  0.00  0.00    +0.000 A 
ATOM      6  C   UNL     1      46.984   5.960  13.606  0.00  0.00    +0.000 A 
ATOM      7  N   UNL     1      47.877   6.393  14.526  0.00  0.00    +0.000 NA
ATOM      8  C   UNL     1      48.285   5.505  15.448  0.00  0.00    +0.000 A 
ATOM      9  N   UNL     1      49.229   5.959  16.367  0.00  0.00    +0.000 N 
ATOM     10  N   UNL     1      47.836   4.238  15.503  0.00  0.00    +0.000 NA
ATOM     11  C   UNL     1      46.944   3.851  14.566  0.00  0.00    +0.000 A 
ATOM     12  H   UNL     1      49.299   6.965  16.291  0.00  0.00    +0.000 HD
BRANCH   5  14
ATOM     13  N   UNL     1      45.293   2.831  12.549  0.00  0.00    +0.000 N 
ATOM     14  C   UNL     1      45.559   4.172  12.551  0.00  0.00    +0.000 C 
ATOM     15  O   UNL     1      45.002   4.932  11.772  0.00  0.00    +0.000 OA
ATOM     16  H   UNL     1      44.552   2.528  11.927  0.00  0.00    +0.000 HD
ATOM     17  H   UNL     1      45.512   2.221  13.326  0.00  0.00    +0.000 HD
ENDBRANCH   5  14
ENDBRANCH   1   9
BRANCH   1  18
ATOM     18  C   UNL     1      50.344   4.142  17.714  0.00  0.00    +0.000 A 
ATOM     19  C   UNL     1      51.701   4.308  18.041  0.00  0.00    +0.000 A 
ATOM     20  C   UNL     1      52.592   3.228  18.035  0.00  0.00    +0.000 A 
ATOM     21  C   UNL     1      52.147   1.938  17.715  0.00  0.00    +0.000 A 
ATOM     22  C   UNL     1      50.790   1.752  17.423  0.00  0.00    +0.000 A 
ATOM     23  C   UNL     1      49.912   2.837  17.422  0.00  0.00    +0.000 A 
BRANCH  21  24
ATOM     24  C   UNL     1      53.086   0.760  17.670  0.00  0.00    +0.000 C 
ATOM     25  F   UNL     1      54.343   1.044  18.113  0.00  0.00    +0.000 F 
ATOM     26  F   UNL     1      52.651  -0.287  18.425  0.00  0.00    +0.000 F 
ATOM     27  F   UNL     1      53.239   0.269  16.408  0.00  0.00    +0.000 F 
ENDBRANCH  21  24
ENDBRANCH   1  18
TORSDOF 4
ENDMDL
