MODEL 1
REMARK VINA RESULT:    -7.965      0.000      0.000
REMARK INTER + INTRA:         -11.526
REMARK INTER:                 -10.991
REMARK INTRA:                  -0.535
REMARK UNBOUND:                -0.535
REMARK  Name = 
REMARK  7 active torsions:
REMARK  status: ('A' for Active; 'I' for Inactive)
REMARK    1  A    between atoms: C_2  and  C_22
REMARK    2  A    between atoms: N_3  and  C_4
REMARK    3  A    between atoms: C_4  and  C_5
REMARK    4  A    between atoms: C_8  and  C_9
REMARK    5  A    between atoms: C_9  and  C_10
REMARK    6  A    between atoms: C_10  and  O_11
REMARK    7  A    between atoms: C_10  and  C_12
REMARK                            x       y       z     vdW  Elec       q    Type
REMARK                         _______ _______ _______ _____ _____    ______ ____
ROOT
ATOM      1  C   UNL     1      46.631   7.628  13.027  0.00  0.00    +0.000 A 
ATOM      2  C   UNL     1      46.868   6.251  12.940  0.00  0.00    +0.000 A 
ATOM      3  C   UNL     1      46.019   5.429  12.194  0.00  0.00    +0.000 A 
ATOM      4  C   UNL     1      44.914   5.963  11.521  0.00  0.00    +0.000 A 
ATOM      5  C   UNL     1      44.701   7.347  11.575  0.00  0.00    +0.000 A 
ATOM      6  C   UNL     1      45.554   8.172  12.316  0.00  0.00    +0.000 A 
ENDROOT
BRANCH   1   7
ATOM      7  C   UNL     1      47.531   8.498  13.865  0.00  0.00    +0.000 C 
BRANCH   7  10
ATOM      8  O   UNL     1      49.883   7.049  14.420  0.00  0.00    +0.000 OA
ATOM      9  C   UNL     1      49.059   7.211  15.316  0.00  0.00    +0.000 C 
ATOM     10  N   UNL     1      47.872   7.866  15.113  0.00  0.00    +0.000 N 
ATOM     11  H   UNL     1      47.295   8.111  15.910  0.00  0.00    +0.000 HD
BRANCH   9  12
ATOM     12  C   UNL     1      49.279   6.663  16.661  0.00  0.00    +0.000 A 
ATOM     13  C   UNL     1      49.944   7.422  17.614  0.00  0.00    +0.000 A 
ATOM     14  S   UNL     1      50.096   6.644  19.124  0.00  0.00    +0.000 S 
ATOM     15  C   UNL     1      49.244   5.281  18.569  0.00  0.00    +0.000 A 
ATOM     16  N   UNL     1      48.975   4.240  19.398  0.00  0.00    +0.000 NA
ATOM     17  C   UNL     1      48.286   3.290  18.860  0.00  0.00    +0.000 A 
ATOM     18  N   UNL     1      47.854   3.279  17.558  0.00  0.00    +0.000 N 
ATOM     19  C   UNL     1      48.174   4.268  16.661  0.00  0.00    +0.000 A 
ATOM     20  O   UNL     1      47.916   4.152  15.469  0.00  0.00    +0.000 OA
ATOM     21  C   UNL     1      48.890   5.394  17.236  0.00  0.00    +0.000 A 
ATOM     22  H   UNL     1      47.353   2.488  17.186  0.00  0.00    +0.000 HD
ENDBRANCH   9  12
ENDBRANCH   7  10
ENDBRANCH   1   7
BRANCH   4  23
ATOM     23  C   UNL     1      43.977   5.066  10.738  0.00  0.00    +0.000 C 
BRANCH  23  24
ATOM     24  C   UNL     1      44.536   4.641   9.363  0.00  0.00    +0.000 C 
BRANCH  24  25
ATOM     25  C   UNL     1      45.066   3.184   9.411  0.00  0.00    +0.000 C 
ATOM     26  O   UNL     1      45.142   2.573  10.480  0.00  0.00    +0.000 OA
ATOM     27  N   UNL     1      45.411   2.581   8.199  0.00  0.00    +0.000 N 
ATOM     28  C   UNL     1      45.791   1.171   8.173  0.00  0.00    +0.000 C 
ATOM     29  C   UNL     1      47.231   0.999   7.688  0.00  0.00    +0.000 C 
ATOM     30  C   UNL     1      47.465   1.725   6.363  0.00  0.00    +0.000 C 
ATOM     31  C   UNL     1      47.010   3.183   6.445  0.00  0.00    +0.000 C 
ATOM     32  C   UNL     1      45.558   3.272   6.916  0.00  0.00    +0.000 C 
ENDBRANCH  24  25
BRANCH  24  33
ATOM     33  O   UNL     1      45.548   5.564   8.955  0.00  0.00    +0.000 OA
ATOM     34  H   UNL     1      46.102   5.114   8.296  0.00  0.00    +0.000 HD
ENDBRANCH  24  33
ENDBRANCH  23  24
ENDBRANCH   4  23
TORSDOF 7
ENDMDL
MODEL 2
REMARK VINA RESULT:    -7.781      2.376      2.722
REMARK INTER + INTRA:         -11.273
REMARK INTER:                 -10.827
REMARK INTRA:                  -0.446
REMARK UNBOUND:                -0.535
REMARK  Name = 
REMARK  7 active torsions:
REMARK  status: ('A' for Active; 'I' for Inactive)
REMARK    1  A    between atoms: C_2  and  C_22
REMARK    2  A    between atoms: N_3  and  C_4
REMARK    3  A    between atoms: C_4  and  C_5
REMARK    4  A    between atoms: C_8  and  C_9
REMARK    5  A    between atoms: C_9  and  C_10
REMARK    6  A    between atoms: C_10  and  O_11
REMARK    7  A    between atoms: C_10  and  C_12
REMARK                            x       y       z     vdW  Elec       q    Type
REMARK                         _______ _______ _______ _____ _____    ______ ____
ROOT
ATOM      1  C   UNL     1      48.216   7.021  14.595  0.00  0.00    +0.000 A 
ATOM      2  C   UNL     1      47.595   5.770  14.495  0.00  0.00    +0.000 A 
ATOM      3  C   UNL     1      46.902   5.410  13.336  0.00  0.00    +0.000 A 
ATOM      4  C   UNL     1      46.812   6.292  12.252  0.00  0.00    +0.000 A 
ATOM      5  C   UNL     1      47.469   7.527  12.337  0.00  0.00    +0.000 A 
ATOM      6  C   UNL     1      48.169   7.886  13.494  0.00  0.00    +0.000 A 
ENDROOT
BRANCH   1   7
ATOM      7  C   UNL     1      48.928   7.412  15.863  0.00  0.00    +0.000 C 
BRANCH   7  10
ATOM      8  O   UNL     1      49.848   6.822  18.461  0.00  0.00    +0.000 OA
ATOM      9  C   UNL     1      50.315   6.202  17.509  0.00  0.00    +0.000 C 
ATOM     10  N   UNL     1      49.952   6.461  16.213  0.00  0.00    +0.000 N 
ATOM     11  H   UNL     1      50.242   5.826  15.477  0.00  0.00    +0.000 HD
BRANCH   9  12
ATOM     12  C   UNL     1      51.340   5.167  17.704  0.00  0.00    +0.000 A 
ATOM     13  C   UNL     1      52.609   5.528  18.136  0.00  0.00    +0.000 A 
ATOM     14  S   UNL     1      53.668   4.205  18.328  0.00  0.00    +0.000 S 
ATOM     15  C   UNL     1      52.457   3.100  17.877  0.00  0.00    +0.000 A 
ATOM     16  N   UNL     1      52.695   1.763  17.879  0.00  0.00    +0.000 NA
ATOM     17  C   UNL     1      51.677   1.037  17.556  0.00  0.00    +0.000 A 
ATOM     18  N   UNL     1      50.444   1.529  17.215  0.00  0.00    +0.000 N 
ATOM     19  C   UNL     1      50.181   2.873  17.117  0.00  0.00    +0.000 A 
ATOM     20  O   UNL     1      49.123   3.280  16.652  0.00  0.00    +0.000 OA
ATOM     21  C   UNL     1      51.274   3.733  17.537  0.00  0.00    +0.000 A 
ATOM     22  H   UNL     1      49.700   0.909  16.934  0.00  0.00    +0.000 HD
ENDBRANCH   9  12
ENDBRANCH   7  10
ENDBRANCH   1   7
BRANCH   4  23
ATOM     23  C   UNL     1      46.035   5.913  11.009  0.00  0.00    +0.000 C 
BRANCH  23  24
ATOM     24  C   UNL     1      44.695   5.208  11.311  0.00  0.00    +0.000 C 
BRANCH  24  25
ATOM     25  C   UNL     1      44.761   3.708  10.919  0.00  0.00    +0.000 C 
ATOM     26  O   UNL     1      44.731   2.828  11.781  0.00  0.00    +0.000 OA
ATOM     27  N   UNL     1      44.813   3.397   9.558  0.00  0.00    +0.000 N 
ATOM     28  C   UNL     1      44.746   2.002   9.130  0.00  0.00    +0.000 C 
ATOM     29  C   UNL     1      46.024   1.588   8.401  0.00  0.00    +0.000 C 
ATOM     30  C   UNL     1      46.364   2.564   7.273  0.00  0.00    +0.000 C 
ATOM     31  C   UNL     1      46.379   4.008   7.778  0.00  0.00    +0.000 C 
ATOM     32  C   UNL     1      45.063   4.351   8.476  0.00  0.00    +0.000 C 
ENDBRANCH  24  25
BRANCH  24  33
ATOM     33  O   UNL     1      43.635   5.890  10.637  0.00  0.00    +0.000 OA
ATOM     34  H   UNL     1      43.172   6.431  11.297  0.00  0.00    +0.000 HD
ENDBRANCH  24  33
ENDBRANCH  23  24
ENDBRANCH   4  23
TORSDOF 7
ENDMDL
MODEL 3
REMARK VINA RESULT:    -7.487      5.056      9.661
REMARK INTER + INTRA:         -10.868
REMARK INTER:                 -10.021
REMARK INTRA:                  -0.846
REMARK UNBOUND:                -0.535
REMARK  Name = 
REMARK  7 active torsions:
REMARK  status: ('A' for Active; 'I' for Inactive)
REMARK    1  A    between atoms: C_2  and  C_22
REMARK    2  A    between atoms: N_3  and  C_4
REMARK    3  A    between atoms: C_4  and  C_5
REMARK    4  A    between atoms: C_8  and  C_9
REMARK    5  A    between atoms: C_9  and  C_10
REMARK    6  A    between atoms: C_10  and  O_11
REMARK    7  A    between atoms: C_10  and  C_12
REMARK                            x       y       z     vdW  Elec       q    Type
REMARK                         _______ _______ _______ _____ _____    ______ ____
ROOT
ATOM      1  C   UNL     1      48.855   3.357  17.089  0.00  0.00    +0.000 A 
ATOM      2  C   UNL     1      49.439   4.579  17.443  0.00  0.00    +0.000 A 
ATOM      3  C   UNL     1      50.793   4.649  17.782  0.00  0.00    +0.000 A 
ATOM      4  C   UNL     1      51.593   3.500  17.778  0.00  0.00    +0.000 A 
ATOM      5  C   UNL     1      51.017   2.284  17.383  0.00  0.00    +0.000 A 
ATOM      6  C   UNL     1      49.664   2.215  17.037  0.00  0.00    +0.000 A 
ENDROOT
BRANCH   1   7
ATOM      7  C   UNL     1      47.386   3.287  16.762  0.00  0.00    +0.000 C 
BRANCH   7  10
ATOM      8  O   UNL     1      47.280   3.056  13.955  0.00  0.00    +0.000 OA
ATOM      9  C   UNL     1      46.935   4.112  14.479  0.00  0.00    +0.000 C 
ATOM     10  N   UNL     1      47.000   4.318  15.832  0.00  0.00    +0.000 N 
ATOM     11  H   UNL     1      46.562   5.140  16.234  0.00  0.00    +0.000 HD
BRANCH   9  12
ATOM     12  C   UNL     1      46.473   5.248  13.669  0.00  0.00    +0.000 A 
ATOM     13  C   UNL     1      47.302   6.348  13.490  0.00  0.00    +0.000 A 
ATOM     14  S   UNL     1      46.620   7.566  12.510  0.00  0.00    +0.000 S 
ATOM     15  C   UNL     1      45.211   6.649  12.258  0.00  0.00    +0.000 A 
ATOM     16  N   UNL     1      44.216   7.104  11.451  0.00  0.00    +0.000 NA
ATOM     17  C   UNL     1      43.223   6.291  11.315  0.00  0.00    +0.000 A 
ATOM     18  N   UNL     1      43.125   5.068  11.927  0.00  0.00    +0.000 N 
ATOM     19  C   UNL     1      44.063   4.604  12.816  0.00  0.00    +0.000 A 
ATOM     20  O   UNL     1      43.869   3.586  13.470  0.00  0.00    +0.000 OA
ATOM     21  C   UNL     1      45.235   5.452  12.951  0.00  0.00    +0.000 A 
ATOM     22  H   UNL     1      42.303   4.497  11.811  0.00  0.00    +0.000 HD
ENDBRANCH   9  12
ENDBRANCH   7  10
ENDBRANCH   1   7
BRANCH   4  23
ATOM     23  C   UNL     1      53.053   3.572  18.176  0.00  0.00    +0.000 C 
BRANCH  23  24
ATOM     24  C   UNL     1      53.928   2.494  17.501  0.00  0.00    +0.000 C 
BRANCH  24  25
ATOM     25  C   UNL     1      54.183   1.307  18.467  0.00  0.00    +0.000 C 
ATOM     26  O   UNL     1      54.311   1.494  19.679  0.00  0.00    +0.000 OA
ATOM     27  N   UNL     1      54.219   0.022  17.917  0.00  0.00    +0.000 N 
ATOM     28  C   UNL     1      54.327  -1.139  18.797  0.00  0.00    +0.000 C 
ATOM     29  C   UNL     1      55.617  -1.913  18.530  0.00  0.00    +0.000 C 
ATOM     30  C   UNL     1      55.771  -2.248  17.045  0.00  0.00    +0.000 C 
ATOM     31  C   UNL     1      55.609  -0.997  16.179  0.00  0.00    +0.000 C 
ATOM     32  C   UNL     1      54.290  -0.291  16.489  0.00  0.00    +0.000 C 
ENDBRANCH  24  25
BRANCH  24  33
ATOM     33  O   UNL     1      55.148   3.085  17.048  0.00  0.00    +0.000 OA
ATOM     34  H   UNL     1      54.995   4.039  16.965  0.00  0.00    +0.000 HD
ENDBRANCH  24  33
ENDBRANCH  23  24
ENDBRANCH   4  23
TORSDOF 7
ENDMDL
MODEL 4
REMARK VINA RESULT:    -7.425      1.527      1.964
REMARK INTER + INTRA:         -10.781
REMARK INTER:                 -10.416
REMARK INTRA:                  -0.366
REMARK UNBOUND:                -0.535
REMARK  Name = 
REMARK  7 active torsions:
REMARK  status: ('A' for Active; 'I' for Inactive)
REMARK    1  A    between atoms: C_2  and  C_22
REMARK    2  A    between atoms: N_3  and  C_4
REMARK    3  A    between atoms: C_4  and  C_5
REMARK    4  A    between atoms: C_8  and  C_9
REMARK    5  A    between atoms: C_9  and  C_10
REMARK    6  A    between atoms: C_10  and  O_11
REMARK    7  A    between atoms: C_10  and  C_12
REMARK                            x       y       z     vdW  Elec       q    Type
REMARK                         _______ _______ _______ _____ _____    ______ ____
ROOT
ATOM      1  C   UNL     1      47.434   8.240  13.770  0.00  0.00    +0.000 A 
ATOM      2  C   UNL     1      46.354   8.757  13.045  0.00  0.00    +0.000 A 
ATOM      3  C   UNL     1      45.768   8.016  12.016  0.00  0.00    +0.000 A 
ATOM      4  C   UNL     1      46.249   6.743  11.686  0.00  0.00    +0.000 A 
ATOM      5  C   UNL     1      47.303   6.209  12.440  0.00  0.00    +0.000 A 
ATOM      6  C   UNL     1      47.886   6.948  13.475  0.00  0.00    +0.000 A 
ENDROOT
BRANCH   1   7
ATOM      7  C   UNL     1      48.081   9.064  14.853  0.00  0.00    +0.000 C 
BRANCH   7  10
ATOM      8  O   UNL     1      49.832   9.609  16.993  0.00  0.00    +0.000 OA
ATOM      9  C   UNL     1      49.023   8.692  17.105  0.00  0.00    +0.000 C 
ATOM     10  N   UNL     1      48.169   8.336  16.093  0.00  0.00    +0.000 N 
ATOM     11  H   UNL     1      47.418   7.682  16.281  0.00  0.00    +0.000 HD
BRANCH   9  12
ATOM     12  C   UNL     1      48.958   7.879  18.328  0.00  0.00    +0.000 A 
ATOM     13  C   UNL     1      48.848   8.503  19.563  0.00  0.00    +0.000 A 
ATOM     14  S   UNL     1      48.765   7.413  20.873  0.00  0.00    +0.000 S 
ATOM     15  C   UNL     1      48.834   6.071  19.833  0.00  0.00    +0.000 A 
ATOM     16  N   UNL     1      48.755   4.805  20.319  0.00  0.00    +0.000 NA
ATOM     17  C   UNL     1      48.778   3.882  19.416  0.00  0.00    +0.000 A 
ATOM     18  N   UNL     1      48.889   4.110  18.069  0.00  0.00    +0.000 N 
ATOM     19  C   UNL     1      49.056   5.365  17.538  0.00  0.00    +0.000 A 
ATOM     20  O   UNL     1      49.316   5.523  16.352  0.00  0.00    +0.000 OA
ATOM     21  C   UNL     1      48.968   6.445  18.507  0.00  0.00    +0.000 A 
ATOM     22  H   UNL     1      48.941   3.342  17.418  0.00  0.00    +0.000 HD
ENDBRANCH   9  12
ENDBRANCH   7  10
ENDBRANCH   1   7
BRANCH   4  23
ATOM     23  C   UNL     1      45.633   5.953  10.550  0.00  0.00    +0.000 C 
BRANCH  23  24
ATOM     24  C   UNL     1      44.372   5.162  10.961  0.00  0.00    +0.000 C 
BRANCH  24  25
ATOM     25  C   UNL     1      44.556   3.648  10.682  0.00  0.00    +0.000 C 
ATOM     26  O   UNL     1      44.534   2.828  11.603  0.00  0.00    +0.000 OA
ATOM     27  N   UNL     1      44.704   3.249   9.351  0.00  0.00    +0.000 N 
ATOM     28  C   UNL     1      44.750   1.826   9.023  0.00  0.00    +0.000 C 
ATOM     29  C   UNL     1      46.091   1.451   8.391  0.00  0.00    +0.000 C 
ATOM     30  C   UNL     1      46.430   2.368   7.214  0.00  0.00    +0.000 C 
ATOM     31  C   UNL     1      46.324   3.841   7.614  0.00  0.00    +0.000 C 
ATOM     32  C   UNL     1      44.952   4.141   8.218  0.00  0.00    +0.000 C 
ENDBRANCH  24  25
BRANCH  24  33
ATOM     33  O   UNL     1      43.233   5.696  10.284  0.00  0.00    +0.000 OA
ATOM     34  H   UNL     1      42.620   6.024  10.961  0.00  0.00    +0.000 HD
ENDBRANCH  24  33
ENDBRANCH  23  24
ENDBRANCH   4  23
TORSDOF 7
ENDMDL
MODEL 5
REMARK VINA RESULT:    -7.419      3.035      3.969
REMARK INTER + INTRA:         -10.773
REMARK INTER:                 -10.325
REMARK INTRA:                  -0.448
REMARK UNBOUND:                -0.535
REMARK  Name = 
REMARK  7 active torsions:
REMARK  status: ('A' for Active; 'I' for Inactive)
REMARK    1  A    between atoms: C_2  and  C_22
REMARK    2  A    between atoms: N_3  and  C_4
REMARK    3  A    between atoms: C_4  and  C_5
REMARK    4  A    between atoms: C_8  and  C_9
REMARK    5  A    between atoms: C_9  and  C_10
REMARK    6  A    between atoms: C_10  and  O_11
REMARK    7  A    between atoms: C_10  and  C_12
REMARK                            x       y       z     vdW  Elec       q    Type
REMARK                         _______ _______ _______ _____ _____    ______ ____
ROOT
ATOM      1  C   UNL     1      48.782   6.212  16.316  0.00  0.00    +0.000 A 
ATOM      2  C   UNL     1      47.957   5.102  16.105  0.00  0.00    +0.000 A 
ATOM      3  C   UNL     1      47.292   4.932  14.887  0.00  0.00    +0.000 A 
ATOM      4  C   UNL     1      47.434   5.867  13.856  0.00  0.00    +0.000 A 
ATOM      5  C   UNL     1      48.294   6.957  14.054  0.00  0.00    +0.000 A 
ATOM      6  C   UNL     1      48.965   7.125  15.270  0.00  0.00    +0.000 A 
ENDROOT
BRANCH   1   7
ATOM      7  C   UNL     1      49.465   6.404  17.646  0.00  0.00    +0.000 C 
BRANCH   7  10
ATOM      8  O   UNL     1      52.102   6.296  16.658  0.00  0.00    +0.000 OA
ATOM      9  C   UNL     1      51.713   5.410  17.414  0.00  0.00    +0.000 C 
ATOM     10  N   UNL     1      50.432   5.368  17.901  0.00  0.00    +0.000 N 
ATOM     11  H   UNL     1      50.200   4.713  18.640  0.00  0.00    +0.000 HD
BRANCH   9  12
ATOM     12  C   UNL     1      52.595   4.302  17.806  0.00  0.00    +0.000 A 
ATOM     13  C   UNL     1      53.860   4.574  18.310  0.00  0.00    +0.000 A 
ATOM     14  S   UNL     1      54.742   3.177  18.732  0.00  0.00    +0.000 S 
ATOM     15  C   UNL     1      53.451   2.162  18.293  0.00  0.00    +0.000 A 
ATOM     16  N   UNL     1      53.533   0.816  18.456  0.00  0.00    +0.000 NA
ATOM     17  C   UNL     1      52.467   0.169  18.122  0.00  0.00    +0.000 A 
ATOM     18  N   UNL     1      51.328   0.746  17.623  0.00  0.00    +0.000 N 
ATOM     19  C   UNL     1      51.229   2.091  17.362  0.00  0.00    +0.000 A 
ATOM     20  O   UNL     1      50.263   2.552  16.765  0.00  0.00    +0.000 OA
ATOM     21  C   UNL     1      52.378   2.873  17.785  0.00  0.00    +0.000 A 
ATOM     22  H   UNL     1      50.542   0.181  17.343  0.00  0.00    +0.000 HD
ENDBRANCH   9  12
ENDBRANCH   7  10
ENDBRANCH   1   7
BRANCH   4  23
ATOM     23  C   UNL     1      46.689   5.698  12.548  0.00  0.00    +0.000 C 
BRANCH  23  24
ATOM     24  C   UNL     1      45.214   5.280  12.730  0.00  0.00    +0.000 C 
BRANCH  24  25
ATOM     25  C   UNL     1      44.953   3.889  12.096  0.00  0.00    +0.000 C 
ATOM     26  O   UNL     1      45.000   2.864  12.779  0.00  0.00    +0.000 OA
ATOM     27  N   UNL     1      44.625   3.848  10.738  0.00  0.00    +0.000 N 
ATOM     28  C   UNL     1      44.245   2.579  10.122  0.00  0.00    +0.000 C 
ATOM     29  C   UNL     1      45.229   2.186   9.021  0.00  0.00    +0.000 C 
ATOM     30  C   UNL     1      45.429   3.323   8.018  0.00  0.00    +0.000 C 
ATOM     31  C   UNL     1      45.787   4.629   8.729  0.00  0.00    +0.000 C 
ATOM     32  C   UNL     1      44.748   4.965   9.799  0.00  0.00    +0.000 C 
ENDBRANCH  24  25
BRANCH  24  33
ATOM     33  O   UNL     1      44.362   6.286  12.179  0.00  0.00    +0.000 OA
ATOM     34  H   UNL     1      44.769   7.147  12.367  0.00  0.00    +0.000 HD
ENDBRANCH  24  33
ENDBRANCH  23  24
ENDBRANCH   4  23
TORSDOF 7
ENDMDL
MODEL 6
REMARK VINA RESULT:    -7.231      4.015      9.280
REMARK INTER + INTRA:         -10.514
REMARK INTER:                  -9.459
REMARK INTRA:                  -1.054
REMARK UNBOUND:                -0.535
REMARK  Name = 
REMARK  7 active torsions:
REMARK  status: ('A' for Active; 'I' for Inactive)
REMARK    1  A    between atoms: C_2  and  C_22
REMARK    2  A    between atoms: N_3  and  C_4
REMARK    3  A    between atoms: C_4  and  C_5
REMARK    4  A    between atoms: C_8  and  C_9
REMARK    5  A    between atoms: C_9  and  C_10
REMARK    6  A    between atoms: C_10  and  O_11
REMARK    7  A    between atoms: C_10  and  C_12
REMARK                            x       y       z     vdW  Elec       q    Type
REMARK                         _______ _______ _______ _____ _____    ______ ____
ROOT
ATOM      1  C   UNL     1      48.625   3.395  17.121  0.00  0.00    +0.000 A 
ATOM      2  C   UNL     1      49.236   4.586  17.533  0.00  0.00    +0.000 A 
ATOM      3  C   UNL     1      50.604   4.622  17.817  0.00  0.00    +0.000 A 
ATOM      4  C   UNL     1      51.391   3.470  17.698  0.00  0.00    +0.000 A 
ATOM      5  C   UNL     1      50.787   2.289  17.246  0.00  0.00    +0.000 A 
ATOM      6  C   UNL     1      49.419   2.253  16.955  0.00  0.00    +0.000 A 
ENDROOT
BRANCH   1   7
ATOM      7  C   UNL     1      47.143   3.359  16.853  0.00  0.00    +0.000 C 
BRANCH   7  10
ATOM      8  O   UNL     1      47.242   3.069  14.052  0.00  0.00    +0.000 OA
ATOM      9  C   UNL     1      46.796   4.109  14.527  0.00  0.00    +0.000 C 
ATOM     10  N   UNL     1      46.755   4.344  15.876  0.00  0.00    +0.000 N 
ATOM     11  H   UNL     1      46.240   5.144  16.229  0.00  0.00    +0.000 HD
BRANCH   9  12
ATOM     12  C   UNL     1      46.319   5.197  13.662  0.00  0.00    +0.000 A 
ATOM     13  C   UNL     1      47.139   6.289  13.413  0.00  0.00    +0.000 A 
ATOM     14  S   UNL     1      46.439   7.449  12.377  0.00  0.00    +0.000 S 
ATOM     15  C   UNL     1      45.031   6.514  12.193  0.00  0.00    +0.000 A 
ATOM     16  N   UNL     1      44.025   6.919  11.375  0.00  0.00    +0.000 NA
ATOM     17  C   UNL     1      43.034   6.095  11.295  0.00  0.00    +0.000 A 
ATOM     18  N   UNL     1      42.950   4.907  11.974  0.00  0.00    +0.000 N 
ATOM     19  C   UNL     1      43.901   4.497  12.875  0.00  0.00    +0.000 A 
ATOM     20  O   UNL     1      43.721   3.515  13.586  0.00  0.00    +0.000 OA
ATOM     21  C   UNL     1      45.071   5.356  12.949  0.00  0.00    +0.000 A 
ATOM     22  H   UNL     1      42.129   4.326  11.899  0.00  0.00    +0.000 HD
ENDBRANCH   9  12
ENDBRANCH   7  10
ENDBRANCH   1   7
BRANCH   4  23
ATOM     23  C   UNL     1      52.867   3.503  18.036  0.00  0.00    +0.000 C 
BRANCH  23  24
ATOM     24  C   UNL     1      53.437   4.932  18.171  0.00  0.00    +0.000 C 
BRANCH  24  25
ATOM     25  C   UNL     1      54.450   5.231  17.035  0.00  0.00    +0.000 C 
ATOM     26  O   UNL     1      55.571   4.718  17.037  0.00  0.00    +0.000 OA
ATOM     27  N   UNL     1      54.030   6.066  15.997  0.00  0.00    +0.000 N 
ATOM     28  C   UNL     1      54.897   6.276  14.840  0.00  0.00    +0.000 C 
ATOM     29  C   UNL     1      55.299   7.745  14.714  0.00  0.00    +0.000 C 
ATOM     30  C   UNL     1      54.076   8.663  14.743  0.00  0.00    +0.000 C 
ATOM     31  C   UNL     1      53.192   8.366  15.955  0.00  0.00    +0.000 C 
ATOM     32  C   UNL     1      52.816   6.885  16.001  0.00  0.00    +0.000 C 
ENDBRANCH  24  25
BRANCH  24  33
ATOM     33  O   UNL     1      54.022   5.092  19.465  0.00  0.00    +0.000 OA
ATOM     34  H   UNL     1      53.772   5.972  19.790  0.00  0.00    +0.000 HD
ENDBRANCH  24  33
ENDBRANCH  23  24
ENDBRANCH   4  23
TORSDOF 7
ENDMDL
MODEL 7
REMARK VINA RESULT:    -7.134      2.833      8.555
REMARK INTER + INTRA:         -10.380
REMARK INTER:                  -9.149
REMARK INTRA:                  -1.232
REMARK UNBOUND:                -0.535
REMARK  Name = 
REMARK  7 active torsions:
REMARK  status: ('A' for Active; 'I' for Inactive)
REMARK    1  A    between atoms: C_2  and  C_22
REMARK    2  A    between atoms: N_3  and  C_4
REMARK    3  A    between atoms: C_4  and  C_5
REMARK    4  A    between atoms: C_8  and  C_9
REMARK    5  A    between atoms: C_9  and  C_10
REMARK    6  A    between atoms: C_10  and  O_11
REMARK    7  A    between atoms: C_10  and  C_12
REMARK                            x       y       z     vdW  Elec       q    Type
REMARK                         _______ _______ _______ _____ _____    ______ ____
ROOT
ATOM      1  C   UNL     1      48.454   8.157  13.316  0.00  0.00    +0.000 A 
ATOM      2  C   UNL     1      49.732   7.721  13.685  0.00  0.00    +0.000 A 
ATOM      3  C   UNL     1      50.221   7.959  14.973  0.00  0.00    +0.000 A 
ATOM      4  C   UNL     1      49.446   8.641  15.918  0.00  0.00    +0.000 A 
ATOM      5  C   UNL     1      48.150   9.040  15.561  0.00  0.00    +0.000 A 
ATOM      6  C   UNL     1      47.658   8.796  14.274  0.00  0.00    +0.000 A 
ENDROOT
BRANCH   1   7
ATOM      7  C   UNL     1      47.953   7.927  11.914  0.00  0.00    +0.000 C 
BRANCH   7  10
ATOM      8  O   UNL     1      45.141   7.736  11.901  0.00  0.00    +0.000 OA
ATOM      9  C   UNL     1      45.808   6.712  11.778  0.00  0.00    +0.000 C 
ATOM     10  N   UNL     1      47.178   6.716  11.819  0.00  0.00    +0.000 N 
ATOM     11  H   UNL     1      47.687   5.879  11.560  0.00  0.00    +0.000 HD
BRANCH   9  12
ATOM     12  C   UNL     1      45.165   5.399  11.628  0.00  0.00    +0.000 A 
ATOM     13  C   UNL     1      44.509   4.826  12.709  0.00  0.00    +0.000 A 
ATOM     14  S   UNL     1      43.804   3.313  12.358  0.00  0.00    +0.000 S 
ATOM     15  C   UNL     1      44.318   3.389  10.739  0.00  0.00    +0.000 A 
ATOM     16  N   UNL     1      43.995   2.407   9.857  0.00  0.00    +0.000 NA
ATOM     17  C   UNL     1      44.413   2.610   8.653  0.00  0.00    +0.000 A 
ATOM     18  N   UNL     1      45.141   3.701   8.252  0.00  0.00    +0.000 N 
ATOM     19  C   UNL     1      45.562   4.675   9.124  0.00  0.00    +0.000 A 
ATOM     20  O   UNL     1      46.346   5.547   8.771  0.00  0.00    +0.000 OA
ATOM     21  C   UNL     1      45.059   4.528  10.479  0.00  0.00    +0.000 A 
ATOM     22  H   UNL     1      45.472   3.781   7.304  0.00  0.00    +0.000 HD
ENDBRANCH   9  12
ENDBRANCH   7  10
ENDBRANCH   1   7
BRANCH   4  23
ATOM     23  C   UNL     1      49.988   8.926  17.304  0.00  0.00    +0.000 C 
BRANCH  23  24
ATOM     24  C   UNL     1      50.211   7.655  18.152  0.00  0.00    +0.000 C 
BRANCH  24  25
ATOM     25  C   UNL     1      48.963   6.735  18.103  0.00  0.00    +0.000 C 
ATOM     26  O   UNL     1      47.893   7.093  18.601  0.00  0.00    +0.000 OA
ATOM     27  N   UNL     1      49.088   5.511  17.441  0.00  0.00    +0.000 N 
ATOM     28  C   UNL     1      47.912   4.665  17.255  0.00  0.00    +0.000 C 
ATOM     29  C   UNL     1      48.079   3.324  17.970  0.00  0.00    +0.000 C 
ATOM     30  C   UNL     1      49.395   2.646  17.584  0.00  0.00    +0.000 C 
ATOM     31  C   UNL     1      50.580   3.596  17.766  0.00  0.00    +0.000 C 
ATOM     32  C   UNL     1      50.347   4.903  17.007  0.00  0.00    +0.000 C 
ENDBRANCH  24  25
BRANCH  24  33
ATOM     33  O   UNL     1      50.547   8.028  19.490  0.00  0.00    +0.000 OA
ATOM     34  H   UNL     1      49.939   8.735  19.756  0.00  0.00    +0.000 HD
ENDBRANCH  24  33
ENDBRANCH  23  24
ENDBRANCH   4  23
TORSDOF 7
ENDMDL
MODEL 8
REMARK VINA RESULT:    -6.983      3.624      8.136
REMARK INTER + INTRA:         -10.171
REMARK INTER:                  -8.518
REMARK INTRA:                  -1.653
REMARK UNBOUND:                -0.535
REMARK  Name = 
REMARK  7 active torsions:
REMARK  status: ('A' for Active; 'I' for Inactive)
REMARK    1  A    between atoms: C_2  and  C_22
REMARK    2  A    between atoms: N_3  and  C_4
REMARK    3  A    between atoms: C_4  and  C_5
REMARK    4  A    between atoms: C_8  and  C_9
REMARK    5  A    between atoms: C_9  and  C_10
REMARK    6  A    between atoms: C_10  and  O_11
REMARK    7  A    between atoms: C_10  and  C_12
REMARK                            x       y       z     vdW  Elec       q    Type
REMARK                         _______ _______ _______ _____ _____    ______ ____
ROOT
ATOM      1  C   UNL     1      48.719   9.312  15.864  0.00  0.00    +0.000 A 
ATOM      2  C   UNL     1      47.901   9.519  16.982  0.00  0.00    +0.000 A 
ATOM      3  C   UNL     1      48.281   9.040  18.239  0.00  0.00    +0.000 A 
ATOM      4  C   UNL     1      49.483   8.343  18.407  0.00  0.00    +0.000 A 
ATOM      5  C   UNL     1      50.320   8.173  17.296  0.00  0.00    +0.000 A 
ATOM      6  C   UNL     1      49.945   8.658  16.038  0.00  0.00    +0.000 A 
ENDROOT
BRANCH   1   7
ATOM      7  C   UNL     1      48.282   9.800  14.508  0.00  0.00    +0.000 C 
BRANCH   7  10
ATOM      8  O   UNL     1      48.633   7.802  12.552  0.00  0.00    +0.000 OA
ATOM      9  C   UNL     1      47.514   7.981  13.025  0.00  0.00    +0.000 C 
ATOM     10  N   UNL     1      47.254   8.962  13.947  0.00  0.00    +0.000 N 
ATOM     11  H   UNL     1      46.359   8.974  14.423  0.00  0.00    +0.000 HD
BRANCH   9  12
ATOM     12  C   UNL     1      46.365   7.177  12.587  0.00  0.00    +0.000 A 
ATOM     13  C   UNL     1      45.348   7.772  11.853  0.00  0.00    +0.000 A 
ATOM     14  S   UNL     1      44.103   6.694  11.411  0.00  0.00    +0.000 S 
ATOM     15  C   UNL     1      44.898   5.387  12.152  0.00  0.00    +0.000 A 
ATOM     16  N   UNL     1      44.380   4.132  12.096  0.00  0.00    +0.000 NA
ATOM     17  C   UNL     1      45.106   3.227  12.663  0.00  0.00    +0.000 A 
ATOM     18  N   UNL     1      46.298   3.466  13.298  0.00  0.00    +0.000 N 
ATOM     19  C   UNL     1      46.818   4.728  13.452  0.00  0.00    +0.000 A 
ATOM     20  O   UNL     1      47.796   4.929  14.162  0.00  0.00    +0.000 OA
ATOM     21  C   UNL     1      46.073   5.773  12.771  0.00  0.00    +0.000 A 
ATOM     22  H   UNL     1      46.798   2.721  13.756  0.00  0.00    +0.000 HD
ENDBRANCH   9  12
ENDBRANCH   7  10
ENDBRANCH   1   7
BRANCH   4  23
ATOM     23  C   UNL     1      49.879   7.798  19.764  0.00  0.00    +0.000 C 
BRANCH  23  24
ATOM     24  C   UNL     1      49.937   6.256  19.814  0.00  0.00    +0.000 C 
BRANCH  24  25
ATOM     25  C   UNL     1      48.600   5.638  19.326  0.00  0.00    +0.000 C 
ATOM     26  O   UNL     1      47.557   5.804  19.963  0.00  0.00    +0.000 OA
ATOM     27  N   UNL     1      48.617   4.926  18.124  0.00  0.00    +0.000 N 
ATOM     28  C   UNL     1      47.365   4.435  17.555  0.00  0.00    +0.000 C 
ATOM     29  C   UNL     1      47.361   2.909  17.470  0.00  0.00    +0.000 C 
ATOM     30  C   UNL     1      48.609   2.385  16.758  0.00  0.00    +0.000 C 
ATOM     31  C   UNL     1      49.882   2.967  17.377  0.00  0.00    +0.000 C 
ATOM     32  C   UNL     1      49.819   4.494  17.408  0.00  0.00    +0.000 C 
ENDBRANCH  24  25
BRANCH  24  33
ATOM     33  O   UNL     1      50.268   5.834  21.139  0.00  0.00    +0.000 OA
ATOM     34  H   UNL     1      49.928   6.506  21.751  0.00  0.00    +0.000 HD
ENDBRANCH  24  33
ENDBRANCH  23  24
ENDBRANCH   4  23
TORSDOF 7
ENDMDL
MODEL 9
REMARK VINA RESULT:    -6.847      2.471      4.414
REMARK INTER + INTRA:          -9.984
REMARK INTER:                  -8.795
REMARK INTRA:                  -1.189
REMARK UNBOUND:                -0.535
REMARK  Name = 
REMARK  7 active torsions:
REMARK  status: ('A' for Active; 'I' for Inactive)
REMARK    1  A    between atoms: C_2  and  C_22
REMARK    2  A    between atoms: N_3  and  C_4
REMARK    3  A    between atoms: C_4  and  C_5
REMARK    4  A    between atoms: C_8  and  C_9
REMARK    5  A    between atoms: C_9  and  C_10
REMARK    6  A    between atoms: C_10  and  O_11
REMARK    7  A    between atoms: C_10  and  C_12
REMARK                            x       y       z     vdW  Elec       q    Type
REMARK                         _______ _______ _______ _____ _____    ______ ____
ROOT
ATOM      1  C   UNL     1      46.625   4.705  13.963  0.00  0.00    +0.000 A 
ATOM      2  C   UNL     1      46.651   3.363  13.565  0.00  0.00    +0.000 A 
ATOM      3  C   UNL     1      45.801   2.904  12.556  0.00  0.00    +0.000 A 
ATOM      4  C   UNL     1      44.904   3.773  11.924  0.00  0.00    +0.000 A 
ATOM      5  C   UNL     1      44.907   5.125  12.294  0.00  0.00    +0.000 A 
ATOM      6  C   UNL     1      45.763   5.588  13.300  0.00  0.00    +0.000 A 
ENDROOT
BRANCH   1   7
ATOM      7  C   UNL     1      47.520   5.181  15.078  0.00  0.00    +0.000 C 
BRANCH   7  10
ATOM      8  O   UNL     1      50.023   6.297  15.731  0.00  0.00    +0.000 OA
ATOM      9  C   UNL     1      49.176   7.008  15.197  0.00  0.00    +0.000 C 
ATOM     10  N   UNL     1      47.921   6.552  14.889  0.00  0.00    +0.000 N 
ATOM     11  H   UNL     1      47.311   7.120  14.312  0.00  0.00    +0.000 HD
BRANCH   9  12
ATOM     12  C   UNL     1      49.447   8.421  14.899  0.00  0.00    +0.000 A 
ATOM     13  C   UNL     1      49.913   9.260  15.902  0.00  0.00    +0.000 A 
ATOM     14  S   UNL     1      50.192  10.860  15.381  0.00  0.00    +0.000 S 
ATOM     15  C   UNL     1      49.737  10.478  13.788  0.00  0.00    +0.000 A 
ATOM     16  N   UNL     1      49.796  11.411  12.802  0.00  0.00    +0.000 NA
ATOM     17  C   UNL     1      49.462  10.977  11.633  0.00  0.00    +0.000 A 
ATOM     18  N   UNL     1      49.057   9.695  11.362  0.00  0.00    +0.000 N 
ATOM     19  C   UNL     1      48.900   8.743  12.339  0.00  0.00    +0.000 A 
ATOM     20  O   UNL     1      48.382   7.660  12.093  0.00  0.00    +0.000 OA
ATOM     21  C   UNL     1      49.330   9.162  13.663  0.00  0.00    +0.000 A 
ATOM     22  H   UNL     1      48.770   9.429  10.433  0.00  0.00    +0.000 HD
ENDBRANCH   9  12
ENDBRANCH   7  10
ENDBRANCH   1   7
BRANCH   4  23
ATOM     23  C   UNL     1      43.961   3.268  10.852  0.00  0.00    +0.000 C 
BRANCH  23  24
ATOM     24  C   UNL     1      44.666   2.454   9.745  0.00  0.00    +0.000 C 
BRANCH  24  25
ATOM     25  C   UNL     1      45.085   3.372   8.568  0.00  0.00    +0.000 C 
ATOM     26  O   UNL     1      44.414   4.363   8.268  0.00  0.00    +0.000 OA
ATOM     27  N   UNL     1      46.268   3.059   7.892  0.00  0.00    +0.000 N 
ATOM     28  C   UNL     1      46.775   3.963   6.862  0.00  0.00    +0.000 C 
ATOM     29  C   UNL     1      46.818   3.273   5.499  0.00  0.00    +0.000 C 
ATOM     30  C   UNL     1      47.563   1.939   5.571  0.00  0.00    +0.000 C 
ATOM     31  C   UNL     1      47.010   1.058   6.693  0.00  0.00    +0.000 C 
ATOM     32  C   UNL     1      47.017   1.808   8.024  0.00  0.00    +0.000 C 
ENDBRANCH  24  25
BRANCH  24  33
ATOM     33  O   UNL     1      43.811   1.392   9.316  0.00  0.00    +0.000 OA
ATOM     34  H   UNL     1      43.882   1.335   8.350  0.00  0.00    +0.000 HD
ENDBRANCH  24  33
ENDBRANCH  23  24
ENDBRANCH   4  23
TORSDOF 7
ENDMDL
