MODEL 1
REMARK VINA RESULT:    -7.769      0.000      0.000
REMARK INTER + INTRA:         -11.413
REMARK INTER:                 -10.949
REMARK INTRA:                  -0.465
REMARK UNBOUND:                -0.465
REMARK  Name = 
REMARK  8 active torsions:
REMARK  status: ('A' for Active; 'I' for Inactive)
REMARK    1  A    between atoms: C_1  and  O_2
REMARK    2  A    between atoms: O_2  and  C_3
REMARK    3  A    between atoms: C_3  and  C_4
REMARK    4  A    between atoms: C_4  and  N_5
REMARK    5  A    between atoms: C_4  and  C_18
REMARK    6  A    between atoms: C_6  and  C_8
REMARK    7  A    between atoms: C_21  and  O_22
REMARK    8  A    between atoms: O_22  and  C_23
REMARK                            x       y       z     vdW  Elec       q    Type
REMARK                         _______ _______ _______ _____ _____    ______ ____
ROOT
ATOM      1  C   UNL     1      45.278   7.663  12.566  0.00  0.00    +0.000 C 
ENDROOT
BRANCH   1   2
ATOM      2  C   UNL     1      45.098   6.527  11.565  0.00  0.00    +0.000 A 
ATOM      3  C   UNL     1      46.045   6.284  10.572  0.00  0.00    +0.000 A 
ATOM      4  C   UNL     1      45.790   5.316   9.610  0.00  0.00    +0.000 A 
ATOM      5  C   UNL     1      44.581   4.629   9.634  0.00  0.00    +0.000 A 
ATOM      6  C   UNL     1      43.730   4.862  10.702  0.00  0.00    +0.000 A 
ATOM      7  N   UNL     1      43.963   5.781  11.671  0.00  0.00    +0.000 NA
BRANCH   5   8
ATOM      8  O   UNL     1      44.210   3.706   8.688  0.00  0.00    +0.000 OA
BRANCH   8   9
ATOM      9  C   UNL     1      45.228   2.990   8.073  0.00  0.00    +0.000 A 
ATOM     10  C   UNL     1      45.557   1.752   8.602  0.00  0.00    +0.000 A 
ATOM     11  N   UNL     1      46.571   0.995   8.110  0.00  0.00    +0.000 NA
ATOM     12  C   UNL     1      47.232   1.533   7.058  0.00  0.00    +0.000 A 
ATOM     13  C   UNL     1      46.887   2.756   6.511  0.00  0.00    +0.000 A 
ATOM     14  N   UNL     1      45.871   3.504   6.995  0.00  0.00    +0.000 NA
ENDBRANCH   8   9
ENDBRANCH   5   8
ENDBRANCH   1   2
BRANCH   1  15
ATOM     15  N   UNL     1      46.168   7.292  13.660  0.00  0.00    +0.000 N 
ATOM     16  C   UNL     1      47.535   7.267  13.569  0.00  0.00    +0.000 C 
ATOM     17  O   UNL     1      48.139   7.704  12.596  0.00  0.00    +0.000 OA
ATOM     18  H   UNL     1      45.713   6.769  14.402  0.00  0.00    +0.000 HD
BRANCH  16  19
ATOM     19  C   UNL     1      48.253   6.723  14.726  0.00  0.00    +0.000 A 
ATOM     20  C   UNL     1      49.278   7.461  15.306  0.00  0.00    +0.000 A 
ATOM     21  S   UNL     1      50.026   6.674  16.619  0.00  0.00    +0.000 S 
ATOM     22  C   UNL     1      49.044   5.299  16.426  0.00  0.00    +0.000 A 
ATOM     23  N   UNL     1      49.216   4.201  17.209  0.00  0.00    +0.000 NA
ATOM     24  C   UNL     1      48.432   3.216  16.925  0.00  0.00    +0.000 A 
ATOM     25  N   UNL     1      47.471   3.240  15.948  0.00  0.00    +0.000 N 
ATOM     26  C   UNL     1      47.197   4.359  15.200  0.00  0.00    +0.000 A 
ATOM     27  O   UNL     1      46.223   4.407  14.451  0.00  0.00    +0.000 OA
ATOM     28  C   UNL     1      48.113   5.464  15.415  0.00  0.00    +0.000 A 
ATOM     29  H   UNL     1      46.853   2.452  15.811  0.00  0.00    +0.000 HD
ENDBRANCH  16  19
ENDBRANCH   1  15
BRANCH   1  30
ATOM     30  C   UNL     1      45.626   9.021  11.917  0.00  0.00    +0.000 C 
BRANCH  30  32
ATOM     31  C   UNL     1      43.889  10.524  11.363  0.00  0.00    +0.000 C 
ATOM     32  O   UNL     1      44.729  10.031  12.394  0.00  0.00    +0.000 OA
ENDBRANCH  30  32
ENDBRANCH   1  30
TORSDOF 7
ENDMDL
MODEL 2
REMARK VINA RESULT:    -7.595      3.082      5.307
REMARK INTER + INTRA:         -11.167
REMARK INTER:                 -10.129
REMARK INTRA:                  -1.038
REMARK UNBOUND:                -0.465
REMARK  Name = 
REMARK  8 active torsions:
REMARK  status: ('A' for Active; 'I' for Inactive)
REMARK    1  A    between atoms: C_1  and  O_2
REMARK    2  A    between atoms: O_2  and  C_3
REMARK    3  A    between atoms: C_3  and  C_4
REMARK    4  A    between atoms: C_4  and  N_5
REMARK    5  A    between atoms: C_4  and  C_18
REMARK    6  A    between atoms: C_6  and  C_8
REMARK    7  A    between atoms: C_21  and  O_22
REMARK    8  A    between atoms: O_22  and  C_23
REMARK                            x       y       z     vdW  Elec       q    Type
REMARK                         _______ _______ _______ _____ _____    ______ ____
ROOT
ATOM      1  C   UNL     1      47.992   4.223  15.696  0.00  0.00    +0.000 C 
ENDROOT
BRANCH   1   2
ATOM      2  C   UNL     1      47.118   4.350  14.453  0.00  0.00    +0.000 A 
ATOM      3  C   UNL     1      46.681   5.594  14.003  0.00  0.00    +0.000 A 
ATOM      4  C   UNL     1      45.793   5.659  12.938  0.00  0.00    +0.000 A 
ATOM      5  C   UNL     1      45.331   4.482  12.358  0.00  0.00    +0.000 A 
ATOM      6  C   UNL     1      45.879   3.290  12.802  0.00  0.00    +0.000 A 
ATOM      7  N   UNL     1      46.767   3.195  13.821  0.00  0.00    +0.000 NA
BRANCH   5   8
ATOM      8  O   UNL     1      44.402   4.444  11.349  0.00  0.00    +0.000 OA
BRANCH   8   9
ATOM      9  C   UNL     1      44.846   4.034  10.100  0.00  0.00    +0.000 A 
ATOM     10  C   UNL     1      45.522   4.958   9.319  0.00  0.00    +0.000 A 
ATOM     11  N   UNL     1      45.950   4.677   8.062  0.00  0.00    +0.000 NA
ATOM     12  C   UNL     1      45.678   3.424   7.628  0.00  0.00    +0.000 A 
ATOM     13  C   UNL     1      45.028   2.490   8.417  0.00  0.00    +0.000 A 
ATOM     14  N   UNL     1      44.611   2.769   9.672  0.00  0.00    +0.000 NA
ENDBRANCH   8   9
ENDBRANCH   5   8
ENDBRANCH   1   2
BRANCH   1  15
ATOM     15  N   UNL     1      47.795   5.334  16.619  0.00  0.00    +0.000 N 
ATOM     16  C   UNL     1      48.812   6.046  17.199  0.00  0.00    +0.000 C 
ATOM     17  O   UNL     1      49.985   5.906  16.871  0.00  0.00    +0.000 OA
ATOM     18  H   UNL     1      46.871   5.363  17.040  0.00  0.00    +0.000 HD
BRANCH  16  19
ATOM     19  C   UNL     1      48.421   7.027  18.216  0.00  0.00    +0.000 A 
ATOM     20  C   UNL     1      48.198   6.610  19.522  0.00  0.00    +0.000 A 
ATOM     21  S   UNL     1      47.724   7.869  20.569  0.00  0.00    +0.000 S 
ATOM     22  C   UNL     1      47.748   9.005  19.303  0.00  0.00    +0.000 A 
ATOM     23  N   UNL     1      47.374  10.295  19.513  0.00  0.00    +0.000 NA
ATOM     24  C   UNL     1      47.401  11.036  18.457  0.00  0.00    +0.000 A 
ATOM     25  N   UNL     1      47.796  10.612  17.215  0.00  0.00    +0.000 N 
ATOM     26  C   UNL     1      48.274   9.346  16.977  0.00  0.00    +0.000 A 
ATOM     27  O   UNL     1      48.778   9.042  15.898  0.00  0.00    +0.000 OA
ATOM     28  C   UNL     1      48.177   8.445  18.112  0.00  0.00    +0.000 A 
ATOM     29  H   UNL     1      47.843  11.257  16.439  0.00  0.00    +0.000 HD
ENDBRANCH  16  19
ENDBRANCH   1  15
BRANCH   1  30
ATOM     30  C   UNL     1      47.923   2.835  16.372  0.00  0.00    +0.000 C 
BRANCH  30  32
ATOM     31  C   UNL     1      50.090   2.155  17.025  0.00  0.00    +0.000 C 
ATOM     32  O   UNL     1      49.084   2.069  16.029  0.00  0.00    +0.000 OA
ENDBRANCH  30  32
ENDBRANCH   1  30
TORSDOF 7
ENDMDL
MODEL 3
REMARK VINA RESULT:    -7.563      1.479      1.696
REMARK INTER + INTRA:         -11.123
REMARK INTER:                 -10.579
REMARK INTRA:                  -0.543
REMARK UNBOUND:                -0.465
REMARK  Name = 
REMARK  8 active torsions:
REMARK  status: ('A' for Active; 'I' for Inactive)
REMARK    1  A    between atoms: C_1  and  O_2
REMARK    2  A    between atoms: O_2  and  C_3
REMARK    3  A    between atoms: C_3  and  C_4
REMARK    4  A    between atoms: C_4  and  N_5
REMARK    5  A    between atoms: C_4  and  C_18
REMARK    6  A    between atoms: C_6  and  C_8
REMARK    7  A    between atoms: C_21  and  O_22
REMARK    8  A    between atoms: O_22  and  C_23
REMARK                            x       y       z     vdW  Elec       q    Type
REMARK                         _______ _______ _______ _____ _____    ______ ____
ROOT
ATOM      1  C   UNL     1      46.987   8.328  13.355  0.00  0.00    +0.000 C 
ENDROOT
BRANCH   1   2
ATOM      2  C   UNL     1      46.324   7.261  12.492  0.00  0.00    +0.000 A 
ATOM      3  C   UNL     1      46.907   6.829  11.303  0.00  0.00    +0.000 A 
ATOM      4  C   UNL     1      46.217   5.941  10.489  0.00  0.00    +0.000 A 
ATOM      5  C   UNL     1      44.943   5.522  10.857  0.00  0.00    +0.000 A 
ATOM      6  C   UNL     1      44.468   5.924  12.095  0.00  0.00    +0.000 A 
ATOM      7  N   UNL     1      45.129   6.768  12.924  0.00  0.00    +0.000 NA
BRANCH   5   8
ATOM      8  O   UNL     1      44.158   4.703  10.087  0.00  0.00    +0.000 OA
BRANCH   8   9
ATOM      9  C   UNL     1      44.810   3.838   9.219  0.00  0.00    +0.000 A 
ATOM     10  C   UNL     1      44.927   2.510   9.598  0.00  0.00    +0.000 A 
ATOM     11  N   UNL     1      45.593   1.594   8.849  0.00  0.00    +0.000 NA
ATOM     12  C   UNL     1      46.125   2.069   7.699  0.00  0.00    +0.000 A 
ATOM     13  C   UNL     1      45.986   3.388   7.305  0.00  0.00    +0.000 A 
ATOM     14  N   UNL     1      45.315   4.297   8.047  0.00  0.00    +0.000 NA
ENDBRANCH   8   9
ENDBRANCH   5   8
ENDBRANCH   1   2
BRANCH   1  15
ATOM     15  N   UNL     1      47.493   7.782  14.609  0.00  0.00    +0.000 N 
ATOM     16  C   UNL     1      48.552   6.917  14.703  0.00  0.00    +0.000 C 
ATOM     17  O   UNL     1      49.268   6.644  13.745  0.00  0.00    +0.000 OA
ATOM     18  H   UNL     1      46.837   7.843  15.380  0.00  0.00    +0.000 HD
BRANCH  16  19
ATOM     19  C   UNL     1      48.819   6.359  16.033  0.00  0.00    +0.000 A 
ATOM     20  C   UNL     1      49.709   7.004  16.881  0.00  0.00    +0.000 A 
ATOM     21  S   UNL     1      49.927   6.210  18.373  0.00  0.00    +0.000 S 
ATOM     22  C   UNL     1      48.882   4.948  17.916  0.00  0.00    +0.000 A 
ATOM     23  N   UNL     1      48.672   3.882  18.734  0.00  0.00    +0.000 NA
ATOM     24  C   UNL     1      47.890   2.980  18.244  0.00  0.00    +0.000 A 
ATOM     25  N   UNL     1      47.275   3.061  17.022  0.00  0.00    +0.000 N 
ATOM     26  C   UNL     1      47.379   4.162  16.206  0.00  0.00    +0.000 A 
ATOM     27  O   UNL     1      46.687   4.281  15.197  0.00  0.00    +0.000 OA
ATOM     28  C   UNL     1      48.322   5.164  16.669  0.00  0.00    +0.000 A 
ATOM     29  H   UNL     1      46.632   2.343  16.718  0.00  0.00    +0.000 HD
ENDBRANCH  16  19
ENDBRANCH   1  15
BRANCH   1  30
ATOM     30  C   UNL     1      48.016   9.196  12.596  0.00  0.00    +0.000 C 
BRANCH  30  32
ATOM     31  C   UNL     1      46.591  10.847  11.686  0.00  0.00    +0.000 C 
ATOM     32  O   UNL     1      47.612  10.570  12.631  0.00  0.00    +0.000 OA
ENDBRANCH  30  32
ENDBRANCH   1  30
TORSDOF 7
ENDMDL
MODEL 4
REMARK VINA RESULT:    -7.457      3.874      8.441
REMARK INTER + INTRA:         -10.973
REMARK INTER:                 -10.259
REMARK INTRA:                  -0.714
REMARK UNBOUND:                -0.465
REMARK  Name = 
REMARK  8 active torsions:
REMARK  status: ('A' for Active; 'I' for Inactive)
REMARK    1  A    between atoms: C_1  and  O_2
REMARK    2  A    between atoms: O_2  and  C_3
REMARK    3  A    between atoms: C_3  and  C_4
REMARK    4  A    between atoms: C_4  and  N_5
REMARK    5  A    between atoms: C_4  and  C_18
REMARK    6  A    between atoms: C_6  and  C_8
REMARK    7  A    between atoms: C_21  and  O_22
REMARK    8  A    between atoms: O_22  and  C_23
REMARK                            x       y       z     vdW  Elec       q    Type
REMARK                         _______ _______ _______ _____ _____    ______ ____
ROOT
ATOM      1  C   UNL     1      48.889   5.948  16.778  0.00  0.00    +0.000 C 
ENDROOT
BRANCH   1   2
ATOM      2  C   UNL     1      49.578   4.624  17.083  0.00  0.00    +0.000 A 
ATOM      3  C   UNL     1      50.881   4.586  17.578  0.00  0.00    +0.000 A 
ATOM      4  C   UNL     1      51.514   3.361  17.734  0.00  0.00    +0.000 A 
ATOM      5  C   UNL     1      50.852   2.195  17.365  0.00  0.00    +0.000 A 
ATOM      6  C   UNL     1      49.530   2.307  16.967  0.00  0.00    +0.000 A 
ATOM      7  N   UNL     1      48.875   3.485  16.830  0.00  0.00    +0.000 NA
BRANCH   5   8
ATOM      8  O   UNL     1      51.420   0.948  17.417  0.00  0.00    +0.000 OA
BRANCH   8   9
ATOM      9  C   UNL     1      52.791   0.887  17.621  0.00  0.00    +0.000 A 
ATOM     10  C   UNL     1      53.571   0.347  16.610  0.00  0.00    +0.000 A 
ATOM     11  N   UNL     1      54.915   0.192  16.730  0.00  0.00    +0.000 NA
ATOM     12  C   UNL     1      55.440   0.612  17.903  0.00  0.00    +0.000 A 
ATOM     13  C   UNL     1      54.668   1.178  18.903  0.00  0.00    +0.000 A 
ATOM     14  N   UNL     1      53.332   1.341  18.779  0.00  0.00    +0.000 NA
ENDBRANCH   8   9
ENDBRANCH   5   8
ENDBRANCH   1   2
BRANCH   1  15
ATOM     15  N   UNL     1      47.960   5.837  15.659  0.00  0.00    +0.000 N 
ATOM     16  C   UNL     1      48.215   6.298  14.394  0.00  0.00    +0.000 C 
ATOM     17  O   UNL     1      49.317   6.713  14.054  0.00  0.00    +0.000 OA
ATOM     18  H   UNL     1      46.998   5.665  15.937  0.00  0.00    +0.000 HD
BRANCH  16  19
ATOM     19  C   UNL     1      47.102   6.231  13.441  0.00  0.00    +0.000 A 
ATOM     20  C   UNL     1      46.631   7.398  12.855  0.00  0.00    +0.000 A 
ATOM     21  S   UNL     1      45.319   7.148  11.796  0.00  0.00    +0.000 S 
ATOM     22  C   UNL     1      45.300   5.479  12.125  0.00  0.00    +0.000 A 
ATOM     23  N   UNL     1      44.357   4.668  11.577  0.00  0.00    +0.000 NA
ATOM     24  C   UNL     1      44.436   3.434  11.946  0.00  0.00    +0.000 A 
ATOM     25  N   UNL     1      45.391   2.931  12.790  0.00  0.00    +0.000 N 
ATOM     26  C   UNL     1      46.420   3.693  13.289  0.00  0.00    +0.000 A 
ATOM     27  O   UNL     1      47.355   3.184  13.905  0.00  0.00    +0.000 OA
ATOM     28  C   UNL     1      46.324   5.108  12.980  0.00  0.00    +0.000 A 
ATOM     29  H   UNL     1      45.428   1.943  12.998  0.00  0.00    +0.000 HD
ENDBRANCH  16  19
ENDBRANCH   1  15
BRANCH   1  30
ATOM     30  C   UNL     1      48.283   6.641  18.019  0.00  0.00    +0.000 C 
BRANCH  30  32
ATOM     31  C   UNL     1      47.487   6.056  20.166  0.00  0.00    +0.000 C 
ATOM     32  O   UNL     1      47.550   5.687  18.798  0.00  0.00    +0.000 OA
ENDBRANCH  30  32
ENDBRANCH   1  30
TORSDOF 7
ENDMDL
MODEL 5
REMARK VINA RESULT:    -7.388      1.818      2.485
REMARK INTER + INTRA:         -10.876
REMARK INTER:                 -10.662
REMARK INTRA:                  -0.215
REMARK UNBOUND:                -0.465
REMARK  Name = 
REMARK  8 active torsions:
REMARK  status: ('A' for Active; 'I' for Inactive)
REMARK    1  A    between atoms: C_1  and  O_2
REMARK    2  A    between atoms: O_2  and  C_3
REMARK    3  A    between atoms: C_3  and  C_4
REMARK    4  A    between atoms: C_4  and  N_5
REMARK    5  A    between atoms: C_4  and  C_18
REMARK    6  A    between atoms: C_6  and  C_8
REMARK    7  A    between atoms: C_21  and  O_22
REMARK    8  A    between atoms: O_22  and  C_23
REMARK                            x       y       z     vdW  Elec       q    Type
REMARK                         _______ _______ _______ _____ _____    ______ ____
ROOT
ATOM      1  C   UNL     1      45.305   6.425  12.508  0.00  0.00    +0.000 C 
ENDROOT
BRANCH   1   2
ATOM      2  C   UNL     1      45.054   5.280  11.534  0.00  0.00    +0.000 A 
ATOM      3  C   UNL     1      44.531   4.064  11.969  0.00  0.00    +0.000 A 
ATOM      4  C   UNL     1      44.425   3.009  11.073  0.00  0.00    +0.000 A 
ATOM      5  C   UNL     1      44.872   3.172   9.767  0.00  0.00    +0.000 A 
ATOM      6  C   UNL     1      45.296   4.434   9.386  0.00  0.00    +0.000 A 
ATOM      7  N   UNL     1      45.385   5.491  10.229  0.00  0.00    +0.000 NA
BRANCH   5   8
ATOM      8  O   UNL     1      44.872   2.168   8.831  0.00  0.00    +0.000 OA
BRANCH   8   9
ATOM      9  C   UNL     1      45.845   2.228   7.843  0.00  0.00    +0.000 A 
ATOM     10  C   UNL     1      46.821   1.245   7.837  0.00  0.00    +0.000 A 
ATOM     11  N   UNL     1      47.848   1.241   6.949  0.00  0.00    +0.000 NA
ATOM     12  C   UNL     1      47.844   2.263   6.061  0.00  0.00    +0.000 A 
ATOM     13  C   UNL     1      46.855   3.230   6.047  0.00  0.00    +0.000 A 
ATOM     14  N   UNL     1      45.828   3.227   6.926  0.00  0.00    +0.000 NA
ENDBRANCH   8   9
ENDBRANCH   5   8
ENDBRANCH   1   2
BRANCH   1  15
ATOM     15  N   UNL     1      45.907   5.962  13.753  0.00  0.00    +0.000 N 
ATOM     16  C   UNL     1      47.209   5.553  13.877  0.00  0.00    +0.000 C 
ATOM     17  O   UNL     1      48.030   5.686  12.976  0.00  0.00    +0.000 OA
ATOM     18  H   UNL     1      45.232   5.679  14.457  0.00  0.00    +0.000 HD
BRANCH  16  19
ATOM     19  C   UNL     1      47.590   4.980  15.172  0.00  0.00    +0.000 A 
ATOM     20  C   UNL     1      47.189   3.690  15.495  0.00  0.00    +0.000 A 
ATOM     21  S   UNL     1      47.691   3.189  17.045  0.00  0.00    +0.000 S 
ATOM     22  C   UNL     1      48.414   4.696  17.359  0.00  0.00    +0.000 A 
ATOM     23  N   UNL     1      48.984   4.961  18.564  0.00  0.00    +0.000 NA
ATOM     24  C   UNL     1      49.456   6.157  18.679  0.00  0.00    +0.000 A 
ATOM     25  N   UNL     1      49.437   7.102  17.687  0.00  0.00    +0.000 N 
ATOM     26  C   UNL     1      48.960   6.848  16.424  0.00  0.00    +0.000 A 
ATOM     27  O   UNL     1      49.106   7.654  15.508  0.00  0.00    +0.000 OA
ATOM     28  C   UNL     1      48.332   5.547  16.270  0.00  0.00    +0.000 A 
ATOM     29  H   UNL     1      49.871   8.005  17.824  0.00  0.00    +0.000 HD
ENDBRANCH  16  19
ENDBRANCH   1  15
BRANCH   1  30
ATOM     30  C   UNL     1      46.033   7.634  11.880  0.00  0.00    +0.000 C 
BRANCH  30  32
ATOM     31  C   UNL     1      47.349   9.314  12.896  0.00  0.00    +0.000 C 
ATOM     32  O   UNL     1      46.063   8.721  12.813  0.00  0.00    +0.000 OA
ENDBRANCH  30  32
ENDBRANCH   1  30
TORSDOF 7
ENDMDL
MODEL 6
REMARK VINA RESULT:    -7.198      1.694      2.715
REMARK INTER + INTRA:         -10.609
REMARK INTER:                  -9.562
REMARK INTRA:                  -1.047
REMARK UNBOUND:                -0.465
REMARK  Name = 
REMARK  8 active torsions:
REMARK  status: ('A' for Active; 'I' for Inactive)
REMARK    1  A    between atoms: C_1  and  O_2
REMARK    2  A    between atoms: O_2  and  C_3
REMARK    3  A    between atoms: C_3  and  C_4
REMARK    4  A    between atoms: C_4  and  N_5
REMARK    5  A    between atoms: C_4  and  C_18
REMARK    6  A    between atoms: C_6  and  C_8
REMARK    7  A    between atoms: C_21  and  O_22
REMARK    8  A    between atoms: O_22  and  C_23
REMARK                            x       y       z     vdW  Elec       q    Type
REMARK                         _______ _______ _______ _____ _____    ______ ____
ROOT
ATOM      1  C   UNL     1      45.153   7.026  12.650  0.00  0.00    +0.000 C 
ENDROOT
BRANCH   1   2
ATOM      2  C   UNL     1      45.085   6.032  11.496  0.00  0.00    +0.000 A 
ATOM      3  C   UNL     1      45.993   6.089  10.440  0.00  0.00    +0.000 A 
ATOM      4  C   UNL     1      45.827   5.241   9.354  0.00  0.00    +0.000 A 
ATOM      5  C   UNL     1      44.742   4.372   9.322  0.00  0.00    +0.000 A 
ATOM      6  C   UNL     1      43.936   4.310  10.447  0.00  0.00    +0.000 A 
ATOM      7  N   UNL     1      44.087   5.105  11.534  0.00  0.00    +0.000 NA
BRANCH   5   8
ATOM      8  O   UNL     1      44.457   3.547   8.263  0.00  0.00    +0.000 OA
BRANCH   8   9
ATOM      9  C   UNL     1      45.511   2.818   7.731  0.00  0.00    +0.000 A 
ATOM     10  C   UNL     1      45.830   1.611   8.333  0.00  0.00    +0.000 A 
ATOM     11  N   UNL     1      46.876   0.846   7.925  0.00  0.00    +0.000 NA
ATOM     12  C   UNL     1      47.579   1.343   6.881  0.00  0.00    +0.000 A 
ATOM     13  C   UNL     1      47.245   2.534   6.260  0.00  0.00    +0.000 A 
ATOM     14  N   UNL     1      46.198   3.289   6.661  0.00  0.00    +0.000 NA
ENDBRANCH   8   9
ENDBRANCH   5   8
ENDBRANCH   1   2
BRANCH   1  15
ATOM     15  N   UNL     1      46.500   7.138  13.197  0.00  0.00    +0.000 N 
ATOM     16  C   UNL     1      47.095   6.188  13.984  0.00  0.00    +0.000 C 
ATOM     17  O   UNL     1      46.598   5.082  14.174  0.00  0.00    +0.000 OA
ATOM     18  H   UNL     1      46.863   8.086  13.209  0.00  0.00    +0.000 HD
BRANCH  16  19
ATOM     19  C   UNL     1      48.394   6.544  14.565  0.00  0.00    +0.000 A 
ATOM     20  C   UNL     1      48.660   6.235  15.892  0.00  0.00    +0.000 A 
ATOM     21  S   UNL     1      50.201   6.743  16.415  0.00  0.00    +0.000 S 
ATOM     22  C   UNL     1      50.545   7.442  14.903  0.00  0.00    +0.000 A 
ATOM     23  N   UNL     1      51.706   8.115  14.691  0.00  0.00    +0.000 NA
ATOM     24  C   UNL     1      51.817   8.628  13.512  0.00  0.00    +0.000 A 
ATOM     25  N   UNL     1      50.884   8.504  12.516  0.00  0.00    +0.000 N 
ATOM     26  C   UNL     1      49.742   7.753  12.653  0.00  0.00    +0.000 A 
ATOM     27  O   UNL     1      49.008   7.520  11.695  0.00  0.00    +0.000 OA
ATOM     28  C   UNL     1      49.525   7.231  13.990  0.00  0.00    +0.000 A 
ATOM     29  H   UNL     1      51.056   8.888  11.597  0.00  0.00    +0.000 HD
ENDBRANCH  16  19
ENDBRANCH   1  15
BRANCH   1  30
ATOM     30  C   UNL     1      44.493   8.389  12.342  0.00  0.00    +0.000 C 
BRANCH  30  32
ATOM     31  C   UNL     1      45.126  10.593  11.768  0.00  0.00    +0.000 C 
ATOM     32  O   UNL     1      45.445   9.443  12.535  0.00  0.00    +0.000 OA
ENDBRANCH  30  32
ENDBRANCH   1  30
TORSDOF 7
ENDMDL
MODEL 7
REMARK VINA RESULT:    -6.969      2.502      4.085
REMARK INTER + INTRA:         -10.286
REMARK INTER:                  -9.601
REMARK INTRA:                  -0.685
REMARK UNBOUND:                -0.465
REMARK  Name = 
REMARK  8 active torsions:
REMARK  status: ('A' for Active; 'I' for Inactive)
REMARK    1  A    between atoms: C_1  and  O_2
REMARK    2  A    between atoms: O_2  and  C_3
REMARK    3  A    between atoms: C_3  and  C_4
REMARK    4  A    between atoms: C_4  and  N_5
REMARK    5  A    between atoms: C_4  and  C_18
REMARK    6  A    between atoms: C_6  and  C_8
REMARK    7  A    between atoms: C_21  and  O_22
REMARK    8  A    between atoms: O_22  and  C_23
REMARK                            x       y       z     vdW  Elec       q    Type
REMARK                         _______ _______ _______ _____ _____    ______ ____
ROOT
ATOM      1  C   UNL     1      48.584   7.232  14.943  0.00  0.00    +0.000 C 
ENDROOT
BRANCH   1   2
ATOM      2  C   UNL     1      47.606   6.521  14.015  0.00  0.00    +0.000 A 
ATOM      3  C   UNL     1      46.760   7.239  13.172  0.00  0.00    +0.000 A 
ATOM      4  C   UNL     1      45.804   6.561  12.428  0.00  0.00    +0.000 A 
ATOM      5  C   UNL     1      45.685   5.182  12.560  0.00  0.00    +0.000 A 
ATOM      6  C   UNL     1      46.619   4.530  13.348  0.00  0.00    +0.000 A 
ATOM      7  N   UNL     1      47.580   5.160  14.065  0.00  0.00    +0.000 NA
BRANCH   5   8
ATOM      8  O   UNL     1      44.728   4.436  11.920  0.00  0.00    +0.000 OA
BRANCH   8   9
ATOM      9  C   UNL     1      44.987   4.072  10.606  0.00  0.00    +0.000 A 
ATOM     10  C   UNL     1      45.447   5.054   9.743  0.00  0.00    +0.000 A 
ATOM     11  N   UNL     1      45.679   4.817   8.426  0.00  0.00    +0.000 NA
ATOM     12  C   UNL     1      45.438   3.550   8.018  0.00  0.00    +0.000 A 
ATOM     13  C   UNL     1      45.005   2.560   8.884  0.00  0.00    +0.000 A 
ATOM     14  N   UNL     1      44.784   2.795  10.197  0.00  0.00    +0.000 NA
ENDBRANCH   8   9
ENDBRANCH   5   8
ENDBRANCH   1   2
BRANCH   1  15
ATOM     15  N   UNL     1      49.483   6.297  15.611  0.00  0.00    +0.000 N 
ATOM     16  C   UNL     1      49.385   5.941  16.930  0.00  0.00    +0.000 C 
ATOM     17  O   UNL     1      48.432   6.264  17.632  0.00  0.00    +0.000 OA
ATOM     18  H   UNL     1      50.362   6.151  15.125  0.00  0.00    +0.000 HD
BRANCH  16  19
ATOM     19  C   UNL     1      50.468   5.106  17.460  0.00  0.00    +0.000 A 
ATOM     20  C   UNL     1      51.541   5.705  18.107  0.00  0.00    +0.000 A 
ATOM     21  S   UNL     1      52.724   4.598  18.636  0.00  0.00    +0.000 S 
ATOM     22  C   UNL     1      51.870   3.285  17.971  0.00  0.00    +0.000 A 
ATOM     23  N   UNL     1      52.376   2.024  18.020  0.00  0.00    +0.000 NA
ATOM     24  C   UNL     1      51.644   1.133  17.440  0.00  0.00    +0.000 A 
ATOM     25  N   UNL     1      50.436   1.384  16.843  0.00  0.00    +0.000 N 
ATOM     26  C   UNL     1      49.841   2.622  16.856  0.00  0.00    +0.000 A 
ATOM     27  O   UNL     1      48.687   2.783  16.463  0.00  0.00    +0.000 OA
ATOM     28  C   UNL     1      50.666   3.679  17.413  0.00  0.00    +0.000 A 
ATOM     29  H   UNL     1      49.887   0.631  16.452  0.00  0.00    +0.000 HD
ENDBRANCH  16  19
ENDBRANCH   1  15
BRANCH   1  30
ATOM     30  C   UNL     1      49.309   8.430  14.291  0.00  0.00    +0.000 C 
BRANCH  30  32
ATOM     31  C   UNL     1      51.651   8.668  14.077  0.00  0.00    +0.000 C 
ATOM     32  O   UNL     1      50.497   7.977  13.629  0.00  0.00    +0.000 OA
ENDBRANCH  30  32
ENDBRANCH   1  30
TORSDOF 7
ENDMDL
MODEL 8
REMARK VINA RESULT:    -6.854      2.312      3.097
REMARK INTER + INTRA:         -10.123
REMARK INTER:                  -9.055
REMARK INTRA:                  -1.068
REMARK UNBOUND:                -0.465
REMARK  Name = 
REMARK  8 active torsions:
REMARK  status: ('A' for Active; 'I' for Inactive)
REMARK    1  A    between atoms: C_1  and  O_2
REMARK    2  A    between atoms: O_2  and  C_3
REMARK    3  A    between atoms: C_3  and  C_4
REMARK    4  A    between atoms: C_4  and  N_5
REMARK    5  A    between atoms: C_4  and  C_18
REMARK    6  A    between atoms: C_6  and  C_8
REMARK    7  A    between atoms: C_21  and  O_22
REMARK    8  A    between atoms: O_22  and  C_23
REMARK                            x       y       z     vdW  Elec       q    Type
REMARK                         _______ _______ _______ _____ _____    ______ ____
ROOT
ATOM      1  C   UNL     1      48.017   7.606  13.595  0.00  0.00    +0.000 C 
ENDROOT
BRANCH   1   2
ATOM      2  C   UNL     1      46.948   6.797  12.870  0.00  0.00    +0.000 A 
ATOM      3  C   UNL     1      46.687   5.472  13.217  0.00  0.00    +0.000 A 
ATOM      4  C   UNL     1      45.789   4.734  12.458  0.00  0.00    +0.000 A 
ATOM      5  C   UNL     1      45.189   5.318  11.347  0.00  0.00    +0.000 A 
ATOM      6  C   UNL     1      45.429   6.663  11.120  0.00  0.00    +0.000 A 
ATOM      7  N   UNL     1      46.280   7.417  11.858  0.00  0.00    +0.000 NA
BRANCH   5   8
ATOM      8  O   UNL     1      44.343   4.649  10.499  0.00  0.00    +0.000 OA
BRANCH   8   9
ATOM      9  C   UNL     1      44.928   3.886   9.498  0.00  0.00    +0.000 A 
ATOM     10  C   UNL     1      44.923   2.508   9.649  0.00  0.00    +0.000 A 
ATOM     11  N   UNL     1      45.515   1.674   8.757  0.00  0.00    +0.000 NA
ATOM     12  C   UNL     1      46.103   2.284   7.702  0.00  0.00    +0.000 A 
ATOM     13  C   UNL     1      46.085   3.658   7.534  0.00  0.00    +0.000 A 
ATOM     14  N   UNL     1      45.487   4.486   8.418  0.00  0.00    +0.000 NA
ENDBRANCH   8   9
ENDBRANCH   5   8
ENDBRANCH   1   2
BRANCH   1  15
ATOM     15  N   UNL     1      47.934   7.449  15.043  0.00  0.00    +0.000 N 
ATOM     16  C   UNL     1      48.441   8.345  15.947  0.00  0.00    +0.000 C 
ATOM     17  O   UNL     1      48.878   9.441  15.615  0.00  0.00    +0.000 OA
ATOM     18  H   UNL     1      47.743   6.498  15.345  0.00  0.00    +0.000 HD
BRANCH  16  19
ATOM     19  C   UNL     1      48.396   7.942  17.357  0.00  0.00    +0.000 A 
ATOM     20  C   UNL     1      47.987   8.858  18.318  0.00  0.00    +0.000 A 
ATOM     21  S   UNL     1      48.020   8.239  19.906  0.00  0.00    +0.000 S 
ATOM     22  C   UNL     1      48.632   6.745  19.370  0.00  0.00    +0.000 A 
ATOM     23  N   UNL     1      48.951   5.762  20.253  0.00  0.00    +0.000 NA
ATOM     24  C   UNL     1      49.444   4.699  19.713  0.00  0.00    +0.000 A 
ATOM     25  N   UNL     1      49.619   4.518  18.365  0.00  0.00    +0.000 N 
ATOM     26  C   UNL     1      49.221   5.443  17.431  0.00  0.00    +0.000 A 
ATOM     27  O   UNL     1      49.234   5.188  16.229  0.00  0.00    +0.000 OA
ATOM     28  C   UNL     1      48.746   6.696  17.991  0.00  0.00    +0.000 A 
ATOM     29  H   UNL     1      49.962   3.640  18.002  0.00  0.00    +0.000 HD
ENDBRANCH  16  19
ENDBRANCH   1  15
BRANCH   1  30
ATOM     30  C   UNL     1      49.441   7.410  13.031  0.00  0.00    +0.000 C 
BRANCH  30  32
ATOM     31  C   UNL     1      49.289   9.401  11.767  0.00  0.00    +0.000 C 
ATOM     32  O   UNL     1      50.029   8.685  12.742  0.00  0.00    +0.000 OA
ENDBRANCH  30  32
ENDBRANCH   1  30
TORSDOF 7
ENDMDL
MODEL 9
REMARK VINA RESULT:    -6.825      3.590      7.867
REMARK INTER + INTRA:         -10.082
REMARK INTER:                  -9.156
REMARK INTRA:                  -0.926
REMARK UNBOUND:                -0.465
REMARK  Name = 
REMARK  8 active torsions:
REMARK  status: ('A' for Active; 'I' for Inactive)
REMARK    1  A    between atoms: C_1  and  O_2
REMARK    2  A    between atoms: O_2  and  C_3
REMARK    3  A    between atoms: C_3  and  C_4
REMARK    4  A    between atoms: C_4  and  N_5
REMARK    5  A    between atoms: C_4  and  C_18
REMARK    6  A    between atoms: C_6  and  C_8
REMARK    7  A    between atoms: C_21  and  O_22
REMARK    8  A    between atoms: O_22  and  C_23
REMARK                            x       y       z     vdW  Elec       q    Type
REMARK                         _______ _______ _______ _____ _____    ______ ____
ROOT
ATOM      1  C   UNL     1      48.682   7.765  15.131  0.00  0.00    +0.000 C 
ENDROOT
BRANCH   1   2
ATOM      2  C   UNL     1      49.268   6.710  16.061  0.00  0.00    +0.000 A 
ATOM      3  C   UNL     1      48.463   6.013  16.960  0.00  0.00    +0.000 A 
ATOM      4  C   UNL     1      49.051   5.144  17.869  0.00  0.00    +0.000 A 
ATOM      5  C   UNL     1      50.434   5.007  17.889  0.00  0.00    +0.000 A 
ATOM      6  C   UNL     1      51.159   5.664  16.908  0.00  0.00    +0.000 A 
ATOM      7  N   UNL     1      50.612   6.497  15.990  0.00  0.00    +0.000 NA
BRANCH   5   8
ATOM      8  O   UNL     1      51.110   4.228  18.794  0.00  0.00    +0.000 OA
BRANCH   8   9
ATOM      9  C   UNL     1      51.792   3.128  18.293  0.00  0.00    +0.000 A 
ATOM     10  C   UNL     1      51.052   2.141  17.663  0.00  0.00    +0.000 A 
ATOM     11  N   UNL     1      51.613   1.000  17.186  0.00  0.00    +0.000 NA
ATOM     12  C   UNL     1      52.951   0.901  17.361  0.00  0.00    +0.000 A 
ATOM     13  C   UNL     1      53.697   1.899  17.965  0.00  0.00    +0.000 A 
ATOM     14  N   UNL     1      53.138   3.038  18.430  0.00  0.00    +0.000 NA
ENDBRANCH   8   9
ENDBRANCH   5   8
ENDBRANCH   1   2
BRANCH   1  15
ATOM     15  N   UNL     1      47.504   7.278  14.423  0.00  0.00    +0.000 N 
ATOM     16  C   UNL     1      47.546   6.447  13.335  0.00  0.00    +0.000 C 
ATOM     17  O   UNL     1      48.582   5.915  12.951  0.00  0.00    +0.000 OA
ATOM     18  H   UNL     1      46.664   7.821  14.596  0.00  0.00    +0.000 HD
BRANCH  16  19
ATOM     19  C   UNL     1      46.267   6.186  12.666  0.00  0.00    +0.000 A 
ATOM     20  C   UNL     1      45.572   7.237  12.081  0.00  0.00    +0.000 A 
ATOM     21  S   UNL     1      44.094   6.767  11.374  0.00  0.00    +0.000 S 
ATOM     22  C   UNL     1      44.305   5.154  11.871  0.00  0.00    +0.000 A 
ATOM     23  N   UNL     1      43.348   4.218  11.635  0.00  0.00    +0.000 NA
ATOM     24  C   UNL     1      43.621   3.047  12.103  0.00  0.00    +0.000 A 
ATOM     25  N   UNL     1      44.778   2.719  12.760  0.00  0.00    +0.000 N 
ATOM     26  C   UNL     1      45.813   3.606  12.935  0.00  0.00    +0.000 A 
ATOM     27  O   UNL     1      46.902   3.244  13.376  0.00  0.00    +0.000 OA
ATOM     28  C   UNL     1      45.519   4.963  12.509  0.00  0.00    +0.000 A 
ATOM     29  H   UNL     1      44.953   1.769  13.056  0.00  0.00    +0.000 HD
ENDBRANCH  16  19
ENDBRANCH   1  15
BRANCH   1  30
ATOM     30  C   UNL     1      48.478   9.144  15.797  0.00  0.00    +0.000 C 
BRANCH  30  32
ATOM     31  C   UNL     1      50.014   9.621  14.065  0.00  0.00    +0.000 C 
ATOM     32  O   UNL     1      49.101  10.163  15.005  0.00  0.00    +0.000 OA
ENDBRANCH  30  32
ENDBRANCH   1  30
TORSDOF 7
ENDMDL
