MODEL 1
REMARK VINA RESULT:    -8.653      0.000      0.000
REMARK INTER + INTRA:         -13.731
REMARK INTER:                 -12.952
REMARK INTRA:                  -0.779
REMARK UNBOUND:                -0.779
REMARK  Name = 
REMARK  9 active torsions:
REMARK  status: ('A' for Active; 'I' for Inactive)
REMARK    1  A    between atoms: N_1  and  C_2
REMARK    2  A    between atoms: C_2  and  C_3
REMARK    3  A    between atoms: C_3  and  N_4
REMARK    4  A    between atoms: C_3  and  C_26
REMARK    5  A    between atoms: N_4  and  C_5
REMARK    6  A    between atoms: C_5  and  C_6
REMARK    7  A    between atoms: C_9  and  C_10
REMARK    8  A    between atoms: C_10  and  N_11
REMARK    9  A    between atoms: C_12  and  C_14
REMARK                            x       y       z     vdW  Elec       q    Type
REMARK                         _______ _______ _______ _____ _____    ______ ____
ROOT
ATOM      1  C   UNL     1      44.613   6.135  11.425  0.00  0.00    +0.000 A 
ATOM      2  C   UNL     1      45.803   5.564  11.892  0.00  0.00    +0.000 A 
ATOM      3  C   UNL     1      46.739   6.341  12.579  0.00  0.00    +0.000 A 
ATOM      4  C   UNL     1      46.504   7.704  12.807  0.00  0.00    +0.000 A 
ATOM      5  C   UNL     1      45.349   8.290  12.276  0.00  0.00    +0.000 A 
ATOM      6  C   UNL     1      44.410   7.512  11.600  0.00  0.00    +0.000 A 
ENDROOT
BRANCH   1   7
ATOM      7  C   UNL     1      43.570   5.300  10.717  0.00  0.00    +0.000 C 
BRANCH   7   8
ATOM      8  N   UNL     1      44.063   4.751   9.450  0.00  0.00    +0.000 NA
ATOM      9  H   UNL     1      43.376   4.975   8.730  0.00  0.00    +0.000 HD
BRANCH   8  10
ATOM     10  C   UNL     1      44.184   3.275   9.460  0.00  0.00    +0.000 C 
BRANCH  10  11
ATOM     11  C   UNL     1      45.263   2.777   8.507  0.00  0.00    +0.000 A 
ATOM     12  C   UNL     1      45.898   3.682   7.641  0.00  0.00    +0.000 A 
ATOM     13  C   UNL     1      46.949   3.264   6.821  0.00  0.00    +0.000 A 
ATOM     14  C   UNL     1      47.388   1.942   6.866  0.00  0.00    +0.000 A 
ATOM     15  C   UNL     1      46.768   1.032   7.716  0.00  0.00    +0.000 A 
ATOM     16  C   UNL     1      45.710   1.446   8.524  0.00  0.00    +0.000 A 
ENDBRANCH  10  11
BRANCH  10  17
ATOM     17  C   UNL     1      44.282   2.675  10.901  0.00  0.00    +0.000 C 
BRANCH  17  18
ATOM     18  N   UNL     1      43.013   2.131  11.410  0.00  0.00    +0.000 NA
ATOM     19  H   UNL     1      42.649   2.778  12.112  0.00  0.00    +0.000 HD
ATOM     20  H   UNL     1      43.203   1.263  11.913  0.00  0.00    +0.000 HD
ENDBRANCH  17  18
ENDBRANCH  10  17
ENDBRANCH   8  10
ENDBRANCH   7   8
ENDBRANCH   1   7
BRANCH   4  21
ATOM     21  C   UNL     1      47.481   8.532  13.597  0.00  0.00    +0.000 C 
BRANCH  21  22
ATOM     22  N   UNL     1      47.838   7.878  14.827  0.00  0.00    +0.000 N 
ATOM     23  C   UNL     1      49.008   7.162  14.945  0.00  0.00    +0.000 C 
ATOM     24  O   UNL     1      49.800   7.022  14.022  0.00  0.00    +0.000 OA
ATOM     25  H   UNL     1      47.162   7.863  15.576  0.00  0.00    +0.000 HD
BRANCH  23  26
ATOM     26  C   UNL     1      49.223   6.607  16.279  0.00  0.00    +0.000 A 
ATOM     27  C   UNL     1      50.024   7.210  17.246  0.00  0.00    +0.000 A 
ATOM     28  N   UNL     1      50.028   6.426  18.364  0.00  0.00    +0.000 N 
ATOM     29  C   UNL     1      49.251   5.327  18.150  0.00  0.00    +0.000 A 
ATOM     30  N   UNL     1      49.046   4.378  19.073  0.00  0.00    +0.000 NA
ATOM     31  C   UNL     1      48.238   3.403  18.625  0.00  0.00    +0.000 A 
ATOM     32  N   UNL     1      47.664   3.312  17.415  0.00  0.00    +0.000 NA
ATOM     33  C   UNL     1      47.919   4.301  16.540  0.00  0.00    +0.000 A 
ATOM     34 CL   UNL     1      47.145   4.190  15.039  0.00  0.00    +0.000 Cl
ATOM     35  C   UNL     1      48.733   5.385  16.860  0.00  0.00    +0.000 A 
ATOM     36  H   UNL     1      50.529   6.601  19.223  0.00  0.00    +0.000 HD
ENDBRANCH  23  26
ENDBRANCH  21  22
ENDBRANCH   4  21
TORSDOF 9
ENDMDL
MODEL 2
REMARK VINA RESULT:    -8.042      1.621      2.344
REMARK INTER + INTRA:         -12.817
REMARK INTER:                 -12.143
REMARK INTRA:                  -0.674
REMARK UNBOUND:                -0.779
REMARK  Name = 
REMARK  9 active torsions:
REMARK  status: ('A' for Active; 'I' for Inactive)
REMARK    1  A    between atoms: N_1  and  C_2
REMARK    2  A    between atoms: C_2  and  C_3
REMARK    3  A    between atoms: C_3  and  N_4
REMARK    4  A    between atoms: C_3  and  C_26
REMARK    5  A    between atoms: N_4  and  C_5
REMARK    6  A    between atoms: C_5  and  C_6
REMARK    7  A    between atoms: C_9  and  C_10
REMARK    8  A    between atoms: C_10  and  N_11
REMARK    9  A    between atoms: C_12  and  C_14
REMARK                            x       y       z     vdW  Elec       q    Type
REMARK                         _______ _______ _______ _____ _____    ______ ____
ROOT
ATOM      1  C   UNL     1      45.250   6.021  12.037  0.00  0.00    +0.000 A 
ATOM      2  C   UNL     1      45.831   7.286  11.883  0.00  0.00    +0.000 A 
ATOM      3  C   UNL     1      46.969   7.635  12.613  0.00  0.00    +0.000 A 
ATOM      4  C   UNL     1      47.545   6.729  13.512  0.00  0.00    +0.000 A 
ATOM      5  C   UNL     1      46.922   5.493  13.720  0.00  0.00    +0.000 A 
ATOM      6  C   UNL     1      45.791   5.140  12.984  0.00  0.00    +0.000 A 
ENDROOT
BRANCH   1   7
ATOM      7  C   UNL     1      44.042   5.610  11.224  0.00  0.00    +0.000 C 
BRANCH   7   8
ATOM      8  N   UNL     1      44.409   5.126   9.890  0.00  0.00    +0.000 NA
ATOM      9  H   UNL     1      43.747   5.528   9.225  0.00  0.00    +0.000 HD
BRANCH   8  10
ATOM     10  C   UNL     1      44.292   3.655   9.750  0.00  0.00    +0.000 C 
BRANCH  10  11
ATOM     11  C   UNL     1      45.314   3.086   8.774  0.00  0.00    +0.000 A 
ATOM     12  C   UNL     1      45.583   1.708   8.772  0.00  0.00    +0.000 A 
ATOM     13  C   UNL     1      46.451   1.153   7.829  0.00  0.00    +0.000 A 
ATOM     14  C   UNL     1      47.050   1.964   6.867  0.00  0.00    +0.000 A 
ATOM     15  C   UNL     1      46.796   3.332   6.855  0.00  0.00    +0.000 A 
ATOM     16  C   UNL     1      45.940   3.888   7.805  0.00  0.00    +0.000 A 
ENDBRANCH  10  11
BRANCH  10  17
ATOM     17  C   UNL     1      44.240   2.908  11.123  0.00  0.00    +0.000 C 
BRANCH  17  18
ATOM     18  N   UNL     1      42.960   2.231  11.386  0.00  0.00    +0.000 NA
ATOM     19  H   UNL     1      43.158   1.361  11.882  0.00  0.00    +0.000 HD
ATOM     20  H   UNL     1      42.546   1.949  10.497  0.00  0.00    +0.000 HD
ENDBRANCH  17  18
ENDBRANCH  10  17
ENDBRANCH   8  10
ENDBRANCH   7   8
ENDBRANCH   1   7
BRANCH   4  21
ATOM     21  C   UNL     1      48.805   7.078  14.258  0.00  0.00    +0.000 C 
BRANCH  21  22
ATOM     22  N   UNL     1      48.904   6.331  15.483  0.00  0.00    +0.000 N 
ATOM     23  C   UNL     1      50.032   6.390  16.270  0.00  0.00    +0.000 C 
ATOM     24  O   UNL     1      51.016   7.057  15.976  0.00  0.00    +0.000 OA
ATOM     25  H   UNL     1      48.170   5.675  15.705  0.00  0.00    +0.000 HD
BRANCH  23  26
ATOM     26  C   UNL     1      49.934   5.603  17.496  0.00  0.00    +0.000 A 
ATOM     27  C   UNL     1      50.619   4.408  17.703  0.00  0.00    +0.000 A 
ATOM     28  N   UNL     1      50.290   3.921  18.936  0.00  0.00    +0.000 N 
ATOM     29  C   UNL     1      49.409   4.769  19.537  0.00  0.00    +0.000 A 
ATOM     30  N   UNL     1      48.913   4.567  20.766  0.00  0.00    +0.000 NA
ATOM     31  C   UNL     1      48.072   5.545  21.139  0.00  0.00    +0.000 A 
ATOM     32  N   UNL     1      47.713   6.626  20.429  0.00  0.00    +0.000 NA
ATOM     33  C   UNL     1      48.249   6.758  19.202  0.00  0.00    +0.000 A 
ATOM     34 CL   UNL     1      47.821   8.154  18.345  0.00  0.00    +0.000 Cl
ATOM     35  C   UNL     1      49.144   5.830  18.677  0.00  0.00    +0.000 A 
ATOM     36  H   UNL     1      50.622   3.065  19.356  0.00  0.00    +0.000 HD
ENDBRANCH  23  26
ENDBRANCH  21  22
ENDBRANCH   4  21
TORSDOF 9
ENDMDL
MODEL 3
REMARK VINA RESULT:    -8.009      1.721      2.273
REMARK INTER + INTRA:         -12.767
REMARK INTER:                 -11.163
REMARK INTRA:                  -1.604
REMARK UNBOUND:                -0.779
REMARK  Name = 
REMARK  9 active torsions:
REMARK  status: ('A' for Active; 'I' for Inactive)
REMARK    1  A    between atoms: N_1  and  C_2
REMARK    2  A    between atoms: C_2  and  C_3
REMARK    3  A    between atoms: C_3  and  N_4
REMARK    4  A    between atoms: C_3  and  C_26
REMARK    5  A    between atoms: N_4  and  C_5
REMARK    6  A    between atoms: C_5  and  C_6
REMARK    7  A    between atoms: C_9  and  C_10
REMARK    8  A    between atoms: C_10  and  N_11
REMARK    9  A    between atoms: C_12  and  C_14
REMARK                            x       y       z     vdW  Elec       q    Type
REMARK                         _______ _______ _______ _____ _____    ______ ____
ROOT
ATOM      1  C   UNL     1      45.134   6.666  11.781  0.00  0.00    +0.000 A 
ATOM      2  C   UNL     1      45.000   7.949  12.324  0.00  0.00    +0.000 A 
ATOM      3  C   UNL     1      46.121   8.764  12.500  0.00  0.00    +0.000 A 
ATOM      4  C   UNL     1      47.396   8.310  12.140  0.00  0.00    +0.000 A 
ATOM      5  C   UNL     1      47.539   7.000  11.666  0.00  0.00    +0.000 A 
ATOM      6  C   UNL     1      46.419   6.190  11.481  0.00  0.00    +0.000 A 
ENDROOT
BRANCH   1   7
ATOM      7  C   UNL     1      43.927   5.786  11.544  0.00  0.00    +0.000 C 
BRANCH   7   8
ATOM      8  N   UNL     1      43.867   5.284  10.168  0.00  0.00    +0.000 NA
ATOM      9  H   UNL     1      42.960   5.549   9.784  0.00  0.00    +0.000 HD
BRANCH   8  10
ATOM     10  C   UNL     1      43.936   3.806  10.082  0.00  0.00    +0.000 C 
BRANCH  10  11
ATOM     11  C   UNL     1      44.943   3.335   9.040  0.00  0.00    +0.000 A 
ATOM     12  C   UNL     1      45.604   4.277   8.235  0.00  0.00    +0.000 A 
ATOM     13  C   UNL     1      46.593   3.874   7.334  0.00  0.00    +0.000 A 
ATOM     14  C   UNL     1      46.944   2.530   7.236  0.00  0.00    +0.000 A 
ATOM     15  C   UNL     1      46.298   1.583   8.025  0.00  0.00    +0.000 A 
ATOM     16  C   UNL     1      45.301   1.983   8.914  0.00  0.00    +0.000 A 
ENDBRANCH  10  11
BRANCH  10  17
ATOM     17  C   UNL     1      44.094   3.115  11.476  0.00  0.00    +0.000 C 
BRANCH  17  18
ATOM     18  N   UNL     1      43.040   2.131  11.777  0.00  0.00    +0.000 NA
ATOM     19  H   UNL     1      42.243   2.324  11.169  0.00  0.00    +0.000 HD
ATOM     20  H   UNL     1      42.703   2.290  12.727  0.00  0.00    +0.000 HD
ENDBRANCH  17  18
ENDBRANCH  10  17
ENDBRANCH   8  10
ENDBRANCH   7   8
ENDBRANCH   1   7
BRANCH   4  21
ATOM     21  C   UNL     1      48.599   9.204  12.273  0.00  0.00    +0.000 C 
BRANCH  21  22
ATOM     22  N   UNL     1      49.517   8.693  13.256  0.00  0.00    +0.000 N 
ATOM     23  C   UNL     1      49.699   9.327  14.464  0.00  0.00    +0.000 C 
ATOM     24  O   UNL     1      49.116  10.359  14.771  0.00  0.00    +0.000 OA
ATOM     25  H   UNL     1      50.109   7.916  13.002  0.00  0.00    +0.000 HD
BRANCH  23  26
ATOM     26  C   UNL     1      50.634   8.640  15.352  0.00  0.00    +0.000 A 
ATOM     27  C   UNL     1      51.851   9.181  15.760  0.00  0.00    +0.000 A 
ATOM     28  N   UNL     1      52.486   8.277  16.562  0.00  0.00    +0.000 N 
ATOM     29  C   UNL     1      51.715   7.161  16.688  0.00  0.00    +0.000 A 
ATOM     30  N   UNL     1      52.066   6.101  17.429  0.00  0.00    +0.000 NA
ATOM     31  C   UNL     1      51.137   5.132  17.397  0.00  0.00    +0.000 A 
ATOM     32  N   UNL     1      49.973   5.141  16.730  0.00  0.00    +0.000 NA
ATOM     33  C   UNL     1      49.691   6.238  16.004  0.00  0.00    +0.000 A 
ATOM     34 CL   UNL     1      48.195   6.247  15.212  0.00  0.00    +0.000 Cl
ATOM     35  C   UNL     1      50.552   7.330  15.943  0.00  0.00    +0.000 A 
ATOM     36  H   UNL     1      53.390   8.387  16.998  0.00  0.00    +0.000 HD
ENDBRANCH  23  26
ENDBRANCH  21  22
ENDBRANCH   4  21
TORSDOF 9
ENDMDL
MODEL 4
REMARK VINA RESULT:    -7.794      2.397      2.867
REMARK INTER + INTRA:         -12.446
REMARK INTER:                 -11.466
REMARK INTRA:                  -0.980
REMARK UNBOUND:                -0.779
REMARK  Name = 
REMARK  9 active torsions:
REMARK  status: ('A' for Active; 'I' for Inactive)
REMARK    1  A    between atoms: N_1  and  C_2
REMARK    2  A    between atoms: C_2  and  C_3
REMARK    3  A    between atoms: C_3  and  N_4
REMARK    4  A    between atoms: C_3  and  C_26
REMARK    5  A    between atoms: N_4  and  C_5
REMARK    6  A    between atoms: C_5  and  C_6
REMARK    7  A    between atoms: C_9  and  C_10
REMARK    8  A    between atoms: C_10  and  N_11
REMARK    9  A    between atoms: C_12  and  C_14
REMARK                            x       y       z     vdW  Elec       q    Type
REMARK                         _______ _______ _______ _____ _____    ______ ____
ROOT
ATOM      1  C   UNL     1      46.926   6.248  12.523  0.00  0.00    +0.000 A 
ATOM      2  C   UNL     1      47.056   5.519  13.711  0.00  0.00    +0.000 A 
ATOM      3  C   UNL     1      47.910   5.962  14.724  0.00  0.00    +0.000 A 
ATOM      4  C   UNL     1      48.651   7.141  14.566  0.00  0.00    +0.000 A 
ATOM      5  C   UNL     1      48.576   7.830  13.350  0.00  0.00    +0.000 A 
ATOM      6  C   UNL     1      47.717   7.393  12.342  0.00  0.00    +0.000 A 
ENDROOT
BRANCH   1   7
ATOM      7  C   UNL     1      45.976   5.806  11.433  0.00  0.00    +0.000 C 
BRANCH   7   8
ATOM      8  N   UNL     1      45.507   4.430  11.629  0.00  0.00    +0.000 NA
ATOM      9  H   UNL     1      46.314   3.814  11.529  0.00  0.00    +0.000 HD
BRANCH   8  10
ATOM     10  C   UNL     1      44.528   3.996  10.606  0.00  0.00    +0.000 C 
BRANCH  10  11
ATOM     11  C   UNL     1      45.204   3.446   9.356  0.00  0.00    +0.000 A 
ATOM     12  C   UNL     1      45.715   4.332   8.394  0.00  0.00    +0.000 A 
ATOM     13  C   UNL     1      46.415   3.851   7.284  0.00  0.00    +0.000 A 
ATOM     14  C   UNL     1      46.625   2.482   7.128  0.00  0.00    +0.000 A 
ATOM     15  C   UNL     1      46.123   1.590   8.071  0.00  0.00    +0.000 A 
ATOM     16  C   UNL     1      45.413   2.069   9.171  0.00  0.00    +0.000 A 
ENDBRANCH  10  11
BRANCH  10  17
ATOM     17  C   UNL     1      43.406   3.070  11.181  0.00  0.00    +0.000 C 
BRANCH  17  18
ATOM     18  N   UNL     1      43.717   2.506  12.504  0.00  0.00    +0.000 NA
ATOM     19  H   UNL     1      44.147   3.240  13.069  0.00  0.00    +0.000 HD
ATOM     20  H   UNL     1      44.437   1.790  12.398  0.00  0.00    +0.000 HD
ENDBRANCH  17  18
ENDBRANCH  10  17
ENDBRANCH   8  10
ENDBRANCH   7   8
ENDBRANCH   1   7
BRANCH   4  21
ATOM     21  C   UNL     1      49.527   7.655  15.677  0.00  0.00    +0.000 C 
BRANCH  21  22
ATOM     22  N   UNL     1      50.470   6.654  16.097  0.00  0.00    +0.000 N 
ATOM     23  C   UNL     1      50.415   6.101  17.357  0.00  0.00    +0.000 C 
ATOM     24  O   UNL     1      49.587   6.432  18.195  0.00  0.00    +0.000 OA
ATOM     25  H   UNL     1      51.243   6.437  15.486  0.00  0.00    +0.000 HD
BRANCH  23  26
ATOM     26  C   UNL     1      51.423   5.069  17.589  0.00  0.00    +0.000 A 
ATOM     27  C   UNL     1      52.750   5.344  17.910  0.00  0.00    +0.000 A 
ATOM     28  N   UNL     1      53.424   4.164  18.038  0.00  0.00    +0.000 N 
ATOM     29  C   UNL     1      52.571   3.127  17.808  0.00  0.00    +0.000 A 
ATOM     30  N   UNL     1      52.939   1.840  17.876  0.00  0.00    +0.000 NA
ATOM     31  C   UNL     1      51.918   1.008  17.615  0.00  0.00    +0.000 A 
ATOM     32  N   UNL     1      50.653   1.340  17.312  0.00  0.00    +0.000 NA
ATOM     33  C   UNL     1      50.360   2.652  17.258  0.00  0.00    +0.000 A 
ATOM     34 CL   UNL     1      48.748   3.045  16.924  0.00  0.00    +0.000 Cl
ATOM     35  C   UNL     1      51.311   3.637  17.512  0.00  0.00    +0.000 A 
ATOM     36  H   UNL     1      54.404   4.048  18.256  0.00  0.00    +0.000 HD
ENDBRANCH  23  26
ENDBRANCH  21  22
ENDBRANCH   4  21
TORSDOF 9
ENDMDL
MODEL 5
REMARK VINA RESULT:    -7.472      2.108      2.688
REMARK INTER + INTRA:         -11.963
REMARK INTER:                 -10.982
REMARK INTRA:                  -0.981
REMARK UNBOUND:                -0.779
REMARK  Name = 
REMARK  9 active torsions:
REMARK  status: ('A' for Active; 'I' for Inactive)
REMARK    1  A    between atoms: N_1  and  C_2
REMARK    2  A    between atoms: C_2  and  C_3
REMARK    3  A    between atoms: C_3  and  N_4
REMARK    4  A    between atoms: C_3  and  C_26
REMARK    5  A    between atoms: N_4  and  C_5
REMARK    6  A    between atoms: C_5  and  C_6
REMARK    7  A    between atoms: C_9  and  C_10
REMARK    8  A    between atoms: C_10  and  N_11
REMARK    9  A    between atoms: C_12  and  C_14
REMARK                            x       y       z     vdW  Elec       q    Type
REMARK                         _______ _______ _______ _____ _____    ______ ____
ROOT
ATOM      1  C   UNL     1      46.364   5.561  12.367  0.00  0.00    +0.000 A 
ATOM      2  C   UNL     1      46.781   6.601  11.528  0.00  0.00    +0.000 A 
ATOM      3  C   UNL     1      47.807   7.462  11.924  0.00  0.00    +0.000 A 
ATOM      4  C   UNL     1      48.433   7.301  13.168  0.00  0.00    +0.000 A 
ATOM      5  C   UNL     1      47.967   6.307  14.036  0.00  0.00    +0.000 A 
ATOM      6  C   UNL     1      46.949   5.441  13.636  0.00  0.00    +0.000 A 
ENDROOT
BRANCH   1   7
ATOM      7  C   UNL     1      45.284   4.594  11.937  0.00  0.00    +0.000 C 
BRANCH   7   8
ATOM      8  N   UNL     1      44.841   4.832  10.560  0.00  0.00    +0.000 NA
ATOM      9  H   UNL     1      44.021   5.437  10.601  0.00  0.00    +0.000 HD
BRANCH   8  10
ATOM     10  C   UNL     1      44.409   3.597   9.864  0.00  0.00    +0.000 C 
BRANCH  10  11
ATOM     11  C   UNL     1      45.411   3.149   8.808  0.00  0.00    +0.000 A 
ATOM     12  C   UNL     1      45.756   1.791   8.707  0.00  0.00    +0.000 A 
ATOM     13  C   UNL     1      46.607   1.346   7.692  0.00  0.00    +0.000 A 
ATOM     14  C   UNL     1      47.112   2.248   6.757  0.00  0.00    +0.000 A 
ATOM     15  C   UNL     1      46.782   3.597   6.844  0.00  0.00    +0.000 A 
ATOM     16  C   UNL     1      45.945   4.043   7.865  0.00  0.00    +0.000 A 
ENDBRANCH  10  11
BRANCH  10  17
ATOM     17  C   UNL     1      43.966   2.461  10.843  0.00  0.00    +0.000 C 
BRANCH  17  18
ATOM     18  N   UNL     1      42.706   2.741  11.552  0.00  0.00    +0.000 NA
ATOM     19  H   UNL     1      42.330   1.854  11.892  0.00  0.00    +0.000 HD
ATOM     20  H   UNL     1      42.020   3.088  10.881  0.00  0.00    +0.000 HD
ENDBRANCH  17  18
ENDBRANCH  10  17
ENDBRANCH   8  10
ENDBRANCH   7   8
ENDBRANCH   1   7
BRANCH   4  21
ATOM     21  C   UNL     1      49.578   8.188  13.575  0.00  0.00    +0.000 C 
BRANCH  21  22
ATOM     22  N   UNL     1      50.575   7.446  14.299  0.00  0.00    +0.000 N 
ATOM     23  C   UNL     1      50.845   7.708  15.623  0.00  0.00    +0.000 C 
ATOM     24  O   UNL     1      50.277   8.588  16.257  0.00  0.00    +0.000 OA
ATOM     25  H   UNL     1      51.153   6.795  13.788  0.00  0.00    +0.000 HD
BRANCH  23  26
ATOM     26  C   UNL     1      51.853   6.825  16.203  0.00  0.00    +0.000 A 
ATOM     27  C   UNL     1      53.225   7.024  16.064  0.00  0.00    +0.000 A 
ATOM     28  N   UNL     1      53.882   6.012  16.704  0.00  0.00    +0.000 N 
ATOM     29  C   UNL     1      52.973   5.159  17.256  0.00  0.00    +0.000 A 
ATOM     30  N   UNL     1      53.315   4.074  17.964  0.00  0.00    +0.000 NA
ATOM     31  C   UNL     1      52.242   3.401  18.408  0.00  0.00    +0.000 A 
ATOM     32  N   UNL     1      50.950   3.705  18.210  0.00  0.00    +0.000 NA
ATOM     33  C   UNL     1      50.684   4.807  17.486  0.00  0.00    +0.000 A 
ATOM     34 CL   UNL     1      49.049   5.199  17.292  0.00  0.00    +0.000 Cl
ATOM     35  C   UNL     1      51.691   5.614  16.963  0.00  0.00    +0.000 A 
ATOM     36  H   UNL     1      54.881   5.883  16.765  0.00  0.00    +0.000 HD
ENDBRANCH  23  26
ENDBRANCH  21  22
ENDBRANCH   4  21
TORSDOF 9
ENDMDL
MODEL 6
REMARK VINA RESULT:    -7.209      3.084      8.076
REMARK INTER + INTRA:         -11.570
REMARK INTER:                  -9.528
REMARK INTRA:                  -2.042
REMARK UNBOUND:                -0.779
REMARK  Name = 
REMARK  9 active torsions:
REMARK  status: ('A' for Active; 'I' for Inactive)
REMARK    1  A    between atoms: N_1  and  C_2
REMARK    2  A    between atoms: C_2  and  C_3
REMARK    3  A    between atoms: C_3  and  N_4
REMARK    4  A    between atoms: C_3  and  C_26
REMARK    5  A    between atoms: N_4  and  C_5
REMARK    6  A    between atoms: C_5  and  C_6
REMARK    7  A    between atoms: C_9  and  C_10
REMARK    8  A    between atoms: C_10  and  N_11
REMARK    9  A    between atoms: C_12  and  C_14
REMARK                            x       y       z     vdW  Elec       q    Type
REMARK                         _______ _______ _______ _____ _____    ______ ____
ROOT
ATOM      1  C   UNL     1      49.662   7.701  17.480  0.00  0.00    +0.000 A 
ATOM      2  C   UNL     1      49.969   7.056  16.276  0.00  0.00    +0.000 A 
ATOM      3  C   UNL     1      49.474   7.545  15.064  0.00  0.00    +0.000 A 
ATOM      4  C   UNL     1      48.659   8.684  15.035  0.00  0.00    +0.000 A 
ATOM      5  C   UNL     1      48.291   9.285  16.245  0.00  0.00    +0.000 A 
ATOM      6  C   UNL     1      48.795   8.803  17.454  0.00  0.00    +0.000 A 
ENDROOT
BRANCH   1   7
ATOM      7  C   UNL     1      50.224   7.211  18.796  0.00  0.00    +0.000 C 
BRANCH   7   8
ATOM      8  N   UNL     1      49.386   6.174  19.406  0.00  0.00    +0.000 NA
ATOM      9  H   UNL     1      49.235   6.435  20.380  0.00  0.00    +0.000 HD
BRANCH   8  10
ATOM     10  C   UNL     1      50.033   4.841  19.432  0.00  0.00    +0.000 C 
BRANCH  10  11
ATOM     11  C   UNL     1      49.438   3.890  18.402  0.00  0.00    +0.000 A 
ATOM     12  C   UNL     1      48.079   3.995  18.061  0.00  0.00    +0.000 A 
ATOM     13  C   UNL     1      47.533   3.191  17.057  0.00  0.00    +0.000 A 
ATOM     14  C   UNL     1      48.338   2.283  16.372  0.00  0.00    +0.000 A 
ATOM     15  C   UNL     1      49.686   2.165  16.699  0.00  0.00    +0.000 A 
ATOM     16  C   UNL     1      50.228   2.957  17.710  0.00  0.00    +0.000 A 
ENDBRANCH  10  11
BRANCH  10  17
ATOM     17  C   UNL     1      51.595   4.914  19.401  0.00  0.00    +0.000 C 
BRANCH  17  18
ATOM     18  N   UNL     1      52.251   4.147  20.472  0.00  0.00    +0.000 NA
ATOM     19  H   UNL     1      51.581   3.463  20.828  0.00  0.00    +0.000 HD
ATOM     20  H   UNL     1      52.443   4.772  21.256  0.00  0.00    +0.000 HD
ENDBRANCH  17  18
ENDBRANCH  10  17
ENDBRANCH   8  10
ENDBRANCH   7   8
ENDBRANCH   1   7
BRANCH   4  21
ATOM     21  C   UNL     1      48.170   9.249  13.729  0.00  0.00    +0.000 C 
BRANCH  21  22
ATOM     22  N   UNL     1      46.953   8.606  13.311  0.00  0.00    +0.000 N 
ATOM     23  C   UNL     1      46.945   7.676  12.296  0.00  0.00    +0.000 C 
ATOM     24  O   UNL     1      47.953   7.352  11.681  0.00  0.00    +0.000 OA
ATOM     25  H   UNL     1      46.081   8.928  13.704  0.00  0.00    +0.000 HD
BRANCH  23  26
ATOM     26  C   UNL     1      45.628   7.097  12.041  0.00  0.00    +0.000 A 
ATOM     27  C   UNL     1      44.605   7.769  11.377  0.00  0.00    +0.000 A 
ATOM     28  N   UNL     1      43.508   6.958  11.326  0.00  0.00    +0.000 N 
ATOM     29  C   UNL     1      43.790   5.775  11.940  0.00  0.00    +0.000 A 
ATOM     30  N   UNL     1      42.913   4.767  12.037  0.00  0.00    +0.000 NA
ATOM     31  C   UNL     1      43.429   3.707  12.680  0.00  0.00    +0.000 A 
ATOM     32  N   UNL     1      44.662   3.588  13.196  0.00  0.00    +0.000 NA
ATOM     33  C   UNL     1      45.485   4.644  13.064  0.00  0.00    +0.000 A 
ATOM     34 CL   UNL     1      47.051   4.453  13.678  0.00  0.00    +0.000 Cl
ATOM     35  C   UNL     1      45.097   5.813  12.415  0.00  0.00    +0.000 A 
ATOM     36  H   UNL     1      42.612   7.178  10.915  0.00  0.00    +0.000 HD
ENDBRANCH  23  26
ENDBRANCH  21  22
ENDBRANCH   4  21
TORSDOF 9
ENDMDL
MODEL 7
REMARK VINA RESULT:    -7.134      1.911      2.602
REMARK INTER + INTRA:         -11.459
REMARK INTER:                 -11.291
REMARK INTRA:                  -0.168
REMARK UNBOUND:                -0.779
REMARK  Name = 
REMARK  9 active torsions:
REMARK  status: ('A' for Active; 'I' for Inactive)
REMARK    1  A    between atoms: N_1  and  C_2
REMARK    2  A    between atoms: C_2  and  C_3
REMARK    3  A    between atoms: C_3  and  N_4
REMARK    4  A    between atoms: C_3  and  C_26
REMARK    5  A    between atoms: N_4  and  C_5
REMARK    6  A    between atoms: C_5  and  C_6
REMARK    7  A    between atoms: C_9  and  C_10
REMARK    8  A    between atoms: C_10  and  N_11
REMARK    9  A    between atoms: C_12  and  C_14
REMARK                            x       y       z     vdW  Elec       q    Type
REMARK                         _______ _______ _______ _____ _____    ______ ____
ROOT
ATOM      1  C   UNL     1      44.635   5.895  11.570  0.00  0.00    +0.000 A 
ATOM      2  C   UNL     1      45.247   7.087  11.165  0.00  0.00    +0.000 A 
ATOM      3  C   UNL     1      46.283   7.642  11.920  0.00  0.00    +0.000 A 
ATOM      4  C   UNL     1      46.724   7.018  13.094  0.00  0.00    +0.000 A 
ATOM      5  C   UNL     1      46.063   5.866  13.537  0.00  0.00    +0.000 A 
ATOM      6  C   UNL     1      45.035   5.306  12.778  0.00  0.00    +0.000 A 
ENDROOT
BRANCH   1   7
ATOM      7  C   UNL     1      43.541   5.257  10.743  0.00  0.00    +0.000 C 
BRANCH   7   8
ATOM      8  N   UNL     1      44.021   4.818   9.429  0.00  0.00    +0.000 NA
ATOM      9  H   UNL     1      43.330   5.110   8.737  0.00  0.00    +0.000 HD
BRANCH   8  10
ATOM     10  C   UNL     1      44.129   3.345   9.309  0.00  0.00    +0.000 C 
BRANCH  10  11
ATOM     11  C   UNL     1      45.357   2.920   8.515  0.00  0.00    +0.000 A 
ATOM     12  C   UNL     1      45.724   1.565   8.472  0.00  0.00    +0.000 A 
ATOM     13  C   UNL     1      46.794   1.142   7.680  0.00  0.00    +0.000 A 
ATOM     14  C   UNL     1      47.503   2.063   6.911  0.00  0.00    +0.000 A 
ATOM     15  C   UNL     1      47.155   3.410   6.945  0.00  0.00    +0.000 A 
ATOM     16  C   UNL     1      46.095   3.834   7.745  0.00  0.00    +0.000 A 
ENDBRANCH  10  11
BRANCH  10  17
ATOM     17  C   UNL     1      43.967   2.602  10.676  0.00  0.00    +0.000 C 
BRANCH  17  18
ATOM     18  N   UNL     1      45.195   2.570  11.487  0.00  0.00    +0.000 NA
ATOM     19  H   UNL     1      45.920   3.085  10.985  0.00  0.00    +0.000 HD
ATOM     20  H   UNL     1      45.531   1.608  11.539  0.00  0.00    +0.000 HD
ENDBRANCH  17  18
ENDBRANCH  10  17
ENDBRANCH   8  10
ENDBRANCH   7   8
ENDBRANCH   1   7
BRANCH   4  21
ATOM     21  C   UNL     1      47.878   7.579  13.879  0.00  0.00    +0.000 C 
BRANCH  21  22
ATOM     22  N   UNL     1      48.475   6.571  14.713  0.00  0.00    +0.000 N 
ATOM     23  C   UNL     1      48.854   6.843  16.008  0.00  0.00    +0.000 C 
ATOM     24  O   UNL     1      48.726   7.946  16.522  0.00  0.00    +0.000 OA
ATOM     25  H   UNL     1      48.712   5.682  14.296  0.00  0.00    +0.000 HD
BRANCH  23  26
ATOM     26  C   UNL     1      49.399   5.686  16.715  0.00  0.00    +0.000 A 
ATOM     27  C   UNL     1      48.614   4.664  17.243  0.00  0.00    +0.000 A 
ATOM     28  N   UNL     1      49.430   3.755  17.854  0.00  0.00    +0.000 N 
ATOM     29  C   UNL     1      50.726   4.159  17.737  0.00  0.00    +0.000 A 
ATOM     30  N   UNL     1      51.763   3.464  18.225  0.00  0.00    +0.000 NA
ATOM     31  C   UNL     1      52.937   4.065  17.977  0.00  0.00    +0.000 A 
ATOM     32  N   UNL     1      53.139   5.222  17.329  0.00  0.00    +0.000 NA
ATOM     33  C   UNL     1      52.050   5.866  16.871  0.00  0.00    +0.000 A 
ATOM     34 CL   UNL     1      52.332   7.298  16.014  0.00  0.00    +0.000 Cl
ATOM     35  C   UNL     1      50.762   5.365  17.044  0.00  0.00    +0.000 A 
ATOM     36  H   UNL     1      49.145   2.914  18.334  0.00  0.00    +0.000 HD
ENDBRANCH  23  26
ENDBRANCH  21  22
ENDBRANCH   4  21
TORSDOF 9
ENDMDL
MODEL 8
REMARK VINA RESULT:    -6.834      3.410      4.635
REMARK INTER + INTRA:         -11.008
REMARK INTER:                 -10.029
REMARK INTRA:                  -0.980
REMARK UNBOUND:                -0.779
REMARK  Name = 
REMARK  9 active torsions:
REMARK  status: ('A' for Active; 'I' for Inactive)
REMARK    1  A    between atoms: N_1  and  C_2
REMARK    2  A    between atoms: C_2  and  C_3
REMARK    3  A    between atoms: C_3  and  N_4
REMARK    4  A    between atoms: C_3  and  C_26
REMARK    5  A    between atoms: N_4  and  C_5
REMARK    6  A    between atoms: C_5  and  C_6
REMARK    7  A    between atoms: C_9  and  C_10
REMARK    8  A    between atoms: C_10  and  N_11
REMARK    9  A    between atoms: C_12  and  C_14
REMARK                            x       y       z     vdW  Elec       q    Type
REMARK                         _______ _______ _______ _____ _____    ______ ____
ROOT
ATOM      1  C   UNL     1      47.418   5.572  14.201  0.00  0.00    +0.000 A 
ATOM      2  C   UNL     1      47.233   4.619  15.210  0.00  0.00    +0.000 A 
ATOM      3  C   UNL     1      47.895   4.747  16.433  0.00  0.00    +0.000 A 
ATOM      4  C   UNL     1      48.755   5.827  16.669  0.00  0.00    +0.000 A 
ATOM      5  C   UNL     1      48.996   6.739  15.635  0.00  0.00    +0.000 A 
ATOM      6  C   UNL     1      48.328   6.618  14.417  0.00  0.00    +0.000 A 
ENDROOT
BRANCH   1   7
ATOM      7  C   UNL     1      46.678   5.473  12.886  0.00  0.00    +0.000 C 
BRANCH   7   8
ATOM      8  N   UNL     1      45.454   4.672  12.996  0.00  0.00    +0.000 NA
ATOM      9  H   UNL     1      45.716   3.693  12.876  0.00  0.00    +0.000 HD
BRANCH   8  10
ATOM     10  C   UNL     1      44.465   4.968  11.933  0.00  0.00    +0.000 C 
BRANCH  10  11
ATOM     11  C   UNL     1      44.780   4.239  10.633  0.00  0.00    +0.000 A 
ATOM     12  C   UNL     1      44.448   2.881  10.498  0.00  0.00    +0.000 A 
ATOM     13  C   UNL     1      44.649   2.216   9.286  0.00  0.00    +0.000 A 
ATOM     14  C   UNL     1      45.170   2.901   8.190  0.00  0.00    +0.000 A 
ATOM     15  C   UNL     1      45.508   4.246   8.307  0.00  0.00    +0.000 A 
ATOM     16  C   UNL     1      45.320   4.906   9.521  0.00  0.00    +0.000 A 
ENDBRANCH  10  11
BRANCH  10  17
ATOM     17  C   UNL     1      42.984   4.810  12.408  0.00  0.00    +0.000 C 
BRANCH  17  18
ATOM     18  N   UNL     1      42.000   5.445  11.517  0.00  0.00    +0.000 NA
ATOM     19  H   UNL     1      41.586   6.235  12.014  0.00  0.00    +0.000 HD
ATOM     20  H   UNL     1      41.231   4.793  11.355  0.00  0.00    +0.000 HD
ENDBRANCH  17  18
ENDBRANCH  10  17
ENDBRANCH   8  10
ENDBRANCH   7   8
ENDBRANCH   1   7
BRANCH   4  21
ATOM     21  C   UNL     1      49.425   6.002  18.006  0.00  0.00    +0.000 C 
BRANCH  21  22
ATOM     22  N   UNL     1      50.654   5.258  18.069  0.00  0.00    +0.000 N 
ATOM     23  C   UNL     1      51.138   4.772  19.263  0.00  0.00    +0.000 C 
ATOM     24  O   UNL     1      50.573   4.952  20.334  0.00  0.00    +0.000 OA
ATOM     25  H   UNL     1      51.216   5.188  17.233  0.00  0.00    +0.000 HD
BRANCH  23  26
ATOM     26  C   UNL     1      52.373   4.003  19.126  0.00  0.00    +0.000 A 
ATOM     27  C   UNL     1      53.585   4.383  19.695  0.00  0.00    +0.000 A 
ATOM     28  N   UNL     1      54.536   3.462  19.359  0.00  0.00    +0.000 N 
ATOM     29  C   UNL     1      53.973   2.492  18.585  0.00  0.00    +0.000 A 
ATOM     30  N   UNL     1      54.654   1.440  18.111  0.00  0.00    +0.000 NA
ATOM     31  C   UNL     1      53.878   0.622  17.382  0.00  0.00    +0.000 A 
ATOM     32  N   UNL     1      52.572   0.767  17.110  0.00  0.00    +0.000 NA
ATOM     33  C   UNL     1      51.957   1.851  17.617  0.00  0.00    +0.000 A 
ATOM     34 CL   UNL     1      50.299   1.986  17.302  0.00  0.00    +0.000 Cl
ATOM     35  C   UNL     1      52.626   2.787  18.399  0.00  0.00    +0.000 A 
ATOM     36  H   UNL     1      55.512   3.478  19.619  0.00  0.00    +0.000 HD
ENDBRANCH  23  26
ENDBRANCH  21  22
ENDBRANCH   4  21
TORSDOF 9
ENDMDL
MODEL 9
REMARK VINA RESULT:    -6.503      4.915      7.930
REMARK INTER + INTRA:         -10.513
REMARK INTER:                  -9.403
REMARK INTRA:                  -1.110
REMARK UNBOUND:                -0.779
REMARK  Name = 
REMARK  9 active torsions:
REMARK  status: ('A' for Active; 'I' for Inactive)
REMARK    1  A    between atoms: N_1  and  C_2
REMARK    2  A    between atoms: C_2  and  C_3
REMARK    3  A    between atoms: C_3  and  N_4
REMARK    4  A    between atoms: C_3  and  C_26
REMARK    5  A    between atoms: N_4  and  C_5
REMARK    6  A    between atoms: C_5  and  C_6
REMARK    7  A    between atoms: C_9  and  C_10
REMARK    8  A    between atoms: C_10  and  N_11
REMARK    9  A    between atoms: C_12  and  C_14
REMARK                            x       y       z     vdW  Elec       q    Type
REMARK                         _______ _______ _______ _____ _____    ______ ____
ROOT
ATOM      1  C   UNL     1      50.216   8.445  11.555  0.00  0.00    +0.000 A 
ATOM      2  C   UNL     1      49.566   9.678  11.684  0.00  0.00    +0.000 A 
ATOM      3  C   UNL     1      48.274   9.746  12.211  0.00  0.00    +0.000 A 
ATOM      4  C   UNL     1      47.606   8.582  12.614  0.00  0.00    +0.000 A 
ATOM      5  C   UNL     1      48.228   7.343  12.416  0.00  0.00    +0.000 A 
ATOM      6  C   UNL     1      49.522   7.276  11.900  0.00  0.00    +0.000 A 
ENDROOT
BRANCH   1   7
ATOM      7  C   UNL     1      51.630   8.357  11.026  0.00  0.00    +0.000 C 
BRANCH   7   8
ATOM      8  N   UNL     1      51.979   7.000  10.595  0.00  0.00    +0.000 NA
ATOM      9  H   UNL     1      51.841   6.379  11.393  0.00  0.00    +0.000 HD
BRANCH   8  10
ATOM     10  C   UNL     1      53.401   6.859  10.203  0.00  0.00    +0.000 C 
BRANCH  10  11
ATOM     11  C   UNL     1      53.656   7.332   8.778  0.00  0.00    +0.000 A 
ATOM     12  C   UNL     1      52.682   7.119   7.788  0.00  0.00    +0.000 A 
ATOM     13  C   UNL     1      52.859   7.621   6.496  0.00  0.00    +0.000 A 
ATOM     14  C   UNL     1      54.001   8.352   6.180  0.00  0.00    +0.000 A 
ATOM     15  C   UNL     1      54.977   8.571   7.147  0.00  0.00    +0.000 A 
ATOM     16  C   UNL     1      54.808   8.058   8.433  0.00  0.00    +0.000 A 
ENDBRANCH  10  11
BRANCH  10  17
ATOM     17  C   UNL     1      54.392   7.454  11.257  0.00  0.00    +0.000 C 
BRANCH  17  18
ATOM     18  N   UNL     1      54.647   6.567  12.403  0.00  0.00    +0.000 NA
ATOM     19  H   UNL     1      55.300   7.039  13.031  0.00  0.00    +0.000 HD
ATOM     20  H   UNL     1      55.139   5.735  12.075  0.00  0.00    +0.000 HD
ENDBRANCH  17  18
ENDBRANCH  10  17
ENDBRANCH   8  10
ENDBRANCH   7   8
ENDBRANCH   1   7
BRANCH   4  21
ATOM     21  C   UNL     1      46.238   8.653  13.236  0.00  0.00    +0.000 C 
BRANCH  21  22
ATOM     22  N   UNL     1      45.530   7.412  13.072  0.00  0.00    +0.000 N 
ATOM     23  C   UNL     1      44.723   7.184  11.981  0.00  0.00    +0.000 C 
ATOM     24  O   UNL     1      44.543   8.015  11.100  0.00  0.00    +0.000 OA
ATOM     25  H   UNL     1      45.551   6.745  13.830  0.00  0.00    +0.000 HD
BRANCH  23  26
ATOM     26  C   UNL     1      44.124   5.852  11.962  0.00  0.00    +0.000 A 
ATOM     27  C   UNL     1      43.195   5.411  12.901  0.00  0.00    +0.000 A 
ATOM     28  N   UNL     1      42.855   4.121  12.609  0.00  0.00    +0.000 N 
ATOM     29  C   UNL     1      43.538   3.711  11.504  0.00  0.00    +0.000 A 
ATOM     30  N   UNL     1      43.403   2.492  10.963  0.00  0.00    +0.000 NA
ATOM     31  C   UNL     1      44.177   2.332   9.878  0.00  0.00    +0.000 A 
ATOM     32  N   UNL     1      45.014   3.229   9.334  0.00  0.00    +0.000 NA
ATOM     33  C   UNL     1      45.099   4.430   9.935  0.00  0.00    +0.000 A 
ATOM     34 CL   UNL     1      46.122   5.562   9.202  0.00  0.00    +0.000 Cl
ATOM     35  C   UNL     1      44.353   4.750  11.066  0.00  0.00    +0.000 A 
ATOM     36  H   UNL     1      42.211   3.535  13.121  0.00  0.00    +0.000 HD
ENDBRANCH  23  26
ENDBRANCH  21  22
ENDBRANCH   4  21
TORSDOF 9
ENDMDL
