MODEL 1
REMARK VINA RESULT:    -8.597      0.000      0.000
REMARK INTER + INTRA:         -12.620
REMARK INTER:                 -11.613
REMARK INTRA:                  -1.007
REMARK UNBOUND:                -1.007
REMARK  Name = 
REMARK  9 active torsions:
REMARK  status: ('A' for Active; 'I' for Inactive)
REMARK    1  A    between atoms: C_1  and  C_2
REMARK    2  A    between atoms: C_5  and  O_6
REMARK    3  A    between atoms: O_6  and  C_7
REMARK    4  A    between atoms: C_9  and  C_10
REMARK    5  A    between atoms: C_10  and  C_11
REMARK    6  A    between atoms: C_10  and  C_12
REMARK    7  A    between atoms: C_10  and  C_13
REMARK    8  A    between atoms: C_13  and  N_14
REMARK    9  A    between atoms: C_18  and  C_19
REMARK                            x       y       z     vdW  Elec       q    Type
REMARK                         _______ _______ _______ _____ _____    ______ ____
ROOT
ATOM      1  C   UNL     1      43.854   4.491  12.238  0.00  0.00    +0.000 C 
ATOM      2  C   UNL     1      43.609   3.223  13.084  0.00  0.00    +0.000 C 
ATOM      3  C   UNL     1      42.784   5.547  12.582  0.00  0.00    +0.000 C 
ENDROOT
BRANCH   1   6
ATOM      4  C   UNL     1      47.227   5.241  14.013  0.00  0.00    +0.000 A 
ATOM      5  C   UNL     1      45.970   4.724  13.678  0.00  0.00    +0.000 A 
ATOM      6  C   UNL     1      45.236   5.133  12.548  0.00  0.00    +0.000 A 
ATOM      7  C   UNL     1      45.851   6.080  11.714  0.00  0.00    +0.000 A 
ATOM      8  C   UNL     1      47.122   6.579  12.022  0.00  0.00    +0.000 A 
ATOM      9  F   UNL     1      47.679   7.477  11.195  0.00  0.00    +0.000 F 
ATOM     10  C   UNL     1      47.813   6.164  13.157  0.00  0.00    +0.000 A 
ATOM     11  F   UNL     1      49.031   6.661  13.417  0.00  0.00    +0.000 F 
BRANCH   4  12
ATOM     12  O   UNL     1      47.906   4.851  15.151  0.00  0.00    +0.000 OA
BRANCH  12  17
ATOM     13  C   UNL     1      47.321   5.319  18.129  0.00  0.00    +0.000 C 
ATOM     14  C   UNL     1      47.149   3.971  17.470  0.00  0.00    +0.000 C 
ATOM     15  O   UNL     1      48.296   3.112  17.723  0.00  0.00    +0.000 OA
ATOM     16  C   UNL     1      48.217   2.616  16.368  0.00  0.00    +0.000 C 
ATOM     17  C   UNL     1      47.303   3.786  15.942  0.00  0.00    +0.000 C 
ENDBRANCH  12  17
ENDBRANCH   4  12
ENDBRANCH   1   6
BRANCH   1  18
ATOM     18  C   UNL     1      43.744   4.099  10.720  0.00  0.00    +0.000 C 
BRANCH  18  19
ATOM     19  N   UNL     1      44.182   2.731  10.405  0.00  0.00    +0.000 N 
ATOM     20  C   UNL     1      45.053   2.687   9.290  0.00  0.00    +0.000 A 
ATOM     21  C   UNL     1      45.518   1.448   8.822  0.00  0.00    +0.000 A 
ATOM     22  N   UNL     1      46.348   1.293   7.756  0.00  0.00    +0.000 NA
ATOM     23  C   UNL     1      46.725   2.462   7.166  0.00  0.00    +0.000 A 
ATOM     24  C   UNL     1      46.290   3.695   7.621  0.00  0.00    +0.000 A 
ATOM     25  N   UNL     1      45.452   3.827   8.684  0.00  0.00    +0.000 NA
ATOM     26  H   UNL     1      43.395   2.118  10.208  0.00  0.00    +0.000 HD
BRANCH  23  27
ATOM     27  C   UNL     1      47.631   2.389   5.988  0.00  0.00    +0.000 C 
ATOM     28  N   UNL     1      47.437   3.342   5.026  0.00  0.00    +0.000 N 
ATOM     29  O   UNL     1      48.500   1.533   5.886  0.00  0.00    +0.000 OA
ATOM     30  H   UNL     1      46.707   4.036   5.136  0.00  0.00    +0.000 HD
ATOM     31  H   UNL     1      48.020   3.343   4.201  0.00  0.00    +0.000 HD
ENDBRANCH  23  27
ENDBRANCH  18  19
ENDBRANCH   1  18
TORSDOF 6
ENDMDL
MODEL 2
REMARK VINA RESULT:    -7.835      1.886      2.425
REMARK INTER + INTRA:         -11.590
REMARK INTER:                 -11.160
REMARK INTRA:                  -0.431
REMARK UNBOUND:                -1.007
REMARK  Name = 
REMARK  9 active torsions:
REMARK  status: ('A' for Active; 'I' for Inactive)
REMARK    1  A    between atoms: C_1  and  C_2
REMARK    2  A    between atoms: C_5  and  O_6
REMARK    3  A    between atoms: O_6  and  C_7
REMARK    4  A    between atoms: C_9  and  C_10
REMARK    5  A    between atoms: C_10  and  C_11
REMARK    6  A    between atoms: C_10  and  C_12
REMARK    7  A    between atoms: C_10  and  C_13
REMARK    8  A    between atoms: C_13  and  N_14
REMARK    9  A    between atoms: C_18  and  C_19
REMARK                            x       y       z     vdW  Elec       q    Type
REMARK                         _______ _______ _______ _____ _____    ______ ____
ROOT
ATOM      1  C   UNL     1      44.050   4.598  12.243  0.00  0.00    +0.000 C 
ATOM      2  C   UNL     1      44.675   3.224  12.570  0.00  0.00    +0.000 C 
ATOM      3  C   UNL     1      42.877   4.866  13.208  0.00  0.00    +0.000 C 
ENDROOT
BRANCH   1   6
ATOM      4  C   UNL     1      47.295   6.492  13.231  0.00  0.00    +0.000 A 
ATOM      5  C   UNL     1      46.320   5.506  13.036  0.00  0.00    +0.000 A 
ATOM      6  C   UNL     1      45.069   5.756  12.441  0.00  0.00    +0.000 A 
ATOM      7  C   UNL     1      44.842   7.067  11.992  0.00  0.00    +0.000 A 
ATOM      8  C   UNL     1      45.824   8.053  12.152  0.00  0.00    +0.000 A 
ATOM      9  F   UNL     1      45.571   9.292  11.703  0.00  0.00    +0.000 F 
ATOM     10  C   UNL     1      47.044   7.773  12.760  0.00  0.00    +0.000 A 
ATOM     11  F   UNL     1      47.962   8.742  12.892  0.00  0.00    +0.000 F 
BRANCH   4  12
ATOM     12  O   UNL     1      48.498   6.226  13.856  0.00  0.00    +0.000 OA
BRANCH  12  17
ATOM     13  C   UNL     1      51.034   7.749  14.680  0.00  0.00    +0.000 C 
ATOM     14  C   UNL     1      49.981   7.325  15.677  0.00  0.00    +0.000 C 
ATOM     15  O   UNL     1      50.368   6.101  16.361  0.00  0.00    +0.000 OA
ATOM     16  C   UNL     1      48.999   5.640  16.301  0.00  0.00    +0.000 C 
ATOM     17  C   UNL     1      48.642   6.693  15.228  0.00  0.00    +0.000 C 
ENDBRANCH  12  17
ENDBRANCH   4  12
ENDBRANCH   1   6
BRANCH   1  18
ATOM     18  C   UNL     1      43.522   4.559  10.764  0.00  0.00    +0.000 C 
BRANCH  18  19
ATOM     19  N   UNL     1      44.391   5.227   9.783  0.00  0.00    +0.000 N 
ATOM     20  C   UNL     1      45.156   4.308   9.026  0.00  0.00    +0.000 A 
ATOM     21  C   UNL     1      46.082   4.786   8.085  0.00  0.00    +0.000 A 
ATOM     22  N   UNL     1      46.872   3.991   7.315  0.00  0.00    +0.000 NA
ATOM     23  C   UNL     1      46.684   2.656   7.511  0.00  0.00    +0.000 A 
ATOM     24  C   UNL     1      45.766   2.163   8.423  0.00  0.00    +0.000 A 
ATOM     25  N   UNL     1      44.991   2.977   9.191  0.00  0.00    +0.000 NA
ATOM     26  H   UNL     1      45.038   5.874  10.230  0.00  0.00    +0.000 HD
BRANCH  23  27
ATOM     27  C   UNL     1      47.508   1.709   6.712  0.00  0.00    +0.000 C 
ATOM     28  N   UNL     1      48.622   2.239   6.122  0.00  0.00    +0.000 N 
ATOM     29  O   UNL     1      47.211   0.527   6.593  0.00  0.00    +0.000 OA
ATOM     30  H   UNL     1      48.841   3.222   6.236  0.00  0.00    +0.000 HD
ATOM     31  H   UNL     1      49.221   1.645   5.565  0.00  0.00    +0.000 HD
ENDBRANCH  23  27
ENDBRANCH  18  19
ENDBRANCH   1  18
TORSDOF 6
ENDMDL
MODEL 3
REMARK VINA RESULT:    -7.115      3.306      5.134
REMARK INTER + INTRA:         -10.618
REMARK INTER:                  -9.671
REMARK INTRA:                  -0.947
REMARK UNBOUND:                -1.007
REMARK  Name = 
REMARK  9 active torsions:
REMARK  status: ('A' for Active; 'I' for Inactive)
REMARK    1  A    between atoms: C_1  and  C_2
REMARK    2  A    between atoms: C_5  and  O_6
REMARK    3  A    between atoms: O_6  and  C_7
REMARK    4  A    between atoms: C_9  and  C_10
REMARK    5  A    between atoms: C_10  and  C_11
REMARK    6  A    between atoms: C_10  and  C_12
REMARK    7  A    between atoms: C_10  and  C_13
REMARK    8  A    between atoms: C_13  and  N_14
REMARK    9  A    between atoms: C_18  and  C_19
REMARK                            x       y       z     vdW  Elec       q    Type
REMARK                         _______ _______ _______ _____ _____    ______ ____
ROOT
ATOM      1  C   UNL     1      48.287   8.596  12.657  0.00  0.00    +0.000 C 
ATOM      2  C   UNL     1      48.771  10.027  12.335  0.00  0.00    +0.000 C 
ATOM      3  C   UNL     1      49.177   7.579  11.914  0.00  0.00    +0.000 C 
ENDROOT
BRANCH   1   6
ATOM      4  C   UNL     1      48.889   6.617  15.945  0.00  0.00    +0.000 A 
ATOM      5  C   UNL     1      48.745   6.977  14.600  0.00  0.00    +0.000 A 
ATOM      6  C   UNL     1      48.407   8.276  14.174  0.00  0.00    +0.000 A 
ATOM      7  C   UNL     1      48.259   9.244  15.180  0.00  0.00    +0.000 A 
ATOM      8  C   UNL     1      48.434   8.901  16.527  0.00  0.00    +0.000 A 
ATOM      9  F   UNL     1      48.291   9.857  17.458  0.00  0.00    +0.000 F 
ATOM     10  C   UNL     1      48.752   7.602  16.913  0.00  0.00    +0.000 A 
ATOM     11  F   UNL     1      48.916   7.313  18.212  0.00  0.00    +0.000 F 
BRANCH   4  12
ATOM     12  O   UNL     1      49.181   5.324  16.335  0.00  0.00    +0.000 OA
BRANCH  12  17
ATOM     13  C   UNL     1      49.680   2.353  16.929  0.00  0.00    +0.000 C 
ATOM     14  C   UNL     1      48.295   2.915  16.710  0.00  0.00    +0.000 C 
ATOM     15  O   UNL     1      47.839   2.674  15.350  0.00  0.00    +0.000 OA
ATOM     16  C   UNL     1      47.239   3.989  15.323  0.00  0.00    +0.000 C 
ATOM     17  C   UNL     1      48.048   4.435  16.561  0.00  0.00    +0.000 C 
ENDBRANCH  12  17
ENDBRANCH   4  12
ENDBRANCH   1   6
BRANCH   1  18
ATOM     18  C   UNL     1      46.800   8.457  12.168  0.00  0.00    +0.000 C 
BRANCH  18  19
ATOM     19  N   UNL     1      45.914   7.737  13.096  0.00  0.00    +0.000 N 
ATOM     20  C   UNL     1      45.435   6.522  12.551  0.00  0.00    +0.000 A 
ATOM     21  C   UNL     1      44.530   5.741  13.286  0.00  0.00    +0.000 A 
ATOM     22  N   UNL     1      44.003   4.565  12.853  0.00  0.00    +0.000 NA
ATOM     23  C   UNL     1      44.443   4.174  11.624  0.00  0.00    +0.000 A 
ATOM     24  C   UNL     1      45.347   4.921  10.888  0.00  0.00    +0.000 A 
ATOM     25  N   UNL     1      45.855   6.100  11.338  0.00  0.00    +0.000 NA
ATOM     26  H   UNL     1      45.106   8.298  13.358  0.00  0.00    +0.000 HD
BRANCH  23  27
ATOM     27  C   UNL     1      43.916   2.898  11.067  0.00  0.00    +0.000 C 
ATOM     28  N   UNL     1      44.623   2.366  10.024  0.00  0.00    +0.000 N 
ATOM     29  O   UNL     1      42.915   2.355  11.516  0.00  0.00    +0.000 OA
ATOM     30  H   UNL     1      45.446   2.841   9.671  0.00  0.00    +0.000 HD
ATOM     31  H   UNL     1      44.313   1.502   9.601  0.00  0.00    +0.000 HD
ENDBRANCH  23  27
ENDBRANCH  18  19
ENDBRANCH   1  18
TORSDOF 6
ENDMDL
MODEL 4
REMARK VINA RESULT:    -6.981      2.859      3.759
REMARK INTER + INTRA:         -10.436
REMARK INTER:                  -9.878
REMARK INTRA:                  -0.558
REMARK UNBOUND:                -1.007
REMARK  Name = 
REMARK  9 active torsions:
REMARK  status: ('A' for Active; 'I' for Inactive)
REMARK    1  A    between atoms: C_1  and  C_2
REMARK    2  A    between atoms: C_5  and  O_6
REMARK    3  A    between atoms: O_6  and  C_7
REMARK    4  A    between atoms: C_9  and  C_10
REMARK    5  A    between atoms: C_10  and  C_11
REMARK    6  A    between atoms: C_10  and  C_12
REMARK    7  A    between atoms: C_10  and  C_13
REMARK    8  A    between atoms: C_13  and  N_14
REMARK    9  A    between atoms: C_18  and  C_19
REMARK                            x       y       z     vdW  Elec       q    Type
REMARK                         _______ _______ _______ _____ _____    ______ ____
ROOT
ATOM      1  C   UNL     1      44.067   5.042  12.165  0.00  0.00    +0.000 C 
ATOM      2  C   UNL     1      45.132   3.991  12.549  0.00  0.00    +0.000 C 
ATOM      3  C   UNL     1      42.968   5.072  13.246  0.00  0.00    +0.000 C 
ENDROOT
BRANCH   1   6
ATOM      4  C   UNL     1      46.624   7.955  12.422  0.00  0.00    +0.000 A 
ATOM      5  C   UNL     1      46.007   6.699  12.474  0.00  0.00    +0.000 A 
ATOM      6  C   UNL     1      44.670   6.474  12.096  0.00  0.00    +0.000 A 
ATOM      7  C   UNL     1      43.964   7.583  11.603  0.00  0.00    +0.000 A 
ATOM      8  C   UNL     1      44.583   8.837  11.516  0.00  0.00    +0.000 A 
ATOM      9  F   UNL     1      43.877   9.871  11.033  0.00  0.00    +0.000 F 
ATOM     10  C   UNL     1      45.903   9.027  11.915  0.00  0.00    +0.000 A 
ATOM     11  F   UNL     1      46.463  10.241  11.812  0.00  0.00    +0.000 F 
BRANCH   4  12
ATOM     12  O   UNL     1      47.926   8.155  12.840  0.00  0.00    +0.000 OA
BRANCH  12  17
ATOM     13  C   UNL     1      49.640  10.702  12.843  0.00  0.00    +0.000 C 
ATOM     14  C   UNL     1      49.094  10.089  14.111  0.00  0.00    +0.000 C 
ATOM     15  O   UNL     1      50.104   9.284  14.782  0.00  0.00    +0.000 OA
ATOM     16  C   UNL     1      49.094   8.306  15.117  0.00  0.00    +0.000 C 
ATOM     17  C   UNL     1      48.111   8.895  14.080  0.00  0.00    +0.000 C 
ENDBRANCH  12  17
ENDBRANCH   4  12
ENDBRANCH   1   6
BRANCH   1  18
ATOM     18  C   UNL     1      43.442   4.627  10.784  0.00  0.00    +0.000 C 
BRANCH  18  19
ATOM     19  N   UNL     1      44.213   5.057   9.607  0.00  0.00    +0.000 N 
ATOM     20  C   UNL     1      44.953   3.997   9.031  0.00  0.00    +0.000 A 
ATOM     21  C   UNL     1      45.789   4.253   7.932  0.00  0.00    +0.000 A 
ATOM     22  N   UNL     1      46.548   3.311   7.311  0.00  0.00    +0.000 NA
ATOM     23  C   UNL     1      46.424   2.058   7.832  0.00  0.00    +0.000 A 
ATOM     24  C   UNL     1      45.594   1.781   8.905  0.00  0.00    +0.000 A 
ATOM     25  N   UNL     1      44.849   2.741   9.518  0.00  0.00    +0.000 NA
ATOM     26  H   UNL     1      44.866   5.802   9.835  0.00  0.00    +0.000 HD
BRANCH  23  27
ATOM     27  C   UNL     1      47.222   0.963   7.216  0.00  0.00    +0.000 C 
ATOM     28  N   UNL     1      46.823  -0.309   7.522  0.00  0.00    +0.000 N 
ATOM     29  O   UNL     1      48.173   1.185   6.479  0.00  0.00    +0.000 OA
ATOM     30  H   UNL     1      46.033  -0.462   8.139  0.00  0.00    +0.000 HD
ATOM     31  H   UNL     1      47.327  -1.095   7.136  0.00  0.00    +0.000 HD
ENDBRANCH  23  27
ENDBRANCH  18  19
ENDBRANCH   1  18
TORSDOF 6
ENDMDL
MODEL 5
REMARK VINA RESULT:    -6.490      4.497      7.972
REMARK INTER + INTRA:          -9.773
REMARK INTER:                  -8.891
REMARK INTRA:                  -0.882
REMARK UNBOUND:                -1.007
REMARK  Name = 
REMARK  9 active torsions:
REMARK  status: ('A' for Active; 'I' for Inactive)
REMARK    1  A    between atoms: C_1  and  C_2
REMARK    2  A    between atoms: C_5  and  O_6
REMARK    3  A    between atoms: O_6  and  C_7
REMARK    4  A    between atoms: C_9  and  C_10
REMARK    5  A    between atoms: C_10  and  C_11
REMARK    6  A    between atoms: C_10  and  C_12
REMARK    7  A    between atoms: C_10  and  C_13
REMARK    8  A    between atoms: C_13  and  N_14
REMARK    9  A    between atoms: C_18  and  C_19
REMARK                            x       y       z     vdW  Elec       q    Type
REMARK                         _______ _______ _______ _____ _____    ______ ____
ROOT
ATOM      1  C   UNL     1      48.708   8.363  12.806  0.00  0.00    +0.000 C 
ATOM      2  C   UNL     1      49.634   7.274  12.223  0.00  0.00    +0.000 C 
ATOM      3  C   UNL     1      49.205   9.751  12.353  0.00  0.00    +0.000 C 
ENDROOT
BRANCH   1   6
ATOM      4  C   UNL     1      45.500   6.774  11.298  0.00  0.00    +0.000 A 
ATOM      5  C   UNL     1      46.802   6.987  11.766  0.00  0.00    +0.000 A 
ATOM      6  C   UNL     1      47.249   8.217  12.288  0.00  0.00    +0.000 A 
ATOM      7  C   UNL     1      46.297   9.245  12.366  0.00  0.00    +0.000 A 
ATOM      8  C   UNL     1      44.983   9.031  11.931  0.00  0.00    +0.000 A 
ATOM      9  F   UNL     1      44.100  10.037  12.030  0.00  0.00    +0.000 F 
ATOM     10  C   UNL     1      44.579   7.807  11.405  0.00  0.00    +0.000 A 
ATOM     11  F   UNL     1      43.311   7.638  11.003  0.00  0.00    +0.000 F 
BRANCH   4  12
ATOM     12  O   UNL     1      45.101   5.569  10.753  0.00  0.00    +0.000 OA
BRANCH  12  17
ATOM     13  C   UNL     1      44.744   2.695   9.731  0.00  0.00    +0.000 C 
ATOM     14  C   UNL     1      44.415   3.099  11.149  0.00  0.00    +0.000 C 
ATOM     15  O   UNL     1      42.988   3.329  11.312  0.00  0.00    +0.000 OA
ATOM     16  C   UNL     1      43.273   4.459  12.167  0.00  0.00    +0.000 C 
ATOM     17  C   UNL     1      44.740   4.512  11.689  0.00  0.00    +0.000 C 
ENDBRANCH  12  17
ENDBRANCH   4  12
ENDBRANCH   1   6
BRANCH   1  18
ATOM     18  C   UNL     1      48.760   8.266  14.374  0.00  0.00    +0.000 C 
BRANCH  18  19
ATOM     19  N   UNL     1      48.018   7.132  14.944  0.00  0.00    +0.000 N 
ATOM     20  C   UNL     1      48.842   6.285  15.723  0.00  0.00    +0.000 A 
ATOM     21  C   UNL     1      48.300   5.122  16.292  0.00  0.00    +0.000 A 
ATOM     22  N   UNL     1      49.005   4.238  17.048  0.00  0.00    +0.000 NA
ATOM     23  C   UNL     1      50.310   4.578  17.237  0.00  0.00    +0.000 A 
ATOM     24  C   UNL     1      50.861   5.728  16.697  0.00  0.00    +0.000 A 
ATOM     25  N   UNL     1      50.140   6.595  15.937  0.00  0.00    +0.000 NA
ATOM     26  H   UNL     1      47.584   6.562  14.222  0.00  0.00    +0.000 HD
BRANCH  23  27
ATOM     27  C   UNL     1      51.160   3.666  18.050  0.00  0.00    +0.000 C 
ATOM     28  N   UNL     1      51.448   4.090  19.317  0.00  0.00    +0.000 N 
ATOM     29  O   UNL     1      51.573   2.599  17.613  0.00  0.00    +0.000 OA
ATOM     30  H   UNL     1      51.095   4.980  19.650  0.00  0.00    +0.000 HD
ATOM     31  H   UNL     1      52.023   3.515  19.917  0.00  0.00    +0.000 HD
ENDBRANCH  23  27
ENDBRANCH  18  19
ENDBRANCH   1  18
TORSDOF 6
ENDMDL
MODEL 6
REMARK VINA RESULT:    -6.487      4.076      8.515
REMARK INTER + INTRA:          -9.770
REMARK INTER:                  -9.145
REMARK INTRA:                  -0.625
REMARK UNBOUND:                -1.007
REMARK  Name = 
REMARK  9 active torsions:
REMARK  status: ('A' for Active; 'I' for Inactive)
REMARK    1  A    between atoms: C_1  and  C_2
REMARK    2  A    between atoms: C_5  and  O_6
REMARK    3  A    between atoms: O_6  and  C_7
REMARK    4  A    between atoms: C_9  and  C_10
REMARK    5  A    between atoms: C_10  and  C_11
REMARK    6  A    between atoms: C_10  and  C_12
REMARK    7  A    between atoms: C_10  and  C_13
REMARK    8  A    between atoms: C_13  and  N_14
REMARK    9  A    between atoms: C_18  and  C_19
REMARK                            x       y       z     vdW  Elec       q    Type
REMARK                         _______ _______ _______ _____ _____    ______ ____
ROOT
ATOM      1  C   UNL     1      47.250   7.359  12.775  0.00  0.00    +0.000 C 
ATOM      2  C   UNL     1      48.140   7.856  11.616  0.00  0.00    +0.000 C 
ATOM      3  C   UNL     1      46.695   8.574  13.547  0.00  0.00    +0.000 C 
ENDROOT
BRANCH   1   6
ATOM      4  C   UNL     1      45.036   5.115  10.505  0.00  0.00    +0.000 A 
ATOM      5  C   UNL     1      46.092   5.871  11.028  0.00  0.00    +0.000 A 
ATOM      6  C   UNL     1      46.023   6.557  12.256  0.00  0.00    +0.000 A 
ATOM      7  C   UNL     1      44.832   6.413  12.986  0.00  0.00    +0.000 A 
ATOM      8  C   UNL     1      43.783   5.631  12.486  0.00  0.00    +0.000 A 
ATOM      9  F   UNL     1      42.664   5.513  13.217  0.00  0.00    +0.000 F 
ATOM     10  C   UNL     1      43.879   4.980  11.260  0.00  0.00    +0.000 A 
ATOM     11  F   UNL     1      42.855   4.236  10.816  0.00  0.00    +0.000 F 
BRANCH   4  12
ATOM     12  O   UNL     1      45.118   4.487   9.277  0.00  0.00    +0.000 OA
BRANCH  12  17
ATOM     13  C   UNL     1      46.548   3.485   6.751  0.00  0.00    +0.000 C 
ATOM     14  C   UNL     1      46.282   2.593   7.941  0.00  0.00    +0.000 C 
ATOM     15  O   UNL     1      45.102   1.769   7.726  0.00  0.00    +0.000 OA
ATOM     16  C   UNL     1      44.724   1.959   9.109  0.00  0.00    +0.000 C 
ATOM     17  C   UNL     1      45.696   3.150   9.260  0.00  0.00    +0.000 C 
ENDBRANCH  12  17
ENDBRANCH   4  12
ENDBRANCH   1   6
BRANCH   1  18
ATOM     18  C   UNL     1      48.133   6.480  13.732  0.00  0.00    +0.000 C 
BRANCH  18  19
ATOM     19  N   UNL     1      47.399   5.425  14.449  0.00  0.00    +0.000 N 
ATOM     20  C   UNL     1      47.804   5.309  15.800  0.00  0.00    +0.000 A 
ATOM     21  C   UNL     1      47.242   4.308  16.608  0.00  0.00    +0.000 A 
ATOM     22  N   UNL     1      47.567   4.105  17.913  0.00  0.00    +0.000 NA
ATOM     23  C   UNL     1      48.490   4.978  18.403  0.00  0.00    +0.000 A 
ATOM     24  C   UNL     1      49.046   5.981  17.627  0.00  0.00    +0.000 A 
ATOM     25  N   UNL     1      48.714   6.162  16.321  0.00  0.00    +0.000 NA
ATOM     26  H   UNL     1      47.522   4.515  14.010  0.00  0.00    +0.000 HD
BRANCH  23  27
ATOM     27  C   UNL     1      48.909   4.829  19.824  0.00  0.00    +0.000 C 
ATOM     28  N   UNL     1      50.178   4.360  20.026  0.00  0.00    +0.000 N 
ATOM     29  O   UNL     1      48.166   5.111  20.755  0.00  0.00    +0.000 OA
ATOM     30  H   UNL     1      50.769   4.131  19.234  0.00  0.00    +0.000 HD
ATOM     31  H   UNL     1      50.519   4.235  20.969  0.00  0.00    +0.000 HD
ENDBRANCH  23  27
ENDBRANCH  18  19
ENDBRANCH   1  18
TORSDOF 6
ENDMDL
MODEL 7
REMARK VINA RESULT:    -6.271      4.535      6.642
REMARK INTER + INTRA:          -9.478
REMARK INTER:                  -8.693
REMARK INTRA:                  -0.785
REMARK UNBOUND:                -1.007
REMARK  Name = 
REMARK  9 active torsions:
REMARK  status: ('A' for Active; 'I' for Inactive)
REMARK    1  A    between atoms: C_1  and  C_2
REMARK    2  A    between atoms: C_5  and  O_6
REMARK    3  A    between atoms: O_6  and  C_7
REMARK    4  A    between atoms: C_9  and  C_10
REMARK    5  A    between atoms: C_10  and  C_11
REMARK    6  A    between atoms: C_10  and  C_12
REMARK    7  A    between atoms: C_10  and  C_13
REMARK    8  A    between atoms: C_13  and  N_14
REMARK    9  A    between atoms: C_18  and  C_19
REMARK                            x       y       z     vdW  Elec       q    Type
REMARK                         _______ _______ _______ _____ _____    ______ ____
ROOT
ATOM      1  C   UNL     1      48.240   4.928  16.997  0.00  0.00    +0.000 C 
ATOM      2  C   UNL     1      47.264   4.764  18.181  0.00  0.00    +0.000 C 
ATOM      3  C   UNL     1      48.625   6.416  16.856  0.00  0.00    +0.000 C 
ENDROOT
BRANCH   1   6
ATOM      4  C   UNL     1      51.982   4.192  17.737  0.00  0.00    +0.000 A 
ATOM      5  C   UNL     1      50.759   4.831  17.502  0.00  0.00    +0.000 A 
ATOM      6  C   UNL     1      49.562   4.142  17.226  0.00  0.00    +0.000 A 
ATOM      7  C   UNL     1      49.631   2.739  17.241  0.00  0.00    +0.000 A 
ATOM      8  C   UNL     1      50.844   2.091  17.508  0.00  0.00    +0.000 A 
ATOM      9  F   UNL     1      50.867   0.749  17.520  0.00  0.00    +0.000 F 
ATOM     10  C   UNL     1      52.012   2.805  17.760  0.00  0.00    +0.000 A 
ATOM     11  F   UNL     1      53.153   2.149  18.017  0.00  0.00    +0.000 F 
BRANCH   4  12
ATOM     12  O   UNL     1      53.149   4.896  17.964  0.00  0.00    +0.000 OA
BRANCH  12  17
ATOM     13  C   UNL     1      53.430   7.845  18.774  0.00  0.00    +0.000 C 
ATOM     14  C   UNL     1      53.741   6.710  19.720  0.00  0.00    +0.000 C 
ATOM     15  O   UNL     1      55.172   6.450  19.777  0.00  0.00    +0.000 OA
ATOM     16  C   UNL     1      54.907   5.030  19.826  0.00  0.00    +0.000 C 
ATOM     17  C   UNL     1      53.452   5.236  19.348  0.00  0.00    +0.000 C 
ENDBRANCH  12  17
ENDBRANCH   4  12
ENDBRANCH   1   6
BRANCH   1  18
ATOM     18  C   UNL     1      47.515   4.442  15.690  0.00  0.00    +0.000 C 
BRANCH  18  19
ATOM     19  N   UNL     1      47.151   5.516  14.754  0.00  0.00    +0.000 N 
ATOM     20  C   UNL     1      46.424   5.035  13.639  0.00  0.00    +0.000 A 
ATOM     21  C   UNL     1      46.049   5.926  12.620  0.00  0.00    +0.000 A 
ATOM     22  N   UNL     1      45.359   5.567  11.504  0.00  0.00    +0.000 NA
ATOM     23  C   UNL     1      45.029   4.246  11.449  0.00  0.00    +0.000 A 
ATOM     24  C   UNL     1      45.376   3.355  12.450  0.00  0.00    +0.000 A 
ATOM     25  N   UNL     1      46.074   3.733  13.555  0.00  0.00    +0.000 NA
ATOM     26  H   UNL     1      47.970   6.005  14.401  0.00  0.00    +0.000 HD
BRANCH  23  27
ATOM     27  C   UNL     1      44.275   3.762  10.261  0.00  0.00    +0.000 C 
ATOM     28  N   UNL     1      44.156   4.650   9.228  0.00  0.00    +0.000 N 
ATOM     29  O   UNL     1      43.794   2.638  10.209  0.00  0.00    +0.000 OA
ATOM     30  H   UNL     1      44.562   5.576   9.302  0.00  0.00    +0.000 HD
ATOM     31  H   UNL     1      43.653   4.380   8.394  0.00  0.00    +0.000 HD
ENDBRANCH  23  27
ENDBRANCH  18  19
ENDBRANCH   1  18
TORSDOF 6
ENDMDL
MODEL 8
REMARK VINA RESULT:    -5.991      4.146      6.108
REMARK INTER + INTRA:          -9.099
REMARK INTER:                  -8.380
REMARK INTRA:                  -0.720
REMARK UNBOUND:                -1.007
REMARK  Name = 
REMARK  9 active torsions:
REMARK  status: ('A' for Active; 'I' for Inactive)
REMARK    1  A    between atoms: C_1  and  C_2
REMARK    2  A    between atoms: C_5  and  O_6
REMARK    3  A    between atoms: O_6  and  C_7
REMARK    4  A    between atoms: C_9  and  C_10
REMARK    5  A    between atoms: C_10  and  C_11
REMARK    6  A    between atoms: C_10  and  C_12
REMARK    7  A    between atoms: C_10  and  C_13
REMARK    8  A    between atoms: C_13  and  N_14
REMARK    9  A    between atoms: C_18  and  C_19
REMARK                            x       y       z     vdW  Elec       q    Type
REMARK                         _______ _______ _______ _____ _____    ______ ____
ROOT
ATOM      1  C   UNL     1      48.117   4.191  17.267  0.00  0.00    +0.000 C 
ATOM      2  C   UNL     1      48.188   2.855  18.038  0.00  0.00    +0.000 C 
ATOM      3  C   UNL     1      47.184   5.163  18.019  0.00  0.00    +0.000 C 
ENDROOT
BRANCH   1   6
ATOM      4  C   UNL     1      51.964   4.705  17.418  0.00  0.00    +0.000 A 
ATOM      5  C   UNL     1      50.677   4.159  17.491  0.00  0.00    +0.000 A 
ATOM      6  C   UNL     1      49.508   4.880  17.180  0.00  0.00    +0.000 A 
ATOM      7  C   UNL     1      49.688   6.199  16.734  0.00  0.00    +0.000 A 
ATOM      8  C   UNL     1      50.974   6.744  16.626  0.00  0.00    +0.000 A 
ATOM      9  F   UNL     1      51.104   8.005  16.189  0.00  0.00    +0.000 F 
ATOM     10  C   UNL     1      52.107   6.007  16.958  0.00  0.00    +0.000 A 
ATOM     11  F   UNL     1      53.323   6.560  16.837  0.00  0.00    +0.000 F 
BRANCH   4  12
ATOM     12  O   UNL     1      53.091   3.986  17.769  0.00  0.00    +0.000 OA
BRANCH  12  17
ATOM     13  C   UNL     1      53.575   5.311  20.497  0.00  0.00    +0.000 C 
ATOM     14  C   UNL     1      53.397   3.819  20.339  0.00  0.00    +0.000 C 
ATOM     15  O   UNL     1      54.681   3.136  20.326  0.00  0.00    +0.000 OA
ATOM     16  C   UNL     1      54.192   2.247  19.297  0.00  0.00    +0.000 C 
ATOM     17  C   UNL     1      53.006   3.185  18.983  0.00  0.00    +0.000 C 
ENDBRANCH  12  17
ENDBRANCH   4  12
ENDBRANCH   1   6
BRANCH   1  18
ATOM     18  C   UNL     1      47.540   3.903  15.834  0.00  0.00    +0.000 C 
BRANCH  18  19
ATOM     19  N   UNL     1      46.924   5.065  15.175  0.00  0.00    +0.000 N 
ATOM     20  C   UNL     1      46.270   4.717  13.969  0.00  0.00    +0.000 A 
ATOM     21  C   UNL     1      45.680   5.721  13.186  0.00  0.00    +0.000 A 
ATOM     22  N   UNL     1      45.037   5.497  12.009  0.00  0.00    +0.000 NA
ATOM     23  C   UNL     1      44.986   4.187  11.639  0.00  0.00    +0.000 A 
ATOM     24  C   UNL     1      45.549   3.179  12.404  0.00  0.00    +0.000 A 
ATOM     25  N   UNL     1      46.196   3.427  13.575  0.00  0.00    +0.000 NA
ATOM     26  H   UNL     1      47.611   5.784  14.958  0.00  0.00    +0.000 HD
BRANCH  23  27
ATOM     27  C   UNL     1      44.304   3.847  10.361  0.00  0.00    +0.000 C 
ATOM     28  N   UNL     1      44.249   4.846   9.430  0.00  0.00    +0.000 N 
ATOM     29  O   UNL     1      43.823   2.740  10.153  0.00  0.00    +0.000 OA
ATOM     30  H   UNL     1      44.653   5.754   9.631  0.00  0.00    +0.000 HD
ATOM     31  H   UNL     1      43.797   4.677   8.542  0.00  0.00    +0.000 HD
ENDBRANCH  23  27
ENDBRANCH  18  19
ENDBRANCH   1  18
TORSDOF 6
ENDMDL
MODEL 9
REMARK VINA RESULT:    -5.794      3.864      6.376
REMARK INTER + INTRA:          -8.833
REMARK INTER:                  -8.272
REMARK INTRA:                  -0.561
REMARK UNBOUND:                -1.007
REMARK  Name = 
REMARK  9 active torsions:
REMARK  status: ('A' for Active; 'I' for Inactive)
REMARK    1  A    between atoms: C_1  and  C_2
REMARK    2  A    between atoms: C_5  and  O_6
REMARK    3  A    between atoms: O_6  and  C_7
REMARK    4  A    between atoms: C_9  and  C_10
REMARK    5  A    between atoms: C_10  and  C_11
REMARK    6  A    between atoms: C_10  and  C_12
REMARK    7  A    between atoms: C_10  and  C_13
REMARK    8  A    between atoms: C_13  and  N_14
REMARK    9  A    between atoms: C_18  and  C_19
REMARK                            x       y       z     vdW  Elec       q    Type
REMARK                         _______ _______ _______ _____ _____    ______ ____
ROOT
ATOM      1  C   UNL     1      48.088   4.129  17.384  0.00  0.00    +0.000 C 
ATOM      2  C   UNL     1      48.079   2.781  18.138  0.00  0.00    +0.000 C 
ATOM      3  C   UNL     1      47.276   5.166  18.187  0.00  0.00    +0.000 C 
ENDROOT
BRANCH   1   6
ATOM      4  C   UNL     1      50.987   6.616  16.677  0.00  0.00    +0.000 A 
ATOM      5  C   UNL     1      49.724   6.027  16.815  0.00  0.00    +0.000 A 
ATOM      6  C   UNL     1      49.527   4.699  17.238  0.00  0.00    +0.000 A 
ATOM      7  C   UNL     1      50.681   3.973  17.573  0.00  0.00    +0.000 A 
ATOM      8  C   UNL     1      51.947   4.563  17.471  0.00  0.00    +0.000 A 
ATOM      9  F   UNL     1      53.024   3.838  17.807  0.00  0.00    +0.000 F 
ATOM     10  C   UNL     1      52.106   5.875  17.033  0.00  0.00    +0.000 A 
ATOM     11  F   UNL     1      53.333   6.408  16.952  0.00  0.00    +0.000 F 
BRANCH   4  12
ATOM     12  O   UNL     1      51.152   7.909  16.220  0.00  0.00    +0.000 OA
BRANCH  12  17
ATOM     13  C   UNL     1      51.341  10.737  15.038  0.00  0.00    +0.000 C 
ATOM     14  C   UNL     1      51.302   9.498  14.176  0.00  0.00    +0.000 C 
ATOM     15  O   UNL     1      49.963   9.259  13.659  0.00  0.00    +0.000 OA
ATOM     16  C   UNL     1      50.143   7.839  13.864  0.00  0.00    +0.000 C 
ATOM     17  C   UNL     1      51.358   8.078  14.788  0.00  0.00    +0.000 C 
ENDBRANCH  12  17
ENDBRANCH   4  12
ENDBRANCH   1   6
BRANCH   1  18
ATOM     18  C   UNL     1      47.424   3.910  15.976  0.00  0.00    +0.000 C 
BRANCH  18  19
ATOM     19  N   UNL     1      47.113   5.147  15.244  0.00  0.00    +0.000 N 
ATOM     20  C   UNL     1      46.442   4.897  14.023  0.00  0.00    +0.000 A 
ATOM     21  C   UNL     1      46.125   5.969  13.175  0.00  0.00    +0.000 A 
ATOM     22  N   UNL     1      45.492   5.839  11.978  0.00  0.00    +0.000 NA
ATOM     23  C   UNL     1      45.159   4.557  11.658  0.00  0.00    +0.000 A 
ATOM     24  C   UNL     1      45.449   3.487  12.487  0.00  0.00    +0.000 A 
ATOM     25  N   UNL     1      46.091   3.639  13.676  0.00  0.00    +0.000 NA
ATOM     26  H   UNL     1      47.952   5.682  15.032  0.00  0.00    +0.000 HD
BRANCH  23  27
ATOM     27  C   UNL     1      44.465   4.318  10.363  0.00  0.00    +0.000 C 
ATOM     28  N   UNL     1      45.059   4.862   9.258  0.00  0.00    +0.000 N 
ATOM     29  O   UNL     1      43.427   3.672  10.290  0.00  0.00    +0.000 OA
ATOM     30  H   UNL     1      45.916   5.395   9.350  0.00  0.00    +0.000 HD
ATOM     31  H   UNL     1      44.634   4.735   8.350  0.00  0.00    +0.000 HD
ENDBRANCH  23  27
ENDBRANCH  18  19
ENDBRANCH   1  18
TORSDOF 6
ENDMDL
