MODEL 1
REMARK VINA RESULT:    -7.807      0.000      0.000
REMARK INTER + INTRA:         -10.480
REMARK INTER:                  -9.633
REMARK INTRA:                  -0.847
REMARK UNBOUND:                -0.847
REMARK  Name = 
REMARK  6 active torsions:
REMARK  status: ('A' for Active; 'I' for Inactive)
REMARK    1  A    between atoms: C_1  and  C_2
REMARK    2  A    between atoms: C_2  and  C_3
REMARK    3  A    between atoms: C_2  and  C_4
REMARK    4  A    between atoms: C_2  and  C_18
REMARK    5  A    between atoms: C_5  and  C_6
REMARK    6  A    between atoms: C_8  and  C_9
REMARK                            x       y       z     vdW  Elec       q    Type
REMARK                         _______ _______ _______ _____ _____    ______ ____
ROOT
ATOM      1  C   UNL     1      45.269   4.555  12.052  0.00  0.00    +0.000 C 
ATOM      2  C   UNL     1      46.014   5.676  12.003  0.00  0.00    +0.000 C 
ENDROOT
BRANCH   2   3
ATOM      3  C   UNL     1      46.935   6.062  13.085  0.00  0.00    +0.000 A 
ATOM      4  C   UNL     1      47.093   5.250  14.206  0.00  0.00    +0.000 A 
ATOM      5  C   UNL     1      47.976   5.632  15.231  0.00  0.00    +0.000 A 
ATOM      6  C   UNL     1      48.666   6.839  15.058  0.00  0.00    +0.000 A 
ATOM      7  C   UNL     1      48.447   7.592  13.918  0.00  0.00    +0.000 A 
ATOM      8  N   UNL     1      47.604   7.228  12.937  0.00  0.00    +0.000 NA
BRANCH   5   9
ATOM      9  C   UNL     1      48.172   4.802  16.439  0.00  0.00    +0.000 A 
ATOM     10  C   UNL     1      47.460   3.615  16.663  0.00  0.00    +0.000 A 
ATOM     11  C   UNL     1      47.679   2.855  17.813  0.00  0.00    +0.000 A 
ATOM     12  C   UNL     1      48.623   3.296  18.723  0.00  0.00    +0.000 A 
ATOM     13  N   UNL     1      49.336   4.427  18.563  0.00  0.00    +0.000 NA
ATOM     14  C   UNL     1      49.089   5.146  17.439  0.00  0.00    +0.000 A 
ENDBRANCH   5   9
ENDBRANCH   2   3
BRANCH   1  16
ATOM     15  C   UNL     1      43.474   2.919  11.692  0.00  0.00    +0.000 C 
ATOM     16  C   UNL     1      44.299   4.028  11.001  0.00  0.00    +0.000 C 
ATOM     17  C   UNL     1      43.312   5.173  10.650  0.00  0.00    +0.000 C 
BRANCH  16  18
ATOM     18  C   UNL     1      44.987   3.569   9.700  0.00  0.00    +0.000 A 
ATOM     19  C   UNL     1      45.451   4.471   8.727  0.00  0.00    +0.000 A 
ATOM     20  C   UNL     1      46.115   4.024   7.578  0.00  0.00    +0.000 A 
ATOM     21  C   UNL     1      46.325   2.663   7.382  0.00  0.00    +0.000 A 
ATOM     22 CL   UNL     1      47.159   2.120   5.980  0.00  0.00    +0.000 Cl
ATOM     23  C   UNL     1      45.864   1.744   8.317  0.00  0.00    +0.000 A 
ATOM     24  C   UNL     1      45.199   2.193   9.463  0.00  0.00    +0.000 A 
ENDBRANCH  16  18
ENDBRANCH   1  16
TORSDOF 4
ENDMDL
MODEL 2
REMARK VINA RESULT:    -7.568      1.585      3.481
REMARK INTER + INTRA:         -10.184
REMARK INTER:                  -9.306
REMARK INTRA:                  -0.878
REMARK UNBOUND:                -0.847
REMARK  Name = 
REMARK  6 active torsions:
REMARK  status: ('A' for Active; 'I' for Inactive)
REMARK    1  A    between atoms: C_1  and  C_2
REMARK    2  A    between atoms: C_2  and  C_3
REMARK    3  A    between atoms: C_2  and  C_4
REMARK    4  A    between atoms: C_2  and  C_18
REMARK    5  A    between atoms: C_5  and  C_6
REMARK    6  A    between atoms: C_8  and  C_9
REMARK                            x       y       z     vdW  Elec       q    Type
REMARK                         _______ _______ _______ _____ _____    ______ ____
ROOT
ATOM      1  C   UNL     1      45.075   4.608  12.341  0.00  0.00    +0.000 C 
ATOM      2  C   UNL     1      46.031   3.947  13.024  0.00  0.00    +0.000 C 
ENDROOT
BRANCH   2   3
ATOM      3  C   UNL     1      46.858   4.595  14.055  0.00  0.00    +0.000 A 
ATOM      4  C   UNL     1      47.480   5.816  13.802  0.00  0.00    +0.000 A 
ATOM      5  C   UNL     1      48.267   6.422  14.797  0.00  0.00    +0.000 A 
ATOM      6  C   UNL     1      48.379   5.744  16.019  0.00  0.00    +0.000 A 
ATOM      7  C   UNL     1      47.735   4.532  16.187  0.00  0.00    +0.000 A 
ATOM      8  N   UNL     1      46.982   3.951  15.237  0.00  0.00    +0.000 NA
BRANCH   5   9
ATOM      9  C   UNL     1      48.947   7.716  14.571  0.00  0.00    +0.000 A 
ATOM     10  C   UNL     1      48.480   8.920  15.117  0.00  0.00    +0.000 A 
ATOM     11  C   UNL     1      49.155  10.120  14.886  0.00  0.00    +0.000 A 
ATOM     12  C   UNL     1      50.302  10.090  14.114  0.00  0.00    +0.000 A 
ATOM     13  N   UNL     1      50.798   8.966  13.563  0.00  0.00    +0.000 NA
ATOM     14  C   UNL     1      50.111   7.821  13.799  0.00  0.00    +0.000 A 
ENDBRANCH   5   9
ENDBRANCH   2   3
BRANCH   1  16
ATOM     15  C   UNL     1      43.389   2.873  11.920  0.00  0.00    +0.000 C 
ATOM     16  C   UNL     1      44.138   4.059  11.271  0.00  0.00    +0.000 C 
ATOM     17  C   UNL     1      43.078   5.149  10.966  0.00  0.00    +0.000 C 
BRANCH  16  18
ATOM     18  C   UNL     1      44.850   3.695   9.954  0.00  0.00    +0.000 A 
ATOM     19  C   UNL     1      45.401   4.664   9.096  0.00  0.00    +0.000 A 
ATOM     20  C   UNL     1      46.084   4.298   7.929  0.00  0.00    +0.000 A 
ATOM     21  C   UNL     1      46.226   2.955   7.599  0.00  0.00    +0.000 A 
ATOM     22 CL   UNL     1      47.083   2.510   6.177  0.00  0.00    +0.000 Cl
ATOM     23  C   UNL     1      45.678   1.974   8.417  0.00  0.00    +0.000 A 
ATOM     24  C   UNL     1      44.994   2.341   9.580  0.00  0.00    +0.000 A 
ENDBRANCH  16  18
ENDBRANCH   1  16
TORSDOF 4
ENDMDL
MODEL 3
REMARK VINA RESULT:    -7.545      4.130      8.045
REMARK INTER + INTRA:         -10.157
REMARK INTER:                  -9.347
REMARK INTRA:                  -0.810
REMARK UNBOUND:                -0.847
REMARK  Name = 
REMARK  6 active torsions:
REMARK  status: ('A' for Active; 'I' for Inactive)
REMARK    1  A    between atoms: C_1  and  C_2
REMARK    2  A    between atoms: C_2  and  C_3
REMARK    3  A    between atoms: C_2  and  C_4
REMARK    4  A    between atoms: C_2  and  C_18
REMARK    5  A    between atoms: C_5  and  C_6
REMARK    6  A    between atoms: C_8  and  C_9
REMARK                            x       y       z     vdW  Elec       q    Type
REMARK                         _______ _______ _______ _____ _____    ______ ____
ROOT
ATOM      1  C   UNL     1      46.582   6.893  11.794  0.00  0.00    +0.000 C 
ATOM      2  C   UNL     1      45.358   6.616  11.302  0.00  0.00    +0.000 C 
ENDROOT
BRANCH   2   3
ATOM      3  C   UNL     1      44.997   5.288  10.781  0.00  0.00    +0.000 A 
ATOM      4  C   UNL     1      45.672   4.745   9.690  0.00  0.00    +0.000 A 
ATOM      5  C   UNL     1      45.316   3.475   9.204  0.00  0.00    +0.000 A 
ATOM      6  C   UNL     1      44.274   2.812   9.866  0.00  0.00    +0.000 A 
ATOM      7  C   UNL     1      43.649   3.423  10.938  0.00  0.00    +0.000 A 
ATOM      8  N   UNL     1      43.989   4.637  11.404  0.00  0.00    +0.000 NA
BRANCH   5   9
ATOM      9  C   UNL     1      46.004   2.863   8.047  0.00  0.00    +0.000 A 
ATOM     10  C   UNL     1      46.284   3.575   6.872  0.00  0.00    +0.000 A 
ATOM     11  C   UNL     1      46.943   2.963   5.804  0.00  0.00    +0.000 A 
ATOM     12  C   UNL     1      47.321   1.640   5.937  0.00  0.00    +0.000 A 
ATOM     13  N   UNL     1      47.077   0.905   7.039  0.00  0.00    +0.000 NA
ATOM     14  C   UNL     1      46.427   1.528   8.052  0.00  0.00    +0.000 A 
ENDBRANCH   5   9
ENDBRANCH   2   3
BRANCH   1  16
ATOM     15  C   UNL     1      45.976   9.252  12.105  0.00  0.00    +0.000 C 
ATOM     16  C   UNL     1      47.081   8.208  12.382  0.00  0.00    +0.000 C 
ATOM     17  C   UNL     1      47.165   8.037  13.922  0.00  0.00    +0.000 C 
BRANCH  16  18
ATOM     18  C   UNL     1      48.472   8.627  11.866  0.00  0.00    +0.000 A 
ATOM     19  C   UNL     1      48.798   9.960  11.558  0.00  0.00    +0.000 A 
ATOM     20  C   UNL     1      50.085  10.315  11.137  0.00  0.00    +0.000 A 
ATOM     21  C   UNL     1      51.070   9.340  11.015  0.00  0.00    +0.000 A 
ATOM     22 CL   UNL     1      52.655   9.784  10.517  0.00  0.00    +0.000 Cl
ATOM     23  C   UNL     1      50.775   8.012  11.295  0.00  0.00    +0.000 A 
ATOM     24  C   UNL     1      49.488   7.659  11.713  0.00  0.00    +0.000 A 
ENDBRANCH  16  18
ENDBRANCH   1  16
TORSDOF 4
ENDMDL
MODEL 4
REMARK VINA RESULT:    -7.275      1.979      3.107
REMARK INTER + INTRA:          -9.823
REMARK INTER:                  -8.961
REMARK INTRA:                  -0.862
REMARK UNBOUND:                -0.847
REMARK  Name = 
REMARK  6 active torsions:
REMARK  status: ('A' for Active; 'I' for Inactive)
REMARK    1  A    between atoms: C_1  and  C_2
REMARK    2  A    between atoms: C_2  and  C_3
REMARK    3  A    between atoms: C_2  and  C_4
REMARK    4  A    between atoms: C_2  and  C_18
REMARK    5  A    between atoms: C_5  and  C_6
REMARK    6  A    between atoms: C_8  and  C_9
REMARK                            x       y       z     vdW  Elec       q    Type
REMARK                         _______ _______ _______ _____ _____    ______ ____
ROOT
ATOM      1  C   UNL     1      45.273   4.764  13.684  0.00  0.00    +0.000 C 
ATOM      2  C   UNL     1      46.600   4.817  13.911  0.00  0.00    +0.000 C 
ENDROOT
BRANCH   2   3
ATOM      3  C   UNL     1      47.229   4.174  15.076  0.00  0.00    +0.000 A 
ATOM      4  C   UNL     1      47.308   4.840  16.298  0.00  0.00    +0.000 A 
ATOM      5  C   UNL     1      47.912   4.213  17.402  0.00  0.00    +0.000 A 
ATOM      6  C   UNL     1      48.411   2.919  17.202  0.00  0.00    +0.000 A 
ATOM      7  C   UNL     1      48.301   2.330  15.955  0.00  0.00    +0.000 A 
ATOM      8  N   UNL     1      47.723   2.928  14.899  0.00  0.00    +0.000 NA
BRANCH   5   9
ATOM      9  C   UNL     1      48.019   4.884  18.715  0.00  0.00    +0.000 A 
ATOM     10  C   UNL     1      48.724   4.327  19.792  0.00  0.00    +0.000 A 
ATOM     11  C   UNL     1      48.809   4.995  21.014  0.00  0.00    +0.000 A 
ATOM     12  C   UNL     1      48.187   6.224  21.136  0.00  0.00    +0.000 A 
ATOM     13  N   UNL     1      47.495   6.808  20.139  0.00  0.00    +0.000 NA
ATOM     14  C   UNL     1      47.425   6.126  18.969  0.00  0.00    +0.000 A 
ENDBRANCH   5   9
ENDBRANCH   2   3
BRANCH   1  16
ATOM     15  C   UNL     1      43.001   5.222  12.873  0.00  0.00    +0.000 C 
ATOM     16  C   UNL     1      44.498   5.361  12.515  0.00  0.00    +0.000 C 
ATOM     17  C   UNL     1      44.810   6.880  12.465  0.00  0.00    +0.000 C 
BRANCH  16  18
ATOM     18  C   UNL     1      44.868   4.747  11.151  0.00  0.00    +0.000 A 
ATOM     19  C   UNL     1      44.528   3.430  10.793  0.00  0.00    +0.000 A 
ATOM     20  C   UNL     1      44.836   2.918   9.527  0.00  0.00    +0.000 A 
ATOM     21  C   UNL     1      45.494   3.714   8.596  0.00  0.00    +0.000 A 
ATOM     22 CL   UNL     1      45.853   3.087   7.035  0.00  0.00    +0.000 Cl
ATOM     23  C   UNL     1      45.859   5.014   8.924  0.00  0.00    +0.000 A 
ATOM     24  C   UNL     1      45.552   5.524  10.190  0.00  0.00    +0.000 A 
ENDBRANCH  16  18
ENDBRANCH   1  16
TORSDOF 4
ENDMDL
MODEL 5
REMARK VINA RESULT:    -7.056      3.918      8.400
REMARK INTER + INTRA:          -9.552
REMARK INTER:                  -8.757
REMARK INTRA:                  -0.795
REMARK UNBOUND:                -0.847
REMARK  Name = 
REMARK  6 active torsions:
REMARK  status: ('A' for Active; 'I' for Inactive)
REMARK    1  A    between atoms: C_1  and  C_2
REMARK    2  A    between atoms: C_2  and  C_3
REMARK    3  A    between atoms: C_2  and  C_4
REMARK    4  A    between atoms: C_2  and  C_18
REMARK    5  A    between atoms: C_5  and  C_6
REMARK    6  A    between atoms: C_8  and  C_9
REMARK                            x       y       z     vdW  Elec       q    Type
REMARK                         _______ _______ _______ _____ _____    ______ ____
ROOT
ATOM      1  C   UNL     1      46.937   7.157  12.145  0.00  0.00    +0.000 C 
ATOM      2  C   UNL     1      45.781   7.209  11.455  0.00  0.00    +0.000 C 
ENDROOT
BRANCH   2   3
ATOM      3  C   UNL     1      45.110   6.003  10.944  0.00  0.00    +0.000 A 
ATOM      4  C   UNL     1      45.741   5.179  10.014  0.00  0.00    +0.000 A 
ATOM      5  C   UNL     1      45.087   4.031   9.535  0.00  0.00    +0.000 A 
ATOM      6  C   UNL     1      43.804   3.774  10.037  0.00  0.00    +0.000 A 
ATOM      7  C   UNL     1      43.244   4.646  10.954  0.00  0.00    +0.000 A 
ATOM      8  N   UNL     1      43.868   5.744  11.413  0.00  0.00    +0.000 NA
BRANCH   5   9
ATOM      9  C   UNL     1      45.719   3.131   8.545  0.00  0.00    +0.000 A 
ATOM     10  C   UNL     1      46.266   3.598   7.342  0.00  0.00    +0.000 A 
ATOM     11  C   UNL     1      46.861   2.717   6.437  0.00  0.00    +0.000 A 
ATOM     12  C   UNL     1      46.905   1.373   6.760  0.00  0.00    +0.000 A 
ATOM     13  N   UNL     1      46.396   0.867   7.899  0.00  0.00    +0.000 NA
ATOM     14  C   UNL     1      45.817   1.749   8.750  0.00  0.00    +0.000 A 
ENDBRANCH   5   9
ENDBRANCH   2   3
BRANCH   1  16
ATOM     15  C   UNL     1      48.892   8.596  11.777  0.00  0.00    +0.000 C 
ATOM     16  C   UNL     1      47.723   8.317  12.747  0.00  0.00    +0.000 C 
ATOM     17  C   UNL     1      46.808   9.570  12.724  0.00  0.00    +0.000 C 
BRANCH  16  18
ATOM     18  C   UNL     1      48.169   8.071  14.202  0.00  0.00    +0.000 A 
ATOM     19  C   UNL     1      48.161   9.082  15.180  0.00  0.00    +0.000 A 
ATOM     20  C   UNL     1      48.528   8.815  16.504  0.00  0.00    +0.000 A 
ATOM     21  C   UNL     1      48.912   7.531  16.874  0.00  0.00    +0.000 A 
ATOM     22 CL   UNL     1      49.342   7.203  18.506  0.00  0.00    +0.000 Cl
ATOM     23  C   UNL     1      48.947   6.513  15.927  0.00  0.00    +0.000 A 
ATOM     24  C   UNL     1      48.583   6.783  14.604  0.00  0.00    +0.000 A 
ENDBRANCH  16  18
ENDBRANCH   1  16
TORSDOF 4
ENDMDL
MODEL 6
REMARK VINA RESULT:    -6.673      3.287      5.090
REMARK INTER + INTRA:          -9.080
REMARK INTER:                  -8.268
REMARK INTRA:                  -0.813
REMARK UNBOUND:                -0.847
REMARK  Name = 
REMARK  6 active torsions:
REMARK  status: ('A' for Active; 'I' for Inactive)
REMARK    1  A    between atoms: C_1  and  C_2
REMARK    2  A    between atoms: C_2  and  C_3
REMARK    3  A    between atoms: C_2  and  C_4
REMARK    4  A    between atoms: C_2  and  C_18
REMARK    5  A    between atoms: C_5  and  C_6
REMARK    6  A    between atoms: C_8  and  C_9
REMARK                            x       y       z     vdW  Elec       q    Type
REMARK                         _______ _______ _______ _____ _____    ______ ____
ROOT
ATOM      1  C   UNL     1      45.627   5.843  11.249  0.00  0.00    +0.000 C 
ATOM      2  C   UNL     1      46.625   5.943  12.149  0.00  0.00    +0.000 C 
ENDROOT
BRANCH   2   3
ATOM      3  C   UNL     1      47.312   7.215  12.431  0.00  0.00    +0.000 A 
ATOM      4  C   UNL     1      48.474   7.561  11.744  0.00  0.00    +0.000 A 
ATOM      5  C   UNL     1      49.119   8.778  12.024  0.00  0.00    +0.000 A 
ATOM      6  C   UNL     1      48.536   9.595  13.003  0.00  0.00    +0.000 A 
ATOM      7  C   UNL     1      47.384   9.175  13.644  0.00  0.00    +0.000 A 
ATOM      8  N   UNL     1      46.767   8.012  13.377  0.00  0.00    +0.000 NA
BRANCH   5   9
ATOM      9  C   UNL     1      50.356   9.184  11.322  0.00  0.00    +0.000 A 
ATOM     10  C   UNL     1      51.373   8.275  10.999  0.00  0.00    +0.000 A 
ATOM     11  C   UNL     1      52.523   8.695  10.329  0.00  0.00    +0.000 A 
ATOM     12  C   UNL     1      52.630  10.030   9.982  0.00  0.00    +0.000 A 
ATOM     13  N   UNL     1      51.687  10.949  10.266  0.00  0.00    +0.000 NA
ATOM     14  C   UNL     1      50.589  10.507  10.927  0.00  0.00    +0.000 A 
ENDBRANCH   5   9
ENDBRANCH   2   3
BRANCH   1  16
ATOM     15  C   UNL     1      44.795   3.712  12.140  0.00  0.00    +0.000 C 
ATOM     16  C   UNL     1      44.821   4.604  10.879  0.00  0.00    +0.000 C 
ATOM     17  C   UNL     1      43.359   5.052  10.613  0.00  0.00    +0.000 C 
BRANCH  16  18
ATOM     18  C   UNL     1      45.341   3.882   9.620  0.00  0.00    +0.000 A 
ATOM     19  C   UNL     1      45.914   4.567   8.533  0.00  0.00    +0.000 A 
ATOM     20  C   UNL     1      46.420   3.878   7.425  0.00  0.00    +0.000 A 
ATOM     21  C   UNL     1      46.361   2.489   7.383  0.00  0.00    +0.000 A 
ATOM     22 CL   UNL     1      47.003   1.646   6.029  0.00  0.00    +0.000 Cl
ATOM     23  C   UNL     1      45.786   1.783   8.433  0.00  0.00    +0.000 A 
ATOM     24  C   UNL     1      45.278   2.474   9.538  0.00  0.00    +0.000 A 
ENDBRANCH  16  18
ENDBRANCH   1  16
TORSDOF 4
ENDMDL
MODEL 7
REMARK VINA RESULT:    -6.669      1.957      2.575
REMARK INTER + INTRA:          -9.076
REMARK INTER:                  -8.318
REMARK INTRA:                  -0.758
REMARK UNBOUND:                -0.847
REMARK  Name = 
REMARK  6 active torsions:
REMARK  status: ('A' for Active; 'I' for Inactive)
REMARK    1  A    between atoms: C_1  and  C_2
REMARK    2  A    between atoms: C_2  and  C_3
REMARK    3  A    between atoms: C_2  and  C_4
REMARK    4  A    between atoms: C_2  and  C_18
REMARK    5  A    between atoms: C_5  and  C_6
REMARK    6  A    between atoms: C_8  and  C_9
REMARK                            x       y       z     vdW  Elec       q    Type
REMARK                         _______ _______ _______ _____ _____    ______ ____
ROOT
ATOM      1  C   UNL     1      45.343   5.392  11.725  0.00  0.00    +0.000 C 
ATOM      2  C   UNL     1      46.149   5.258  12.796  0.00  0.00    +0.000 C 
ENDROOT
BRANCH   2   3
ATOM      3  C   UNL     1      46.884   6.392  13.380  0.00  0.00    +0.000 A 
ATOM      4  C   UNL     1      48.044   6.179  14.121  0.00  0.00    +0.000 A 
ATOM      5  C   UNL     1      48.735   7.272  14.673  0.00  0.00    +0.000 A 
ATOM      6  C   UNL     1      48.201   8.547  14.436  0.00  0.00    +0.000 A 
ATOM      7  C   UNL     1      47.039   8.671  13.695  0.00  0.00    +0.000 A 
ATOM      8  N   UNL     1      46.378   7.627  13.166  0.00  0.00    +0.000 NA
BRANCH   5   9
ATOM      9  C   UNL     1      49.968   7.093  15.469  0.00  0.00    +0.000 A 
ATOM     10  C   UNL     1      50.008   6.313  16.634  0.00  0.00    +0.000 A 
ATOM     11  C   UNL     1      51.195   6.162  17.353  0.00  0.00    +0.000 A 
ATOM     12  C   UNL     1      52.333   6.793  16.885  0.00  0.00    +0.000 A 
ATOM     13  N   UNL     1      52.355   7.554  15.774  0.00  0.00    +0.000 NA
ATOM     14  C   UNL     1      51.183   7.688  15.106  0.00  0.00    +0.000 A 
ENDBRANCH   5   9
ENDBRANCH   2   3
BRANCH   1  16
ATOM     15  C   UNL     1      44.220   3.242  12.110  0.00  0.00    +0.000 C 
ATOM     16  C   UNL     1      44.512   4.315  11.036  0.00  0.00    +0.000 C 
ATOM     17  C   UNL     1      43.148   4.945  10.647  0.00  0.00    +0.000 C 
BRANCH  16  18
ATOM     18  C   UNL     1      45.166   3.752   9.759  0.00  0.00    +0.000 A 
ATOM     19  C   UNL     1      45.218   2.375   9.476  0.00  0.00    +0.000 A 
ATOM     20  C   UNL     1      45.777   1.899   8.284  0.00  0.00    +0.000 A 
ATOM     21  C   UNL     1      46.295   2.793   7.354  0.00  0.00    +0.000 A 
ATOM     22 CL   UNL     1      46.962   2.204   5.881  0.00  0.00    +0.000 Cl
ATOM     23  C   UNL     1      46.274   4.158   7.611  0.00  0.00    +0.000 A 
ATOM     24  C   UNL     1      45.718   4.632   8.803  0.00  0.00    +0.000 A 
ENDBRANCH  16  18
ENDBRANCH   1  16
TORSDOF 4
ENDMDL
MODEL 8
REMARK VINA RESULT:    -6.653      3.523      8.015
REMARK INTER + INTRA:          -9.056
REMARK INTER:                  -8.164
REMARK INTRA:                  -0.891
REMARK UNBOUND:                -0.847
REMARK  Name = 
REMARK  6 active torsions:
REMARK  status: ('A' for Active; 'I' for Inactive)
REMARK    1  A    between atoms: C_1  and  C_2
REMARK    2  A    between atoms: C_2  and  C_3
REMARK    3  A    between atoms: C_2  and  C_4
REMARK    4  A    between atoms: C_2  and  C_18
REMARK    5  A    between atoms: C_5  and  C_6
REMARK    6  A    between atoms: C_8  and  C_9
REMARK                            x       y       z     vdW  Elec       q    Type
REMARK                         _______ _______ _______ _____ _____    ______ ____
ROOT
ATOM      1  C   UNL     1      48.616   5.596  16.303  0.00  0.00    +0.000 C 
ATOM      2  C   UNL     1      48.964   6.535  15.402  0.00  0.00    +0.000 C 
ENDROOT
BRANCH   2   3
ATOM      3  C   UNL     1      48.265   6.697  14.117  0.00  0.00    +0.000 A 
ATOM      4  C   UNL     1      47.222   5.842  13.763  0.00  0.00    +0.000 A 
ATOM      5  C   UNL     1      46.564   6.009  12.532  0.00  0.00    +0.000 A 
ATOM      6  C   UNL     1      47.007   7.056  11.712  0.00  0.00    +0.000 A 
ATOM      7  C   UNL     1      48.054   7.856  12.134  0.00  0.00    +0.000 A 
ATOM      8  N   UNL     1      48.684   7.698  13.310  0.00  0.00    +0.000 NA
BRANCH   5   9
ATOM      9  C   UNL     1      45.455   5.123  12.116  0.00  0.00    +0.000 A 
ATOM     10  C   UNL     1      44.878   5.186  10.840  0.00  0.00    +0.000 A 
ATOM     11  C   UNL     1      43.837   4.327  10.482  0.00  0.00    +0.000 A 
ATOM     12  C   UNL     1      43.395   3.406  11.414  0.00  0.00    +0.000 A 
ATOM     13  N   UNL     1      43.909   3.300  12.654  0.00  0.00    +0.000 NA
ATOM     14  C   UNL     1      44.911   4.157  12.971  0.00  0.00    +0.000 A 
ENDBRANCH   5   9
ENDBRANCH   2   3
BRANCH   1  16
ATOM     15  C   UNL     1      49.894   6.661  18.108  0.00  0.00    +0.000 C 
ATOM     16  C   UNL     1      49.234   5.334  17.671  0.00  0.00    +0.000 C 
ATOM     17  C   UNL     1      48.078   5.056  18.668  0.00  0.00    +0.000 C 
BRANCH  16  18
ATOM     18  C   UNL     1      50.193   4.128  17.695  0.00  0.00    +0.000 A 
ATOM     19  C   UNL     1      49.796   2.834  17.311  0.00  0.00    +0.000 A 
ATOM     20  C   UNL     1      50.704   1.769  17.299  0.00  0.00    +0.000 A 
ATOM     21  C   UNL     1      52.027   1.979  17.673  0.00  0.00    +0.000 A 
ATOM     22 CL   UNL     1      53.144   0.671  17.636  0.00  0.00    +0.000 Cl
ATOM     23  C   UNL     1      52.447   3.241  18.074  0.00  0.00    +0.000 A 
ATOM     24  C   UNL     1      51.538   4.304  18.088  0.00  0.00    +0.000 A 
ENDBRANCH  16  18
ENDBRANCH   1  16
TORSDOF 4
ENDMDL
MODEL 9
REMARK VINA RESULT:    -6.506      4.029      8.053
REMARK INTER + INTRA:          -8.874
REMARK INTER:                  -8.024
REMARK INTRA:                  -0.850
REMARK UNBOUND:                -0.847
REMARK  Name = 
REMARK  6 active torsions:
REMARK  status: ('A' for Active; 'I' for Inactive)
REMARK    1  A    between atoms: C_1  and  C_2
REMARK    2  A    between atoms: C_2  and  C_3
REMARK    3  A    between atoms: C_2  and  C_4
REMARK    4  A    between atoms: C_2  and  C_18
REMARK    5  A    between atoms: C_5  and  C_6
REMARK    6  A    between atoms: C_8  and  C_9
REMARK                            x       y       z     vdW  Elec       q    Type
REMARK                         _______ _______ _______ _____ _____    ______ ____
ROOT
ATOM      1  C   UNL     1      47.890   4.732  16.184  0.00  0.00    +0.000 C 
ATOM      2  C   UNL     1      47.110   4.266  15.189  0.00  0.00    +0.000 C 
ENDROOT
BRANCH   2   3
ATOM      3  C   UNL     1      46.894   5.011  13.937  0.00  0.00    +0.000 A 
ATOM      4  C   UNL     1      47.721   6.080  13.596  0.00  0.00    +0.000 A 
ATOM      5  C   UNL     1      47.503   6.781  12.398  0.00  0.00    +0.000 A 
ATOM      6  C   UNL     1      46.438   6.350  11.594  0.00  0.00    +0.000 A 
ATOM      7  C   UNL     1      45.659   5.285  12.009  0.00  0.00    +0.000 A 
ATOM      8  N   UNL     1      45.867   4.613  13.154  0.00  0.00    +0.000 NA
BRANCH   5   9
ATOM      9  C   UNL     1      48.353   7.923  11.998  0.00  0.00    +0.000 A 
ATOM     10  C   UNL     1      47.867   9.236  11.920  0.00  0.00    +0.000 A 
ATOM     11  C   UNL     1      48.704  10.288  11.546  0.00  0.00    +0.000 A 
ATOM     12  C   UNL     1      50.028  10.006  11.263  0.00  0.00    +0.000 A 
ATOM     13  N   UNL     1      50.551   8.767  11.319  0.00  0.00    +0.000 NA
ATOM     14  C   UNL     1      49.707   7.767  11.676  0.00  0.00    +0.000 A 
ENDBRANCH   5   9
ENDBRANCH   2   3
BRANCH   1  16
ATOM     15  C   UNL     1      47.899   5.099  18.611  0.00  0.00    +0.000 C 
ATOM     16  C   UNL     1      48.215   4.059  17.513  0.00  0.00    +0.000 C 
ATOM     17  C   UNL     1      47.221   2.883  17.704  0.00  0.00    +0.000 C 
BRANCH  16  18
ATOM     18  C   UNL     1      49.648   3.497  17.586  0.00  0.00    +0.000 A 
ATOM     19  C   UNL     1      50.729   4.237  18.098  0.00  0.00    +0.000 A 
ATOM     20  C   UNL     1      52.010   3.681  18.196  0.00  0.00    +0.000 A 
ATOM     21  C   UNL     1      52.233   2.373  17.779  0.00  0.00    +0.000 A 
ATOM     22 CL   UNL     1      53.804   1.686  17.919  0.00  0.00    +0.000 Cl
ATOM     23  C   UNL     1      51.190   1.621  17.252  0.00  0.00    +0.000 A 
ATOM     24  C   UNL     1      49.912   2.179  17.153  0.00  0.00    +0.000 A 
ENDBRANCH  16  18
ENDBRANCH   1  16
TORSDOF 4
ENDMDL
