MODEL 1
REMARK VINA RESULT:    -8.244      0.000      0.000
REMARK INTER + INTRA:         -12.441
REMARK INTER:                 -11.618
REMARK INTRA:                  -0.823
REMARK UNBOUND:                -0.823
REMARK  Name = 
REMARK  7 active torsions:
REMARK  status: ('A' for Active; 'I' for Inactive)
REMARK    1  A    between atoms: C_2  and  C_19
REMARK    2  A    between atoms: N_3  and  C_4
REMARK    3  A    between atoms: C_4  and  C_5
REMARK    4  A    between atoms: C_8  and  C_9
REMARK    5  A    between atoms: C_9  and  N_10
REMARK    6  A    between atoms: N_10  and  C_11
REMARK    7  A    between atoms: C_11  and  C_12
REMARK                            x       y       z     vdW  Elec       q    Type
REMARK                         _______ _______ _______ _____ _____    ______ ____
ROOT
ATOM      1  C   UNL     1      46.949   8.052  12.923  0.00  0.00    +0.000 C 
ENDROOT
BRANCH   1   2
ATOM      2  C   UNL     1      46.076   7.005  12.282  0.00  0.00    +0.000 A 
ATOM      3  C   UNL     1      46.384   6.529  11.002  0.00  0.00    +0.000 A 
ATOM      4  C   UNL     1      45.620   5.518  10.419  0.00  0.00    +0.000 A 
ATOM      5  C   UNL     1      44.536   4.947  11.102  0.00  0.00    +0.000 A 
ATOM      6  C   UNL     1      44.198   5.463  12.361  0.00  0.00    +0.000 A 
ATOM      7  C   UNL     1      44.956   6.486  12.943  0.00  0.00    +0.000 A 
BRANCH   5   8
ATOM      8  C   UNL     1      43.699   3.844  10.484  0.00  0.00    +0.000 C 
BRANCH   8   9
ATOM      9  N   UNL     1      44.398   2.562  10.488  0.00  0.00    +0.000 NA
ATOM     10  H   UNL     1      43.882   1.912  11.083  0.00  0.00    +0.000 HD
BRANCH   9  11
ATOM     11  C   UNL     1      44.488   1.967   9.151  0.00  0.00    +0.000 C 
BRANCH  11  12
ATOM     12  C   UNL     1      45.920   2.156   8.618  0.00  0.00    +0.000 C 
ATOM     13  C   UNL     1      46.020   3.131   7.459  0.00  0.00    +0.000 C 
ATOM     14  C   UNL     1      47.377   2.790   6.870  0.00  0.00    +0.000 C 
ATOM     15  C   UNL     1      47.548   1.300   7.137  0.00  0.00    +0.000 C 
ATOM     16  N   UNL     1      46.473   0.912   8.051  0.00  0.00    +0.000 NA
ATOM     17  H   UNL     1      46.837   0.332   8.807  0.00  0.00    +0.000 HD
ENDBRANCH  11  12
ENDBRANCH   9  11
ENDBRANCH   8   9
ENDBRANCH   5   8
ENDBRANCH   1   2
BRANCH   1  20
ATOM     18  O   UNL     1      48.667   5.899  13.500  0.00  0.00    +0.000 OA
ATOM     19  C   UNL     1      48.266   6.604  14.422  0.00  0.00    +0.000 C 
ATOM     20  N   UNL     1      47.409   7.656  14.229  0.00  0.00    +0.000 N 
ATOM     21  H   UNL     1      47.236   8.308  14.986  0.00  0.00    +0.000 HD
BRANCH  19  22
ATOM     22  C   UNL     1      48.636   6.319  15.813  0.00  0.00    +0.000 A 
ATOM     23  C   UNL     1      49.277   7.295  16.570  0.00  0.00    +0.000 A 
ATOM     24  S   UNL     1      49.628   6.801  18.164  0.00  0.00    +0.000 S 
ATOM     25  C   UNL     1      48.905   5.281  17.910  0.00  0.00    +0.000 A 
ATOM     26  N   UNL     1      48.832   4.365  18.913  0.00  0.00    +0.000 NA
ATOM     27  C   UNL     1      48.218   3.272  18.597  0.00  0.00    +0.000 A 
ATOM     28  N   UNL     1      47.682   3.010  17.359  0.00  0.00    +0.000 N 
ATOM     29  C   UNL     1      47.818   3.867  16.293  0.00  0.00    +0.000 A 
ATOM     30  O   UNL     1      47.480   3.529  15.163  0.00  0.00    +0.000 OA
ATOM     31  C   UNL     1      48.437   5.138  16.616  0.00  0.00    +0.000 A 
ATOM     32  H   UNL     1      47.256   2.120  17.161  0.00  0.00    +0.000 HD
ENDBRANCH  19  22
ENDBRANCH   1  20
TORSDOF 7
ENDMDL
MODEL 2
REMARK VINA RESULT:    -8.056      1.428      1.769
REMARK INTER + INTRA:         -12.175
REMARK INTER:                 -11.227
REMARK INTRA:                  -0.948
REMARK UNBOUND:                -0.823
REMARK  Name = 
REMARK  7 active torsions:
REMARK  status: ('A' for Active; 'I' for Inactive)
REMARK    1  A    between atoms: C_2  and  C_19
REMARK    2  A    between atoms: N_3  and  C_4
REMARK    3  A    between atoms: C_4  and  C_5
REMARK    4  A    between atoms: C_8  and  C_9
REMARK    5  A    between atoms: C_9  and  N_10
REMARK    6  A    between atoms: N_10  and  C_11
REMARK    7  A    between atoms: C_11  and  C_12
REMARK                            x       y       z     vdW  Elec       q    Type
REMARK                         _______ _______ _______ _____ _____    ______ ____
ROOT
ATOM      1  C   UNL     1      48.143   6.579  13.379  0.00  0.00    +0.000 C 
ENDROOT
BRANCH   1   2
ATOM      2  C   UNL     1      47.019   5.806  12.741  0.00  0.00    +0.000 A 
ATOM      3  C   UNL     1      46.577   4.611  13.319  0.00  0.00    +0.000 A 
ATOM      4  C   UNL     1      45.499   3.915  12.774  0.00  0.00    +0.000 A 
ATOM      5  C   UNL     1      44.826   4.399  11.642  0.00  0.00    +0.000 A 
ATOM      6  C   UNL     1      45.304   5.568  11.034  0.00  0.00    +0.000 A 
ATOM      7  C   UNL     1      46.393   6.261  11.573  0.00  0.00    +0.000 A 
BRANCH   5   8
ATOM      8  C   UNL     1      43.649   3.656  11.040  0.00  0.00    +0.000 C 
BRANCH   8   9
ATOM      9  N   UNL     1      43.846   3.386   9.617  0.00  0.00    +0.000 NA
ATOM     10  H   UNL     1      44.483   4.089   9.238  0.00  0.00    +0.000 HD
BRANCH   9  11
ATOM     11  C   UNL     1      44.440   2.068   9.373  0.00  0.00    +0.000 C 
BRANCH  11  12
ATOM     12  C   UNL     1      45.833   2.259   8.745  0.00  0.00    +0.000 C 
ATOM     13  C   UNL     1      45.856   3.244   7.591  0.00  0.00    +0.000 C 
ATOM     14  C   UNL     1      47.168   2.905   6.907  0.00  0.00    +0.000 C 
ATOM     15  C   UNL     1      47.353   1.412   7.149  0.00  0.00    +0.000 C 
ATOM     16  N   UNL     1      46.342   1.018   8.131  0.00  0.00    +0.000 NA
ATOM     17  H   UNL     1      46.755   0.431   8.856  0.00  0.00    +0.000 HD
ENDBRANCH  11  12
ENDBRANCH   9  11
ENDBRANCH   8   9
ENDBRANCH   5   8
ENDBRANCH   1   2
BRANCH   1  20
ATOM     18  O   UNL     1      50.249   6.781  15.235  0.00  0.00    +0.000 OA
ATOM     19  C   UNL     1      49.092   6.775  15.646  0.00  0.00    +0.000 C 
ATOM     20  N   UNL     1      48.011   6.655  14.812  0.00  0.00    +0.000 N 
ATOM     21  H   UNL     1      47.077   6.820  15.171  0.00  0.00    +0.000 HD
BRANCH  19  22
ATOM     22  C   UNL     1      48.795   6.831  17.082  0.00  0.00    +0.000 A 
ATOM     23  C   UNL     1      48.350   8.022  17.648  0.00  0.00    +0.000 A 
ATOM     24  S   UNL     1      48.047   7.910  19.322  0.00  0.00    +0.000 S 
ATOM     25  C   UNL     1      48.465   6.260  19.343  0.00  0.00    +0.000 A 
ATOM     26  N   UNL     1      48.386   5.534  20.490  0.00  0.00    +0.000 NA
ATOM     27  C   UNL     1      48.688   4.283  20.355  0.00  0.00    +0.000 A 
ATOM     28  N   UNL     1      49.077   3.700  19.172  0.00  0.00    +0.000 N 
ATOM     29  C   UNL     1      49.262   4.418  18.015  0.00  0.00    +0.000 A 
ATOM     30  O   UNL     1      49.773   3.902  17.025  0.00  0.00    +0.000 OA
ATOM     31  C   UNL     1      48.867   5.811  18.098  0.00  0.00    +0.000 A 
ATOM     32  H   UNL     1      49.344   2.731  19.140  0.00  0.00    +0.000 HD
ENDBRANCH  19  22
ENDBRANCH   1  20
TORSDOF 7
ENDMDL
MODEL 3
REMARK VINA RESULT:    -7.797      2.160      2.733
REMARK INTER + INTRA:         -11.810
REMARK INTER:                 -10.840
REMARK INTRA:                  -0.971
REMARK UNBOUND:                -0.823
REMARK  Name = 
REMARK  7 active torsions:
REMARK  status: ('A' for Active; 'I' for Inactive)
REMARK    1  A    between atoms: C_2  and  C_19
REMARK    2  A    between atoms: N_3  and  C_4
REMARK    3  A    between atoms: C_4  and  C_5
REMARK    4  A    between atoms: C_8  and  C_9
REMARK    5  A    between atoms: C_9  and  N_10
REMARK    6  A    between atoms: N_10  and  C_11
REMARK    7  A    between atoms: C_11  and  C_12
REMARK                            x       y       z     vdW  Elec       q    Type
REMARK                         _______ _______ _______ _____ _____    ______ ____
ROOT
ATOM      1  C   UNL     1      48.074   6.848  13.698  0.00  0.00    +0.000 C 
ENDROOT
BRANCH   1   2
ATOM      2  C   UNL     1      47.006   6.119  12.925  0.00  0.00    +0.000 A 
ATOM      3  C   UNL     1      46.659   6.548  11.640  0.00  0.00    +0.000 A 
ATOM      4  C   UNL     1      45.715   5.847  10.888  0.00  0.00    +0.000 A 
ATOM      5  C   UNL     1      45.101   4.693  11.396  0.00  0.00    +0.000 A 
ATOM      6  C   UNL     1      45.411   4.296  12.705  0.00  0.00    +0.000 A 
ATOM      7  C   UNL     1      46.349   5.004  13.464  0.00  0.00    +0.000 A 
BRANCH   5   8
ATOM      8  C   UNL     1      44.076   3.919  10.591  0.00  0.00    +0.000 C 
BRANCH   8   9
ATOM      9  N   UNL     1      44.421   2.503  10.489  0.00  0.00    +0.000 NA
ATOM     10  H   UNL     1      43.701   1.957  10.964  0.00  0.00    +0.000 HD
BRANCH   9  11
ATOM     11  C   UNL     1      44.485   2.040   9.098  0.00  0.00    +0.000 C 
BRANCH  11  12
ATOM     12  C   UNL     1      45.932   2.186   8.593  0.00  0.00    +0.000 C 
ATOM     13  C   UNL     1      46.086   3.171   7.449  0.00  0.00    +0.000 C 
ATOM     14  C   UNL     1      47.441   2.791   6.879  0.00  0.00    +0.000 C 
ATOM     15  C   UNL     1      47.556   1.292   7.129  0.00  0.00    +0.000 C 
ATOM     16  N   UNL     1      46.452   0.930   8.019  0.00  0.00    +0.000 NA
ATOM     17  H   UNL     1      46.782   0.329   8.774  0.00  0.00    +0.000 HD
ENDBRANCH  11  12
ENDBRANCH   9  11
ENDBRANCH   8   9
ENDBRANCH   5   8
ENDBRANCH   1   2
BRANCH   1  20
ATOM     18  O   UNL     1      50.170   6.463  15.535  0.00  0.00    +0.000 OA
ATOM     19  C   UNL     1      49.016   6.511  15.951  0.00  0.00    +0.000 C 
ATOM     20  N   UNL     1      47.937   6.672  15.121  0.00  0.00    +0.000 N 
ATOM     21  H   UNL     1      47.024   6.872  15.515  0.00  0.00    +0.000 HD
BRANCH  19  22
ATOM     22  C   UNL     1      48.713   6.334  17.376  0.00  0.00    +0.000 A 
ATOM     23  C   UNL     1      48.918   5.095  17.975  0.00  0.00    +0.000 A 
ATOM     24  S   UNL     1      48.522   5.066  19.633  0.00  0.00    +0.000 S 
ATOM     25  C   UNL     1      48.097   6.714  19.616  0.00  0.00    +0.000 A 
ATOM     26  N   UNL     1      47.695   7.344  20.753  0.00  0.00    +0.000 NA
ATOM     27  C   UNL     1      47.447   8.606  20.608  0.00  0.00    +0.000 A 
ATOM     28  N   UNL     1      47.553   9.288  19.420  0.00  0.00    +0.000 N 
ATOM     29  C   UNL     1      47.863   8.670  18.232  0.00  0.00    +0.000 A 
ATOM     30  O   UNL     1      47.781   9.272  17.165  0.00  0.00    +0.000 OA
ATOM     31  C   UNL     1      48.219   7.269  18.355  0.00  0.00    +0.000 A 
ATOM     32  H   UNL     1      47.301  10.261  19.361  0.00  0.00    +0.000 HD
ENDBRANCH  19  22
ENDBRANCH   1  20
TORSDOF 7
ENDMDL
MODEL 4
REMARK VINA RESULT:    -7.416      2.041      3.539
REMARK INTER + INTRA:         -11.273
REMARK INTER:                 -10.196
REMARK INTRA:                  -1.078
REMARK UNBOUND:                -0.823
REMARK  Name = 
REMARK  7 active torsions:
REMARK  status: ('A' for Active; 'I' for Inactive)
REMARK    1  A    between atoms: C_2  and  C_19
REMARK    2  A    between atoms: N_3  and  C_4
REMARK    3  A    between atoms: C_4  and  C_5
REMARK    4  A    between atoms: C_8  and  C_9
REMARK    5  A    between atoms: C_9  and  N_10
REMARK    6  A    between atoms: N_10  and  C_11
REMARK    7  A    between atoms: C_11  and  C_12
REMARK                            x       y       z     vdW  Elec       q    Type
REMARK                         _______ _______ _______ _____ _____    ______ ____
ROOT
ATOM      1  C   UNL     1      47.125   4.123  14.957  0.00  0.00    +0.000 C 
ENDROOT
BRANCH   1   2
ATOM      2  C   UNL     1      46.297   4.292  13.711  0.00  0.00    +0.000 A 
ATOM      3  C   UNL     1      45.975   3.176  12.931  0.00  0.00    +0.000 A 
ATOM      4  C   UNL     1      45.159   3.308  11.807  0.00  0.00    +0.000 A 
ATOM      5  C   UNL     1      44.634   4.555  11.438  0.00  0.00    +0.000 A 
ATOM      6  C   UNL     1      45.001   5.680  12.191  0.00  0.00    +0.000 A 
ATOM      7  C   UNL     1      45.829   5.551  13.312  0.00  0.00    +0.000 A 
BRANCH   5   8
ATOM      8  C   UNL     1      43.742   4.714  10.222  0.00  0.00    +0.000 C 
BRANCH   8   9
ATOM      9  N   UNL     1      44.150   3.834   9.130  0.00  0.00    +0.000 NA
ATOM     10  H   UNL     1      43.386   3.780   8.454  0.00  0.00    +0.000 HD
BRANCH   9  11
ATOM     11  C   UNL     1      45.336   4.328   8.424  0.00  0.00    +0.000 C 
BRANCH  11  12
ATOM     12  C   UNL     1      45.900   3.195   7.546  0.00  0.00    +0.000 C 
ATOM     13  C   UNL     1      46.085   1.882   8.284  0.00  0.00    +0.000 C 
ATOM     14  C   UNL     1      47.029   1.128   7.364  0.00  0.00    +0.000 C 
ATOM     15  C   UNL     1      47.880   2.213   6.715  0.00  0.00    +0.000 C 
ATOM     16  N   UNL     1      47.260   3.494   7.057  0.00  0.00    +0.000 NA
ATOM     17  H   UNL     1      47.195   4.092   6.233  0.00  0.00    +0.000 HD
ENDBRANCH  11  12
ENDBRANCH   9  11
ENDBRANCH   8   9
ENDBRANCH   5   8
ENDBRANCH   1   2
BRANCH   1  20
ATOM     18  O   UNL     1      49.282   4.636  16.691  0.00  0.00    +0.000 OA
ATOM     19  C   UNL     1      48.517   5.553  16.405  0.00  0.00    +0.000 C 
ATOM     20  N   UNL     1      47.430   5.382  15.588  0.00  0.00    +0.000 N 
ATOM     21  H   UNL     1      46.925   6.192  15.246  0.00  0.00    +0.000 HD
BRANCH  19  22
ATOM     22  C   UNL     1      48.688   6.893  16.979  0.00  0.00    +0.000 A 
ATOM     23  C   UNL     1      48.777   7.044  18.360  0.00  0.00    +0.000 A 
ATOM     24  S   UNL     1      48.979   8.663  18.856  0.00  0.00    +0.000 S 
ATOM     25  C   UNL     1      48.990   9.213  17.246  0.00  0.00    +0.000 A 
ATOM     26  N   UNL     1      49.169  10.530  16.958  0.00  0.00    +0.000 NA
ATOM     27  C   UNL     1      49.202  10.803  15.694  0.00  0.00    +0.000 A 
ATOM     28  N   UNL     1      49.057   9.873  14.692  0.00  0.00    +0.000 N 
ATOM     29  C   UNL     1      48.780   8.550  14.941  0.00  0.00    +0.000 A 
ATOM     30  O   UNL     1      48.487   7.783  14.029  0.00  0.00    +0.000 OA
ATOM     31  C   UNL     1      48.804   8.181  16.343  0.00  0.00    +0.000 A 
ATOM     32  H   UNL     1      49.046  10.154  13.727  0.00  0.00    +0.000 HD
ENDBRANCH  19  22
ENDBRANCH   1  20
TORSDOF 7
ENDMDL
MODEL 5
REMARK VINA RESULT:    -7.318      2.412      3.163
REMARK INTER + INTRA:         -11.136
REMARK INTER:                 -10.365
REMARK INTRA:                  -0.771
REMARK UNBOUND:                -0.823
REMARK  Name = 
REMARK  7 active torsions:
REMARK  status: ('A' for Active; 'I' for Inactive)
REMARK    1  A    between atoms: C_2  and  C_19
REMARK    2  A    between atoms: N_3  and  C_4
REMARK    3  A    between atoms: C_4  and  C_5
REMARK    4  A    between atoms: C_8  and  C_9
REMARK    5  A    between atoms: C_9  and  N_10
REMARK    6  A    between atoms: N_10  and  C_11
REMARK    7  A    between atoms: C_11  and  C_12
REMARK                            x       y       z     vdW  Elec       q    Type
REMARK                         _______ _______ _______ _____ _____    ______ ____
ROOT
ATOM      1  C   UNL     1      47.095   4.204  14.716  0.00  0.00    +0.000 C 
ENDROOT
BRANCH   1   2
ATOM      2  C   UNL     1      46.284   4.394  13.462  0.00  0.00    +0.000 A 
ATOM      3  C   UNL     1      45.704   3.288  12.832  0.00  0.00    +0.000 A 
ATOM      4  C   UNL     1      44.901   3.454  11.703  0.00  0.00    +0.000 A 
ATOM      5  C   UNL     1      44.646   4.730  11.181  0.00  0.00    +0.000 A 
ATOM      6  C   UNL     1      45.272   5.832  11.782  0.00  0.00    +0.000 A 
ATOM      7  C   UNL     1      46.087   5.666  12.907  0.00  0.00    +0.000 A 
BRANCH   5   8
ATOM      8  C   UNL     1      43.772   4.928   9.957  0.00  0.00    +0.000 C 
BRANCH   8   9
ATOM      9  N   UNL     1      44.197   4.086   8.842  0.00  0.00    +0.000 NA
ATOM     10  H   UNL     1      43.579   4.260   8.048  0.00  0.00    +0.000 HD
BRANCH   9  11
ATOM     11  C   UNL     1      45.569   4.374   8.412  0.00  0.00    +0.000 C 
BRANCH  11  12
ATOM     12  C   UNL     1      46.058   3.227   7.509  0.00  0.00    +0.000 C 
ATOM     13  C   UNL     1      46.220   1.903   8.233  0.00  0.00    +0.000 C 
ATOM     14  C   UNL     1      47.102   1.121   7.276  0.00  0.00    +0.000 C 
ATOM     15  C   UNL     1      47.970   2.177   6.603  0.00  0.00    +0.000 C 
ATOM     16  N   UNL     1      47.410   3.478   6.974  0.00  0.00    +0.000 NA
ATOM     17  H   UNL     1      47.339   4.083   6.156  0.00  0.00    +0.000 HD
ENDBRANCH  11  12
ENDBRANCH   9  11
ENDBRANCH   8   9
ENDBRANCH   5   8
ENDBRANCH   1   2
BRANCH   1  20
ATOM     18  O   UNL     1      48.989   4.515  16.775  0.00  0.00    +0.000 OA
ATOM     19  C   UNL     1      48.510   5.517  16.251  0.00  0.00    +0.000 C 
ATOM     20  N   UNL     1      47.566   5.453  15.259  0.00  0.00    +0.000 N 
ATOM     21  H   UNL     1      47.321   6.291  14.743  0.00  0.00    +0.000 HD
BRANCH  19  22
ATOM     22  C   UNL     1      48.879   6.862  16.705  0.00  0.00    +0.000 A 
ATOM     23  C   UNL     1      49.698   7.658  15.909  0.00  0.00    +0.000 A 
ATOM     24  S   UNL     1      50.022   9.190  16.582  0.00  0.00    +0.000 S 
ATOM     25  C   UNL     1      49.052   8.859  17.941  0.00  0.00    +0.000 A 
ATOM     26  N   UNL     1      48.868   9.792  18.913  0.00  0.00    +0.000 NA
ATOM     27  C   UNL     1      48.072   9.426  19.865  0.00  0.00    +0.000 A 
ATOM     28  N   UNL     1      47.455   8.199  19.935  0.00  0.00    +0.000 N 
ATOM     29  C   UNL     1      47.690   7.196  19.025  0.00  0.00    +0.000 A 
ATOM     30  O   UNL     1      47.261   6.061  19.210  0.00  0.00    +0.000 OA
ATOM     31  C   UNL     1      48.520   7.583  17.900  0.00  0.00    +0.000 A 
ATOM     32  H   UNL     1      46.883   7.956  20.726  0.00  0.00    +0.000 HD
ENDBRANCH  19  22
ENDBRANCH   1  20
TORSDOF 7
ENDMDL
MODEL 6
REMARK VINA RESULT:    -7.112      3.082      7.761
REMARK INTER + INTRA:         -10.845
REMARK INTER:                  -9.468
REMARK INTRA:                  -1.378
REMARK UNBOUND:                -0.823
REMARK  Name = 
REMARK  7 active torsions:
REMARK  status: ('A' for Active; 'I' for Inactive)
REMARK    1  A    between atoms: C_2  and  C_19
REMARK    2  A    between atoms: N_3  and  C_4
REMARK    3  A    between atoms: C_4  and  C_5
REMARK    4  A    between atoms: C_8  and  C_9
REMARK    5  A    between atoms: C_9  and  N_10
REMARK    6  A    between atoms: N_10  and  C_11
REMARK    7  A    between atoms: C_11  and  C_12
REMARK                            x       y       z     vdW  Elec       q    Type
REMARK                         _______ _______ _______ _____ _____    ______ ____
ROOT
ATOM      1  C   UNL     1      48.362   8.065  12.021  0.00  0.00    +0.000 C 
ENDROOT
BRANCH   1   2
ATOM      2  C   UNL     1      48.402   8.027  13.526  0.00  0.00    +0.000 A 
ATOM      3  C   UNL     1      48.760   6.847  14.185  0.00  0.00    +0.000 A 
ATOM      4  C   UNL     1      48.860   6.813  15.576  0.00  0.00    +0.000 A 
ATOM      5  C   UNL     1      48.615   7.960  16.346  0.00  0.00    +0.000 A 
ATOM      6  C   UNL     1      48.204   9.127  15.686  0.00  0.00    +0.000 A 
ATOM      7  C   UNL     1      48.093   9.159  14.292  0.00  0.00    +0.000 A 
BRANCH   5   8
ATOM      8  C   UNL     1      48.723   7.940  17.858  0.00  0.00    +0.000 C 
BRANCH   8   9
ATOM      9  N   UNL     1      47.694   7.101  18.467  0.00  0.00    +0.000 NA
ATOM     10  H   UNL     1      47.233   6.565  17.730  0.00  0.00    +0.000 HD
BRANCH   9  11
ATOM     11  C   UNL     1      48.248   6.146  19.432  0.00  0.00    +0.000 C 
BRANCH  11  12
ATOM     12  C   UNL     1      48.029   4.718  18.899  0.00  0.00    +0.000 C 
ATOM     13  C   UNL     1      49.206   4.170  18.112  0.00  0.00    +0.000 C 
ATOM     14  C   UNL     1      48.575   3.011  17.360  0.00  0.00    +0.000 C 
ATOM     15  C   UNL     1      47.135   3.447  17.121  0.00  0.00    +0.000 C 
ATOM     16  N   UNL     1      46.921   4.649  17.928  0.00  0.00    +0.000 NA
ATOM     17  H   UNL     1      46.037   4.590  18.433  0.00  0.00    +0.000 HD
ENDBRANCH  11  12
ENDBRANCH   9  11
ENDBRANCH   8   9
ENDBRANCH   5   8
ENDBRANCH   1   2
BRANCH   1  20
ATOM     18  O   UNL     1      45.561   7.919  11.790  0.00  0.00    +0.000 OA
ATOM     19  C   UNL     1      46.242   6.988  11.370  0.00  0.00    +0.000 C 
ATOM     20  N   UNL     1      47.609   6.970  11.465  0.00  0.00    +0.000 N 
ATOM     21  H   UNL     1      48.139   6.267  10.962  0.00  0.00    +0.000 HD
BRANCH  19  22
ATOM     22  C   UNL     1      45.620   5.793  10.789  0.00  0.00    +0.000 A 
ATOM     23  C   UNL     1      45.817   5.499   9.443  0.00  0.00    +0.000 A 
ATOM     24  S   UNL     1      45.029   4.074   8.935  0.00  0.00    +0.000 S 
ATOM     25  C   UNL     1      44.429   3.782  10.500  0.00  0.00    +0.000 A 
ATOM     26  N   UNL     1      43.686   2.675  10.769  0.00  0.00    +0.000 NA
ATOM     27  C   UNL     1      43.333   2.553  12.007  0.00  0.00    +0.000 A 
ATOM     28  N   UNL     1      43.647   3.453  12.998  0.00  0.00    +0.000 N 
ATOM     29  C   UNL     1      44.312   4.630  12.750  0.00  0.00    +0.000 A 
ATOM     30  O   UNL     1      44.425   5.488  13.621  0.00  0.00    +0.000 OA
ATOM     31  C   UNL     1      44.791   4.778  11.389  0.00  0.00    +0.000 A 
ATOM     32  H   UNL     1      43.303   3.327  13.935  0.00  0.00    +0.000 HD
ENDBRANCH  19  22
ENDBRANCH   1  20
TORSDOF 7
ENDMDL
MODEL 7
REMARK VINA RESULT:    -7.111      4.285      9.054
REMARK INTER + INTRA:         -10.844
REMARK INTER:                  -9.993
REMARK INTRA:                  -0.851
REMARK UNBOUND:                -0.823
REMARK  Name = 
REMARK  7 active torsions:
REMARK  status: ('A' for Active; 'I' for Inactive)
REMARK    1  A    between atoms: C_2  and  C_19
REMARK    2  A    between atoms: N_3  and  C_4
REMARK    3  A    between atoms: C_4  and  C_5
REMARK    4  A    between atoms: C_8  and  C_9
REMARK    5  A    between atoms: C_9  and  N_10
REMARK    6  A    between atoms: N_10  and  C_11
REMARK    7  A    between atoms: C_11  and  C_12
REMARK                            x       y       z     vdW  Elec       q    Type
REMARK                         _______ _______ _______ _____ _____    ______ ____
ROOT
ATOM      1  C   UNL     1      47.189   3.323  16.839  0.00  0.00    +0.000 C 
ENDROOT
BRANCH   1   2
ATOM      2  C   UNL     1      48.665   3.364  17.135  0.00  0.00    +0.000 A 
ATOM      3  C   UNL     1      49.262   4.562  17.541  0.00  0.00    +0.000 A 
ATOM      4  C   UNL     1      50.616   4.603  17.876  0.00  0.00    +0.000 A 
ATOM      5  C   UNL     1      51.407   3.446  17.825  0.00  0.00    +0.000 A 
ATOM      6  C   UNL     1      50.819   2.258  17.367  0.00  0.00    +0.000 A 
ATOM      7  C   UNL     1      49.464   2.219  17.019  0.00  0.00    +0.000 A 
BRANCH   5   8
ATOM      8  C   UNL     1      52.879   3.473  18.190  0.00  0.00    +0.000 C 
BRANCH   8   9
ATOM      9  N   UNL     1      53.270   2.294  18.959  0.00  0.00    +0.000 NA
ATOM     10  H   UNL     1      52.915   1.463  18.484  0.00  0.00    +0.000 HD
BRANCH   9  11
ATOM     11  C   UNL     1      54.726   2.156  19.070  0.00  0.00    +0.000 C 
BRANCH  11  12
ATOM     12  C   UNL     1      55.136   0.773  18.531  0.00  0.00    +0.000 C 
ATOM     13  C   UNL     1      54.647   0.494  17.122  0.00  0.00    +0.000 C 
ATOM     14  C   UNL     1      54.783  -1.015  17.029  0.00  0.00    +0.000 C 
ATOM     15  C   UNL     1      54.541  -1.511  18.449  0.00  0.00    +0.000 C 
ATOM     16  N   UNL     1      54.541  -0.328  19.311  0.00  0.00    +0.000 NA
ATOM     17  H   UNL     1      55.106  -0.492  20.145  0.00  0.00    +0.000 HD
ENDBRANCH  11  12
ENDBRANCH   9  11
ENDBRANCH   8   9
ENDBRANCH   5   8
ENDBRANCH   1   2
BRANCH   1  20
ATOM     18  O   UNL     1      47.320   3.081  14.038  0.00  0.00    +0.000 OA
ATOM     19  C   UNL     1      46.870   4.114  14.526  0.00  0.00    +0.000 C 
ATOM     20  N   UNL     1      46.795   4.321  15.878  0.00  0.00    +0.000 N 
ATOM     21  H   UNL     1      46.269   5.111  16.238  0.00  0.00    +0.000 HD
BRANCH  19  22
ATOM     22  C   UNL     1      46.440   5.231  13.677  0.00  0.00    +0.000 A 
ATOM     23  C   UNL     1      47.306   6.296  13.448  0.00  0.00    +0.000 A 
ATOM     24  S   UNL     1      46.650   7.502  12.437  0.00  0.00    +0.000 S 
ATOM     25  C   UNL     1      45.203   6.628  12.240  0.00  0.00    +0.000 A 
ATOM     26  N   UNL     1      44.205   7.097  11.443  0.00  0.00    +0.000 NA
ATOM     27  C   UNL     1      43.182   6.312  11.348  0.00  0.00    +0.000 A 
ATOM     28  N   UNL     1      43.064   5.104  11.993  0.00  0.00    +0.000 N 
ATOM     29  C   UNL     1      44.005   4.640  12.880  0.00  0.00    +0.000 A 
ATOM     30  O   UNL     1      43.791   3.646  13.567  0.00  0.00    +0.000 OA
ATOM     31  C   UNL     1      45.205   5.451  12.967  0.00  0.00    +0.000 A 
ATOM     32  H   UNL     1      42.222   4.559  11.915  0.00  0.00    +0.000 HD
ENDBRANCH  19  22
ENDBRANCH   1  20
TORSDOF 7
ENDMDL
MODEL 8
REMARK VINA RESULT:    -6.971      2.798      8.052
REMARK INTER + INTRA:         -10.646
REMARK INTER:                  -9.288
REMARK INTRA:                  -1.358
REMARK UNBOUND:                -0.823
REMARK  Name = 
REMARK  7 active torsions:
REMARK  status: ('A' for Active; 'I' for Inactive)
REMARK    1  A    between atoms: C_2  and  C_19
REMARK    2  A    between atoms: N_3  and  C_4
REMARK    3  A    between atoms: C_4  and  C_5
REMARK    4  A    between atoms: C_8  and  C_9
REMARK    5  A    between atoms: C_9  and  N_10
REMARK    6  A    between atoms: N_10  and  C_11
REMARK    7  A    between atoms: C_11  and  C_12
REMARK                            x       y       z     vdW  Elec       q    Type
REMARK                         _______ _______ _______ _____ _____    ______ ____
ROOT
ATOM      1  C   UNL     1      47.665   7.881  11.822  0.00  0.00    +0.000 C 
ENDROOT
BRANCH   1   2
ATOM      2  C   UNL     1      48.257   7.969  13.204  0.00  0.00    +0.000 A 
ATOM      3  C   UNL     1      47.666   8.796  14.165  0.00  0.00    +0.000 A 
ATOM      4  C   UNL     1      48.167   8.843  15.466  0.00  0.00    +0.000 A 
ATOM      5  C   UNL     1      49.265   8.057  15.845  0.00  0.00    +0.000 A 
ATOM      6  C   UNL     1      49.888   7.269  14.866  0.00  0.00    +0.000 A 
ATOM      7  C   UNL     1      49.394   7.230  13.558  0.00  0.00    +0.000 A 
BRANCH   5   8
ATOM      8  C   UNL     1      49.819   8.093  17.257  0.00  0.00    +0.000 C 
BRANCH   8   9
ATOM      9  N   UNL     1      49.642   6.817  17.944  0.00  0.00    +0.000 NA
ATOM     10  H   UNL     1      50.317   6.762  18.708  0.00  0.00    +0.000 HD
BRANCH   9  11
ATOM     11  C   UNL     1      48.302   6.671  18.521  0.00  0.00    +0.000 C 
BRANCH  11  12
ATOM     12  C   UNL     1      47.741   5.290  18.133  0.00  0.00    +0.000 C 
ATOM     13  C   UNL     1      48.712   4.147  18.365  0.00  0.00    +0.000 C 
ATOM     14  C   UNL     1      48.112   3.041  17.515  0.00  0.00    +0.000 C 
ATOM     15  C   UNL     1      47.448   3.767  16.352  0.00  0.00    +0.000 C 
ATOM     16  N   UNL     1      47.454   5.192  16.689  0.00  0.00    +0.000 NA
ATOM     17  H   UNL     1      46.542   5.609  16.500  0.00  0.00    +0.000 HD
ENDBRANCH  11  12
ENDBRANCH   9  11
ENDBRANCH   8   9
ENDBRANCH   5   8
ENDBRANCH   1   2
BRANCH   1  20
ATOM     18  O   UNL     1      44.882   7.532  12.044  0.00  0.00    +0.000 OA
ATOM     19  C   UNL     1      45.577   6.574  11.720  0.00  0.00    +0.000 C 
ATOM     20  N   UNL     1      46.941   6.653  11.613  0.00  0.00    +0.000 N 
ATOM     21  H   UNL     1      47.457   5.892  11.186  0.00  0.00    +0.000 HD
BRANCH  19  22
ATOM     22  C   UNL     1      44.987   5.251  11.487  0.00  0.00    +0.000 A 
ATOM     23  C   UNL     1      44.280   4.622  12.507  0.00  0.00    +0.000 A 
ATOM     24  S   UNL     1      43.658   3.097  12.065  0.00  0.00    +0.000 S 
ATOM     25  C   UNL     1      44.281   3.239  10.488  0.00  0.00    +0.000 A 
ATOM     26  N   UNL     1      44.067   2.266   9.561  0.00  0.00    +0.000 NA
ATOM     27  C   UNL     1      44.556   2.523   8.392  0.00  0.00    +0.000 A 
ATOM     28  N   UNL     1      45.254   3.663   8.072  0.00  0.00    +0.000 N 
ATOM     29  C   UNL     1      45.573   4.624   9.002  0.00  0.00    +0.000 A 
ATOM     30  O   UNL     1      46.341   5.541   8.726  0.00  0.00    +0.000 OA
ATOM     31  C   UNL     1      44.986   4.416  10.312  0.00  0.00    +0.000 A 
ATOM     32  H   UNL     1      45.649   3.784   7.156  0.00  0.00    +0.000 HD
ENDBRANCH  19  22
ENDBRANCH   1  20
TORSDOF 7
ENDMDL
MODEL 9
REMARK VINA RESULT:    -6.841      1.711      2.212
REMARK INTER + INTRA:         -10.463
REMARK INTER:                  -9.373
REMARK INTRA:                  -1.090
REMARK UNBOUND:                -0.823
REMARK  Name = 
REMARK  7 active torsions:
REMARK  status: ('A' for Active; 'I' for Inactive)
REMARK    1  A    between atoms: C_2  and  C_19
REMARK    2  A    between atoms: N_3  and  C_4
REMARK    3  A    between atoms: C_4  and  C_5
REMARK    4  A    between atoms: C_8  and  C_9
REMARK    5  A    between atoms: C_9  and  N_10
REMARK    6  A    between atoms: N_10  and  C_11
REMARK    7  A    between atoms: C_11  and  C_12
REMARK                            x       y       z     vdW  Elec       q    Type
REMARK                         _______ _______ _______ _____ _____    ______ ____
ROOT
ATOM      1  C   UNL     1      48.915   8.428  13.933  0.00  0.00    +0.000 C 
ENDROOT
BRANCH   1   2
ATOM      2  C   UNL     1      47.727   7.869  13.197  0.00  0.00    +0.000 A 
ATOM      3  C   UNL     1      47.854   6.681  12.468  0.00  0.00    +0.000 A 
ATOM      4  C   UNL     1      46.748   6.119  11.830  0.00  0.00    +0.000 A 
ATOM      5  C   UNL     1      45.484   6.721  11.912  0.00  0.00    +0.000 A 
ATOM      6  C   UNL     1      45.371   7.939  12.598  0.00  0.00    +0.000 A 
ATOM      7  C   UNL     1      46.482   8.510  13.229  0.00  0.00    +0.000 A 
BRANCH   5   8
ATOM      8  C   UNL     1      44.272   6.120  11.227  0.00  0.00    +0.000 C 
BRANCH   8   9
ATOM      9  N   UNL     1      44.615   5.518   9.941  0.00  0.00    +0.000 NA
ATOM     10  H   UNL     1      45.627   5.573   9.816  0.00  0.00    +0.000 HD
BRANCH   9  11
ATOM     11  C   UNL     1      44.233   4.104   9.864  0.00  0.00    +0.000 C 
BRANCH  11  12
ATOM     12  C   UNL     1      44.850   3.492   8.593  0.00  0.00    +0.000 C 
ATOM     13  C   UNL     1      45.605   2.198   8.839  0.00  0.00    +0.000 C 
ATOM     14  C   UNL     1      46.447   2.075   7.583  0.00  0.00    +0.000 C 
ATOM     15  C   UNL     1      46.735   3.514   7.170  0.00  0.00    +0.000 C 
ATOM     16  N   UNL     1      45.878   4.366   7.996  0.00  0.00    +0.000 NA
ATOM     17  H   UNL     1      45.422   5.077   7.425  0.00  0.00    +0.000 HD
ENDBRANCH  11  12
ENDBRANCH   9  11
ENDBRANCH   8   9
ENDBRANCH   5   8
ENDBRANCH   1   2
BRANCH   1  20
ATOM     18  O   UNL     1      47.967   9.249  16.453  0.00  0.00    +0.000 OA
ATOM     19  C   UNL     1      48.627   8.217  16.373  0.00  0.00    +0.000 C 
ATOM     20  N   UNL     1      49.146   7.761  15.189  0.00  0.00    +0.000 N 
ATOM     21  H   UNL     1      49.540   6.828  15.139  0.00  0.00    +0.000 HD
BRANCH  19  22
ATOM     22  C   UNL     1      48.960   7.433  17.568  0.00  0.00    +0.000 A 
ATOM     23  C   UNL     1      49.486   8.072  18.687  0.00  0.00    +0.000 A 
ATOM     24  S   UNL     1      49.808   7.015  19.986  0.00  0.00    +0.000 S 
ATOM     25  C   UNL     1      49.225   5.676  19.112  0.00  0.00    +0.000 A 
ATOM     26  N   UNL     1      49.186   4.438  19.674  0.00  0.00    +0.000 NA
ATOM     27  C   UNL     1      48.678   3.521  18.917  0.00  0.00    +0.000 A 
ATOM     28  N   UNL     1      48.218   3.733  17.639  0.00  0.00    +0.000 N 
ATOM     29  C   UNL     1      48.328   4.945  17.002  0.00  0.00    +0.000 A 
ATOM     30  O   UNL     1      48.067   5.058  15.807  0.00  0.00    +0.000 OA
ATOM     31  C   UNL     1      48.826   6.023  17.835  0.00  0.00    +0.000 A 
ATOM     32  H   UNL     1      47.875   2.968  17.082  0.00  0.00    +0.000 HD
ENDBRANCH  19  22
ENDBRANCH   1  20
TORSDOF 7
ENDMDL
