MODEL 1
REMARK VINA RESULT:    -7.819      0.000      0.000
REMARK INTER + INTRA:         -13.872
REMARK INTER:                 -12.161
REMARK INTRA:                  -1.711
REMARK UNBOUND:                -1.711
REMARK  Name = 
REMARK  11 active torsions:
REMARK  status: ('A' for Active; 'I' for Inactive)
REMARK    1  A    between atoms: C_1  and  O_2
REMARK    2  A    between atoms: O_2  and  C_3
REMARK    3  A    between atoms: C_10  and  C_11
REMARK    4  A    between atoms: N_13  and  C_14
REMARK    5  A    between atoms: C_14  and  C_15
REMARK    6  A    between atoms: C_18  and  C_19
REMARK    7  A    between atoms: C_19  and  N_20
REMARK    8  A    between atoms: N_20  and  CA_21
REMARK    9  A    between atoms: CA_21  and  C_22
REMARK   10  A    between atoms: CA_21  and  C_24
REMARK   11  A    between atoms: C_22  and  O_23
REMARK                            x       y       z     vdW  Elec       q    Type
REMARK                         _______ _______ _______ _____ _____    ______ ____
ROOT
ATOM      1  C   UNL     1      46.619   7.674  12.817  0.00  0.00    +0.000 A 
ATOM      2  C   UNL     1      47.094   6.557  12.117  0.00  0.00    +0.000 A 
ATOM      3  C   UNL     1      46.259   5.861  11.236  0.00  0.00    +0.000 A 
ATOM      4  C   UNL     1      44.934   6.271  11.033  0.00  0.00    +0.000 A 
ATOM      5  C   UNL     1      44.470   7.408  11.708  0.00  0.00    +0.000 A 
ATOM      6  C   UNL     1      45.307   8.105  12.587  0.00  0.00    +0.000 A 
ENDROOT
BRANCH   1   7
ATOM      7  C   UNL     1      47.517   8.428  13.764  0.00  0.00    +0.000 C 
BRANCH   7  10
ATOM      8  C   UNL     1      49.100   7.053  15.049  0.00  0.00    +0.000 C 
ATOM      9  O   UNL     1      49.977   7.214  14.202  0.00  0.00    +0.000 OA
ATOM     10  N   UNL     1      47.864   7.617  14.904  0.00  0.00    +0.000 N 
ATOM     11  H   UNL     1      47.137   7.432  15.581  0.00  0.00    +0.000 HD
BRANCH   8  19
ATOM     12  C   UNL     1      47.498   4.340  16.430  0.00  0.00    +0.000 A 
ATOM     13  N   UNL     1      47.073   3.299  17.176  0.00  0.00    +0.000 NA
ATOM     14  C   UNL     1      47.750   3.005  18.289  0.00  0.00    +0.000 A 
ATOM     15  N   UNL     1      48.820   3.637  18.762  0.00  0.00    +0.000 NA
ATOM     16  C   UNL     1      49.212   4.664  17.989  0.00  0.00    +0.000 A 
ATOM     17  S   UNL     1      50.566   5.581  18.445  0.00  0.00    +0.000 S 
ATOM     18  C   UNL     1      50.408   6.579  17.079  0.00  0.00    +0.000 A 
ATOM     19  C   UNL     1      49.340   6.242  16.255  0.00  0.00    +0.000 A 
ATOM     20  C   UNL     1      48.625   5.091  16.804  0.00  0.00    +0.000 A 
BRANCH  12  22
ATOM     21  C   UNL     1      47.054   3.647  14.237  0.00  0.00    +0.000 C 
ATOM     22  O   UNL     1      46.825   4.615  15.258  0.00  0.00    +0.000 OA
ENDBRANCH  12  22
ENDBRANCH   8  19
ENDBRANCH   7  10
ENDBRANCH   1   7
BRANCH   4  23
ATOM     23  C   UNL     1      44.036   5.519  10.075  0.00  0.00    +0.000 C 
BRANCH  23  24
ATOM     24  N   UNL     1      44.798   4.955   8.944  0.00  0.00    +0.000 NA
ATOM     25  H   UNL     1      45.786   5.097   9.156  0.00  0.00    +0.000 HD
BRANCH  24  26
ATOM     26  CA  UNL     1      44.551   3.487   8.845  0.00  0.00    +0.000 C 
BRANCH  26  27
ATOM     27  C   UNL     1      45.704   2.731   8.188  0.00  0.00    +0.000 A 
ATOM     28  C   UNL     1      46.563   3.335   7.269  0.00  0.00    +0.000 A 
ATOM     29  C   UNL     1      47.525   2.560   6.624  0.00  0.00    +0.000 A 
ATOM     30  C   UNL     1      47.603   1.202   6.899  0.00  0.00    +0.000 A 
ATOM     31  C   UNL     1      46.715   0.674   7.819  0.00  0.00    +0.000 A 
ATOM     32  N   UNL     1      45.774   1.400   8.463  0.00  0.00    +0.000 NA
ENDBRANCH  26  27
BRANCH  26  33
ATOM     33  C   UNL     1      44.149   2.910  10.227  0.00  0.00    +0.000 C 
BRANCH  33  34
ATOM     34  O   UNL     1      45.269   2.564  11.043  0.00  0.00    +0.000 OA
ATOM     35  H   UNL     1      45.498   1.648  10.799  0.00  0.00    +0.000 HD
ENDBRANCH  33  34
ENDBRANCH  26  33
ENDBRANCH  24  26
ENDBRANCH  23  24
ENDBRANCH   4  23
TORSDOF 10
ENDMDL
MODEL 2
REMARK VINA RESULT:    -7.550      1.189      1.521
REMARK INTER + INTRA:         -13.455
REMARK INTER:                 -12.148
REMARK INTRA:                  -1.307
REMARK UNBOUND:                -1.711
REMARK  Name = 
REMARK  11 active torsions:
REMARK  status: ('A' for Active; 'I' for Inactive)
REMARK    1  A    between atoms: C_1  and  O_2
REMARK    2  A    between atoms: O_2  and  C_3
REMARK    3  A    between atoms: C_10  and  C_11
REMARK    4  A    between atoms: N_13  and  C_14
REMARK    5  A    between atoms: C_14  and  C_15
REMARK    6  A    between atoms: C_18  and  C_19
REMARK    7  A    between atoms: C_19  and  N_20
REMARK    8  A    between atoms: N_20  and  CA_21
REMARK    9  A    between atoms: CA_21  and  C_22
REMARK   10  A    between atoms: CA_21  and  C_24
REMARK   11  A    between atoms: C_22  and  O_23
REMARK                            x       y       z     vdW  Elec       q    Type
REMARK                         _______ _______ _______ _____ _____    ______ ____
ROOT
ATOM      1  C   UNL     1      46.779   7.839  12.656  0.00  0.00    +0.000 A 
ATOM      2  C   UNL     1      45.487   8.334  12.438  0.00  0.00    +0.000 A 
ATOM      3  C   UNL     1      44.506   7.528  11.851  0.00  0.00    +0.000 A 
ATOM      4  C   UNL     1      44.795   6.209  11.475  0.00  0.00    +0.000 A 
ATOM      5  C   UNL     1      46.078   5.704  11.725  0.00  0.00    +0.000 A 
ATOM      6  C   UNL     1      47.058   6.510  12.315  0.00  0.00    +0.000 A 
ENDROOT
BRANCH   1   7
ATOM      7  C   UNL     1      47.837   8.704  13.293  0.00  0.00    +0.000 C 
BRANCH   7  10
ATOM      8  C   UNL     1      48.926   7.589  15.196  0.00  0.00    +0.000 C 
ATOM      9  O   UNL     1      49.739   7.044  14.452  0.00  0.00    +0.000 OA
ATOM     10  N   UNL     1      47.960   8.418  14.700  0.00  0.00    +0.000 N 
ATOM     11  H   UNL     1      47.265   8.816  15.318  0.00  0.00    +0.000 HD
BRANCH   8  19
ATOM     12  C   UNL     1      48.543   4.801  17.175  0.00  0.00    +0.000 A 
ATOM     13  N   UNL     1      48.431   3.895  18.167  0.00  0.00    +0.000 NA
ATOM     14  C   UNL     1      48.545   4.324  19.426  0.00  0.00    +0.000 A 
ATOM     15  N   UNL     1      48.760   5.573  19.827  0.00  0.00    +0.000 NA
ATOM     16  C   UNL     1      48.870   6.443  18.808  0.00  0.00    +0.000 A 
ATOM     17  S   UNL     1      49.146   8.086  19.140  0.00  0.00    +0.000 S 
ATOM     18  C   UNL     1      49.156   8.466  17.484  0.00  0.00    +0.000 A 
ATOM     19  C   UNL     1      48.953   7.370  16.652  0.00  0.00    +0.000 A 
ATOM     20  C   UNL     1      48.784   6.158  17.451  0.00  0.00    +0.000 A 
BRANCH  12  22
ATOM     21  C   UNL     1      47.139   4.322  15.361  0.00  0.00    +0.000 C 
ATOM     22  O   UNL     1      48.469   4.350  15.873  0.00  0.00    +0.000 OA
ENDBRANCH  12  22
ENDBRANCH   8  19
ENDBRANCH   7  10
ENDBRANCH   1   7
BRANCH   4  23
ATOM     23  C   UNL     1      43.730   5.338  10.845  0.00  0.00    +0.000 C 
BRANCH  23  24
ATOM     24  N   UNL     1      44.132   4.868   9.505  0.00  0.00    +0.000 NA
ATOM     25  H   UNL     1      45.068   5.237   9.334  0.00  0.00    +0.000 HD
BRANCH  24  26
ATOM     26  CA  UNL     1      44.210   3.379   9.490  0.00  0.00    +0.000 C 
BRANCH  26  27
ATOM     27  C   UNL     1      45.360   2.851   8.635  0.00  0.00    +0.000 A 
ATOM     28  C   UNL     1      46.041   3.658   7.722  0.00  0.00    +0.000 A 
ATOM     29  C   UNL     1      47.006   3.086   6.895  0.00  0.00    +0.000 A 
ATOM     30  C   UNL     1      47.262   1.726   6.985  0.00  0.00    +0.000 A 
ATOM     31  C   UNL     1      46.544   0.989   7.911  0.00  0.00    +0.000 A 
ATOM     32  N   UNL     1      45.606   1.515   8.730  0.00  0.00    +0.000 NA
ENDBRANCH  26  27
BRANCH  26  33
ATOM     33  C   UNL     1      44.217   2.821  10.937  0.00  0.00    +0.000 C 
BRANCH  33  34
ATOM     34  O   UNL     1      43.324   1.724  11.125  0.00  0.00    +0.000 OA
ATOM     35  H   UNL     1      42.545   1.922  10.572  0.00  0.00    +0.000 HD
ENDBRANCH  33  34
ENDBRANCH  26  33
ENDBRANCH  24  26
ENDBRANCH  23  24
ENDBRANCH   4  23
TORSDOF 10
ENDMDL
MODEL 3
REMARK VINA RESULT:    -7.338      1.807      2.405
REMARK INTER + INTRA:         -13.124
REMARK INTER:                 -11.399
REMARK INTRA:                  -1.725
REMARK UNBOUND:                -1.711
REMARK  Name = 
REMARK  11 active torsions:
REMARK  status: ('A' for Active; 'I' for Inactive)
REMARK    1  A    between atoms: C_1  and  O_2
REMARK    2  A    between atoms: O_2  and  C_3
REMARK    3  A    between atoms: C_10  and  C_11
REMARK    4  A    between atoms: N_13  and  C_14
REMARK    5  A    between atoms: C_14  and  C_15
REMARK    6  A    between atoms: C_18  and  C_19
REMARK    7  A    between atoms: C_19  and  N_20
REMARK    8  A    between atoms: N_20  and  CA_21
REMARK    9  A    between atoms: CA_21  and  C_22
REMARK   10  A    between atoms: CA_21  and  C_24
REMARK   11  A    between atoms: C_22  and  O_23
REMARK                            x       y       z     vdW  Elec       q    Type
REMARK                         _______ _______ _______ _____ _____    ______ ____
ROOT
ATOM      1  C   UNL     1      47.747   7.505  12.931  0.00  0.00    +0.000 A 
ATOM      2  C   UNL     1      46.580   8.268  12.798  0.00  0.00    +0.000 A 
ATOM      3  C   UNL     1      45.349   7.650  12.554  0.00  0.00    +0.000 A 
ATOM      4  C   UNL     1      45.259   6.255  12.443  0.00  0.00    +0.000 A 
ATOM      5  C   UNL     1      46.421   5.491  12.611  0.00  0.00    +0.000 A 
ATOM      6  C   UNL     1      47.652   6.110  12.858  0.00  0.00    +0.000 A 
ENDROOT
BRANCH   1   7
ATOM      7  C   UNL     1      49.075   8.168  13.199  0.00  0.00    +0.000 C 
BRANCH   7  10
ATOM      8  C   UNL     1      50.781   7.920  14.952  0.00  0.00    +0.000 C 
ATOM      9  O   UNL     1      50.941   9.138  15.013  0.00  0.00    +0.000 OA
ATOM     10  N   UNL     1      49.883   7.367  14.084  0.00  0.00    +0.000 N 
ATOM     11  H   UNL     1      49.803   6.363  14.006  0.00  0.00    +0.000 HD
BRANCH   8  19
ATOM     12  C   UNL     1      49.896   5.413  17.136  0.00  0.00    +0.000 A 
ATOM     13  N   UNL     1      49.834   4.407  18.031  0.00  0.00    +0.000 NA
ATOM     14  C   UNL     1      50.981   3.935  18.527  0.00  0.00    +0.000 A 
ATOM     15  N   UNL     1      52.208   4.353  18.235  0.00  0.00    +0.000 NA
ATOM     16  C   UNL     1      52.226   5.353  17.337  0.00  0.00    +0.000 A 
ATOM     17  S   UNL     1      53.714   6.009  16.848  0.00  0.00    +0.000 S 
ATOM     18  C   UNL     1      52.941   7.108  15.808  0.00  0.00    +0.000 A 
ATOM     19  C   UNL     1      51.554   7.003  15.807  0.00  0.00    +0.000 A 
ATOM     20  C   UNL     1      51.130   5.947  16.724  0.00  0.00    +0.000 A 
BRANCH  12  22
ATOM     21  C   UNL     1      47.826   4.822  16.211  0.00  0.00    +0.000 C 
ATOM     22  O   UNL     1      48.714   5.870  16.591  0.00  0.00    +0.000 OA
ENDBRANCH  12  22
ENDBRANCH   8  19
ENDBRANCH   7  10
ENDBRANCH   1   7
BRANCH   4  23
ATOM     23  C   UNL     1      43.925   5.590  12.185  0.00  0.00    +0.000 C 
BRANCH  23  24
ATOM     24  N   UNL     1      43.693   5.377  10.743  0.00  0.00    +0.000 NA
ATOM     25  H   UNL     1      44.499   5.769  10.255  0.00  0.00    +0.000 HD
BRANCH  24  26
ATOM     26  CA  UNL     1      43.638   3.916  10.447  0.00  0.00    +0.000 C 
BRANCH  26  27
ATOM     27  C   UNL     1      44.716   3.465   9.463  0.00  0.00    +0.000 A 
ATOM     28  C   UNL     1      45.377   4.361   8.621  0.00  0.00    +0.000 A 
ATOM     29  C   UNL     1      46.270   3.871   7.670  0.00  0.00    +0.000 A 
ATOM     30  C   UNL     1      46.476   2.502   7.571  0.00  0.00    +0.000 A 
ATOM     31  C   UNL     1      45.781   1.676   8.437  0.00  0.00    +0.000 A 
ATOM     32  N   UNL     1      44.912   2.122   9.372  0.00  0.00    +0.000 NA
ENDBRANCH  26  27
BRANCH  26  33
ATOM     33  C   UNL     1      43.629   3.095  11.762  0.00  0.00    +0.000 C 
BRANCH  33  34
ATOM     34  O   UNL     1      43.025   1.809  11.623  0.00  0.00    +0.000 OA
ATOM     35  H   UNL     1      42.995   1.434  12.522  0.00  0.00    +0.000 HD
ENDBRANCH  33  34
ENDBRANCH  26  33
ENDBRANCH  24  26
ENDBRANCH  23  24
ENDBRANCH   4  23
TORSDOF 10
ENDMDL
MODEL 4
REMARK VINA RESULT:    -6.908      2.776      3.752
REMARK INTER + INTRA:         -12.456
REMARK INTER:                 -11.392
REMARK INTRA:                  -1.064
REMARK UNBOUND:                -1.711
REMARK  Name = 
REMARK  11 active torsions:
REMARK  status: ('A' for Active; 'I' for Inactive)
REMARK    1  A    between atoms: C_1  and  O_2
REMARK    2  A    between atoms: O_2  and  C_3
REMARK    3  A    between atoms: C_10  and  C_11
REMARK    4  A    between atoms: N_13  and  C_14
REMARK    5  A    between atoms: C_14  and  C_15
REMARK    6  A    between atoms: C_18  and  C_19
REMARK    7  A    between atoms: C_19  and  N_20
REMARK    8  A    between atoms: N_20  and  CA_21
REMARK    9  A    between atoms: CA_21  and  C_22
REMARK   10  A    between atoms: CA_21  and  C_24
REMARK   11  A    between atoms: C_22  and  O_23
REMARK                            x       y       z     vdW  Elec       q    Type
REMARK                         _______ _______ _______ _____ _____    ______ ____
ROOT
ATOM      1  C   UNL     1      48.429   6.201  15.495  0.00  0.00    +0.000 A 
ATOM      2  C   UNL     1      48.298   6.801  14.236  0.00  0.00    +0.000 A 
ATOM      3  C   UNL     1      47.419   6.273  13.284  0.00  0.00    +0.000 A 
ATOM      4  C   UNL     1      46.649   5.138  13.574  0.00  0.00    +0.000 A 
ATOM      5  C   UNL     1      46.755   4.560  14.846  0.00  0.00    +0.000 A 
ATOM      6  C   UNL     1      47.634   5.090  15.798  0.00  0.00    +0.000 A 
ENDROOT
BRANCH   1   7
ATOM      7  C   UNL     1      49.373   6.770  16.524  0.00  0.00    +0.000 C 
BRANCH   7  10
ATOM      8  C   UNL     1      50.821   5.694  18.195  0.00  0.00    +0.000 C 
ATOM      9  O   UNL     1      50.404   6.437  19.081  0.00  0.00    +0.000 OA
ATOM     10  N   UNL     1      50.362   5.797  16.912  0.00  0.00    +0.000 N 
ATOM     11  H   UNL     1      50.754   5.215  16.184  0.00  0.00    +0.000 HD
BRANCH   8  19
ATOM     12  C   UNL     1      51.071   2.352  17.414  0.00  0.00    +0.000 A 
ATOM     13  N   UNL     1      51.418   1.059  17.254  0.00  0.00    +0.000 NA
ATOM     14  C   UNL     1      52.567   0.645  17.794  0.00  0.00    +0.000 A 
ATOM     15  N   UNL     1      53.430   1.376  18.491  0.00  0.00    +0.000 NA
ATOM     16  C   UNL     1      53.050   2.659  18.623  0.00  0.00    +0.000 A 
ATOM     17  S   UNL     1      54.039   3.737  19.486  0.00  0.00    +0.000 S 
ATOM     18  C   UNL     1      52.955   5.018  19.216  0.00  0.00    +0.000 A 
ATOM     19  C   UNL     1      51.834   4.662  18.474  0.00  0.00    +0.000 A 
ATOM     20  C   UNL     1      51.896   3.245  18.119  0.00  0.00    +0.000 A 
BRANCH  12  22
ATOM     21  C   UNL     1      48.754   2.613  17.639  0.00  0.00    +0.000 C 
ATOM     22  O   UNL     1      49.906   2.790  16.819  0.00  0.00    +0.000 OA
ENDBRANCH  12  22
ENDBRANCH   8  19
ENDBRANCH   7  10
ENDBRANCH   1   7
BRANCH   4  23
ATOM     23  C   UNL     1      45.695   4.574  12.545  0.00  0.00    +0.000 C 
BRANCH  23  24
ATOM     24  N   UNL     1      45.327   5.583  11.532  0.00  0.00    +0.000 NA
ATOM     25  H   UNL     1      46.169   5.772  10.988  0.00  0.00    +0.000 HD
BRANCH  24  26
ATOM     26  CA  UNL     1      44.294   5.028  10.611  0.00  0.00    +0.000 C 
BRANCH  26  27
ATOM     27  C   UNL     1      44.872   4.065   9.576  0.00  0.00    +0.000 A 
ATOM     28  C   UNL     1      44.745   2.681   9.694  0.00  0.00    +0.000 A 
ATOM     29  C   UNL     1      45.391   1.856   8.774  0.00  0.00    +0.000 A 
ATOM     30  C   UNL     1      46.156   2.426   7.767  0.00  0.00    +0.000 A 
ATOM     31  C   UNL     1      46.239   3.806   7.716  0.00  0.00    +0.000 A 
ATOM     32  N   UNL     1      45.622   4.632   8.591  0.00  0.00    +0.000 NA
ENDBRANCH  26  27
BRANCH  26  33
ATOM     33  C   UNL     1      43.117   4.421  11.419  0.00  0.00    +0.000 C 
BRANCH  33  34
ATOM     34  O   UNL     1      41.943   5.233  11.403  0.00  0.00    +0.000 OA
ATOM     35  H   UNL     1      42.028   5.834  12.167  0.00  0.00    +0.000 HD
ENDBRANCH  33  34
ENDBRANCH  26  33
ENDBRANCH  24  26
ENDBRANCH  23  24
ENDBRANCH   4  23
TORSDOF 10
ENDMDL
MODEL 5
REMARK VINA RESULT:    -6.611      2.027      2.517
REMARK INTER + INTRA:         -11.994
REMARK INTER:                 -11.067
REMARK INTRA:                  -0.927
REMARK UNBOUND:                -1.711
REMARK  Name = 
REMARK  11 active torsions:
REMARK  status: ('A' for Active; 'I' for Inactive)
REMARK    1  A    between atoms: C_1  and  O_2
REMARK    2  A    between atoms: O_2  and  C_3
REMARK    3  A    between atoms: C_10  and  C_11
REMARK    4  A    between atoms: N_13  and  C_14
REMARK    5  A    between atoms: C_14  and  C_15
REMARK    6  A    between atoms: C_18  and  C_19
REMARK    7  A    between atoms: C_19  and  N_20
REMARK    8  A    between atoms: N_20  and  CA_21
REMARK    9  A    between atoms: CA_21  and  C_22
REMARK   10  A    between atoms: CA_21  and  C_24
REMARK   11  A    between atoms: C_22  and  O_23
REMARK                            x       y       z     vdW  Elec       q    Type
REMARK                         _______ _______ _______ _____ _____    ______ ____
ROOT
ATOM      1  C   UNL     1      47.565   7.224  13.367  0.00  0.00    +0.000 A 
ATOM      2  C   UNL     1      47.423   5.833  13.272  0.00  0.00    +0.000 A 
ATOM      3  C   UNL     1      46.293   5.273  12.667  0.00  0.00    +0.000 A 
ATOM      4  C   UNL     1      45.285   6.091  12.139  0.00  0.00    +0.000 A 
ATOM      5  C   UNL     1      45.444   7.481  12.204  0.00  0.00    +0.000 A 
ATOM      6  C   UNL     1      46.575   8.041  12.808  0.00  0.00    +0.000 A 
ENDROOT
BRANCH   1   7
ATOM      7  C   UNL     1      48.783   7.831  14.016  0.00  0.00    +0.000 C 
BRANCH   7  10
ATOM      8  C   UNL     1      50.016   7.485  16.115  0.00  0.00    +0.000 C 
ATOM      9  O   UNL     1      50.300   8.680  16.182  0.00  0.00    +0.000 OA
ATOM     10  N   UNL     1      49.274   6.992  15.079  0.00  0.00    +0.000 N 
ATOM     11  H   UNL     1      49.096   5.999  15.009  0.00  0.00    +0.000 HD
BRANCH   8  19
ATOM     12  C   UNL     1      48.738   6.514  19.158  0.00  0.00    +0.000 A 
ATOM     13  N   UNL     1      48.472   5.965  20.361  0.00  0.00    +0.000 NA
ATOM     14  C   UNL     1      49.336   5.071  20.849  0.00  0.00    +0.000 A 
ATOM     15  N   UNL     1      50.458   4.650  20.274  0.00  0.00    +0.000 NA
ATOM     16  C   UNL     1      50.684   5.217  19.077  0.00  0.00    +0.000 A 
ATOM     17  S   UNL     1      52.076   4.792  18.202  0.00  0.00    +0.000 S 
ATOM     18  C   UNL     1      51.656   5.844  16.935  0.00  0.00    +0.000 A 
ATOM     19  C   UNL     1      50.466   6.533  17.144  0.00  0.00    +0.000 A 
ATOM     20  C   UNL     1      49.885   6.151  18.430  0.00  0.00    +0.000 A 
BRANCH  12  22
ATOM     21  C   UNL     1      48.015   8.741  19.089  0.00  0.00    +0.000 C 
ATOM     22  O   UNL     1      47.824   7.403  18.635  0.00  0.00    +0.000 OA
ENDBRANCH  12  22
ENDBRANCH   8  19
ENDBRANCH   7  10
ENDBRANCH   1   7
BRANCH   4  23
ATOM     23  C   UNL     1      44.068   5.480  11.479  0.00  0.00    +0.000 C 
BRANCH  23  24
ATOM     24  N   UNL     1      44.300   5.217  10.046  0.00  0.00    +0.000 NA
ATOM     25  H   UNL     1      45.271   5.464   9.856  0.00  0.00    +0.000 HD
BRANCH  24  26
ATOM     26  CA  UNL     1      44.125   3.764   9.760  0.00  0.00    +0.000 C 
BRANCH  26  27
ATOM     27  C   UNL     1      45.141   3.228   8.753  0.00  0.00    +0.000 A 
ATOM     28  C   UNL     1      45.544   1.892   8.742  0.00  0.00    +0.000 A 
ATOM     29  C   UNL     1      46.555   1.492   7.871  0.00  0.00    +0.000 A 
ATOM     30  C   UNL     1      47.149   2.431   7.039  0.00  0.00    +0.000 A 
ATOM     31  C   UNL     1      46.699   3.737   7.109  0.00  0.00    +0.000 A 
ATOM     32  N   UNL     1      45.719   4.155   7.941  0.00  0.00    +0.000 NA
ENDBRANCH  26  27
BRANCH  26  33
ATOM     33  C   UNL     1      44.086   2.952  11.080  0.00  0.00    +0.000 C 
BRANCH  33  34
ATOM     34  O   UNL     1      42.787   2.452  11.399  0.00  0.00    +0.000 OA
ATOM     35  H   UNL     1      42.244   2.608  10.604  0.00  0.00    +0.000 HD
ENDBRANCH  33  34
ENDBRANCH  26  33
ENDBRANCH  24  26
ENDBRANCH  23  24
ENDBRANCH   4  23
TORSDOF 10
ENDMDL
MODEL 6
REMARK VINA RESULT:    -6.508      1.974      2.758
REMARK INTER + INTRA:         -11.833
REMARK INTER:                 -10.614
REMARK INTRA:                  -1.219
REMARK UNBOUND:                -1.711
REMARK  Name = 
REMARK  11 active torsions:
REMARK  status: ('A' for Active; 'I' for Inactive)
REMARK    1  A    between atoms: C_1  and  O_2
REMARK    2  A    between atoms: O_2  and  C_3
REMARK    3  A    between atoms: C_10  and  C_11
REMARK    4  A    between atoms: N_13  and  C_14
REMARK    5  A    between atoms: C_14  and  C_15
REMARK    6  A    between atoms: C_18  and  C_19
REMARK    7  A    between atoms: C_19  and  N_20
REMARK    8  A    between atoms: N_20  and  CA_21
REMARK    9  A    between atoms: CA_21  and  C_22
REMARK   10  A    between atoms: CA_21  and  C_24
REMARK   11  A    between atoms: C_22  and  O_23
REMARK                            x       y       z     vdW  Elec       q    Type
REMARK                         _______ _______ _______ _____ _____    ______ ____
ROOT
ATOM      1  C   UNL     1      47.764   8.199  13.874  0.00  0.00    +0.000 A 
ATOM      2  C   UNL     1      46.465   8.418  13.398  0.00  0.00    +0.000 A 
ATOM      3  C   UNL     1      45.777   7.408  12.716  0.00  0.00    +0.000 A 
ATOM      4  C   UNL     1      46.372   6.158  12.501  0.00  0.00    +0.000 A 
ATOM      5  C   UNL     1      47.658   5.929  13.008  0.00  0.00    +0.000 A 
ATOM      6  C   UNL     1      48.345   6.938  13.691  0.00  0.00    +0.000 A 
ENDROOT
BRANCH   1   7
ATOM      7  C   UNL     1      48.506   9.284  14.612  0.00  0.00    +0.000 C 
BRANCH   7  10
ATOM      8  C   UNL     1      48.957   8.710  16.961  0.00  0.00    +0.000 C 
ATOM      9  O   UNL     1      47.876   9.176  17.316  0.00  0.00    +0.000 OA
ATOM     10  N   UNL     1      49.338   8.727  15.649  0.00  0.00    +0.000 N 
ATOM     11  H   UNL     1      50.252   8.389  15.380  0.00  0.00    +0.000 HD
BRANCH   8  19
ATOM     12  C   UNL     1      50.089   5.505  17.498  0.00  0.00    +0.000 A 
ATOM     13  N   UNL     1      50.682   4.371  17.924  0.00  0.00    +0.000 NA
ATOM     14  C   UNL     1      51.513   4.449  18.966  0.00  0.00    +0.000 A 
ATOM     15  N   UNL     1      51.831   5.542  19.653  0.00  0.00    +0.000 NA
ATOM     16  C   UNL     1      51.223   6.650  19.194  0.00  0.00    +0.000 A 
ATOM     17  S   UNL     1      51.518   8.139  19.956  0.00  0.00    +0.000 S 
ATOM     18  C   UNL     1      50.477   8.946  18.882  0.00  0.00    +0.000 A 
ATOM     19  C   UNL     1      49.891   8.116  17.933  0.00  0.00    +0.000 A 
ATOM     20  C   UNL     1      50.343   6.738  18.123  0.00  0.00    +0.000 A 
BRANCH  12  22
ATOM     21  C   UNL     1      48.020   4.793  16.662  0.00  0.00    +0.000 C 
ATOM     22  O   UNL     1      49.266   5.431  16.394  0.00  0.00    +0.000 OA
ENDBRANCH  12  22
ENDBRANCH   8  19
ENDBRANCH   7  10
ENDBRANCH   1   7
BRANCH   4  23
ATOM     23  C   UNL     1      45.622   5.066  11.769  0.00  0.00    +0.000 C 
BRANCH  23  24
ATOM     24  N   UNL     1      45.004   5.570  10.527  0.00  0.00    +0.000 NA
ATOM     25  H   UNL     1      45.769   5.839   9.907  0.00  0.00    +0.000 HD
BRANCH  24  26
ATOM     26  CA  UNL     1      44.232   4.480   9.864  0.00  0.00    +0.000 C 
BRANCH  26  27
ATOM     27  C   UNL     1      45.080   3.643   8.908  0.00  0.00    +0.000 A 
ATOM     28  C   UNL     1      45.220   2.262   9.053  0.00  0.00    +0.000 A 
ATOM     29  C   UNL     1      46.096   1.574   8.215  0.00  0.00    +0.000 A 
ATOM     30  C   UNL     1      46.819   2.277   7.261  0.00  0.00    +0.000 A 
ATOM     31  C   UNL     1      46.630   3.645   7.180  0.00  0.00    +0.000 A 
ATOM     32  N   UNL     1      45.786   4.339   7.976  0.00  0.00    +0.000 NA
ENDBRANCH  26  27
BRANCH  26  33
ATOM     33  C   UNL     1      43.480   3.628  10.920  0.00  0.00    +0.000 C 
BRANCH  33  34
ATOM     34  O   UNL     1      42.340   4.287  11.471  0.00  0.00    +0.000 OA
ATOM     35  H   UNL     1      42.400   4.155  12.435  0.00  0.00    +0.000 HD
ENDBRANCH  33  34
ENDBRANCH  26  33
ENDBRANCH  24  26
ENDBRANCH  23  24
ENDBRANCH   4  23
TORSDOF 10
ENDMDL
MODEL 7
REMARK VINA RESULT:    -6.292      2.206      2.849
REMARK INTER + INTRA:         -11.497
REMARK INTER:                 -10.780
REMARK INTRA:                  -0.717
REMARK UNBOUND:                -1.711
REMARK  Name = 
REMARK  11 active torsions:
REMARK  status: ('A' for Active; 'I' for Inactive)
REMARK    1  A    between atoms: C_1  and  O_2
REMARK    2  A    between atoms: O_2  and  C_3
REMARK    3  A    between atoms: C_10  and  C_11
REMARK    4  A    between atoms: N_13  and  C_14
REMARK    5  A    between atoms: C_14  and  C_15
REMARK    6  A    between atoms: C_18  and  C_19
REMARK    7  A    between atoms: C_19  and  N_20
REMARK    8  A    between atoms: N_20  and  CA_21
REMARK    9  A    between atoms: CA_21  and  C_22
REMARK   10  A    between atoms: CA_21  and  C_24
REMARK   11  A    between atoms: C_22  and  O_23
REMARK                            x       y       z     vdW  Elec       q    Type
REMARK                         _______ _______ _______ _____ _____    ______ ____
ROOT
ATOM      1  C   UNL     1      47.395   8.333  13.823  0.00  0.00    +0.000 A 
ATOM      2  C   UNL     1      47.978   7.090  13.546  0.00  0.00    +0.000 A 
ATOM      3  C   UNL     1      47.476   6.281  12.521  0.00  0.00    +0.000 A 
ATOM      4  C   UNL     1      46.385   6.701  11.748  0.00  0.00    +0.000 A 
ATOM      5  C   UNL     1      45.824   7.960  12.004  0.00  0.00    +0.000 A 
ATOM      6  C   UNL     1      46.328   8.769  13.028  0.00  0.00    +0.000 A 
ENDROOT
BRANCH   1   7
ATOM      7  C   UNL     1      47.936   9.209  14.924  0.00  0.00    +0.000 C 
BRANCH   7  10
ATOM      8  C   UNL     1      48.088   9.095  17.376  0.00  0.00    +0.000 C 
ATOM      9  O   UNL     1      48.027  10.320  17.469  0.00  0.00    +0.000 OA
ATOM     10  N   UNL     1      48.050   8.475  16.159  0.00  0.00    +0.000 N 
ATOM     11  H   UNL     1      48.156   7.472  16.096  0.00  0.00    +0.000 HD
BRANCH   8  19
ATOM     12  C   UNL     1      49.940   6.287  18.099  0.00  0.00    +0.000 A 
ATOM     13  N   UNL     1      50.533   5.203  18.638  0.00  0.00    +0.000 NA
ATOM     14  C   UNL     1      50.210   4.866  19.889  0.00  0.00    +0.000 A 
ATOM     15  N   UNL     1      49.347   5.489  20.685  0.00  0.00    +0.000 NA
ATOM     16  C   UNL     1      48.782   6.566  20.112  0.00  0.00    +0.000 A 
ATOM     17  S   UNL     1      47.653   7.482  20.990  0.00  0.00    +0.000 S 
ATOM     18  C   UNL     1      47.438   8.551  19.687  0.00  0.00    +0.000 A 
ATOM     19  C   UNL     1      48.209   8.242  18.571  0.00  0.00    +0.000 A 
ATOM     20  C   UNL     1      49.015   7.051  18.831  0.00  0.00    +0.000 A 
BRANCH  12  22
ATOM     21  C   UNL     1      51.669   6.368  16.520  0.00  0.00    +0.000 C 
ATOM     22  O   UNL     1      50.308   6.660  16.823  0.00  0.00    +0.000 OA
ENDBRANCH  12  22
ENDBRANCH   8  19
ENDBRANCH   7  10
ENDBRANCH   1   7
BRANCH   4  23
ATOM     23  C   UNL     1      45.849   5.826  10.637  0.00  0.00    +0.000 C 
BRANCH  23  24
ATOM     24  N   UNL     1      44.375   5.752  10.664  0.00  0.00    +0.000 NA
ATOM     25  H   UNL     1      44.037   6.362   9.919  0.00  0.00    +0.000 HD
BRANCH  24  26
ATOM     26  CA  UNL     1      43.929   4.361  10.364  0.00  0.00    +0.000 C 
BRANCH  26  27
ATOM     27  C   UNL     1      44.836   3.646   9.365  0.00  0.00    +0.000 A 
ATOM     28  C   UNL     1      45.351   4.285   8.236  0.00  0.00    +0.000 A 
ATOM     29  C   UNL     1      46.080   3.546   7.307  0.00  0.00    +0.000 A 
ATOM     30  C   UNL     1      46.271   2.188   7.515  0.00  0.00    +0.000 A 
ATOM     31  C   UNL     1      45.727   1.623   8.655  0.00  0.00    +0.000 A 
ATOM     32  N   UNL     1      45.018   2.313   9.576  0.00  0.00    +0.000 NA
ENDBRANCH  26  27
BRANCH  26  33
ATOM     33  C   UNL     1      43.717   3.564  11.677  0.00  0.00    +0.000 C 
BRANCH  33  34
ATOM     34  O   UNL     1      42.859   2.433  11.520  0.00  0.00    +0.000 OA
ATOM     35  H   UNL     1      43.447   1.655  11.520  0.00  0.00    +0.000 HD
ENDBRANCH  33  34
ENDBRANCH  26  33
ENDBRANCH  24  26
ENDBRANCH  23  24
ENDBRANCH   4  23
TORSDOF 10
ENDMDL
MODEL 8
REMARK VINA RESULT:    -6.272      3.230      8.004
REMARK INTER + INTRA:         -11.466
REMARK INTER:                  -9.648
REMARK INTRA:                  -1.818
REMARK UNBOUND:                -1.711
REMARK  Name = 
REMARK  11 active torsions:
REMARK  status: ('A' for Active; 'I' for Inactive)
REMARK    1  A    between atoms: C_1  and  O_2
REMARK    2  A    between atoms: O_2  and  C_3
REMARK    3  A    between atoms: C_10  and  C_11
REMARK    4  A    between atoms: N_13  and  C_14
REMARK    5  A    between atoms: C_14  and  C_15
REMARK    6  A    between atoms: C_18  and  C_19
REMARK    7  A    between atoms: C_19  and  N_20
REMARK    8  A    between atoms: N_20  and  CA_21
REMARK    9  A    between atoms: CA_21  and  C_22
REMARK   10  A    between atoms: CA_21  and  C_24
REMARK   11  A    between atoms: C_22  and  O_23
REMARK                            x       y       z     vdW  Elec       q    Type
REMARK                         _______ _______ _______ _____ _____    ______ ____
ROOT
ATOM      1  C   UNL     1      48.538   7.930  13.311  0.00  0.00    +0.000 A 
ATOM      2  C   UNL     1      47.896   8.908  14.081  0.00  0.00    +0.000 A 
ATOM      3  C   UNL     1      47.986   8.888  15.477  0.00  0.00    +0.000 A 
ATOM      4  C   UNL     1      48.724   7.893  16.132  0.00  0.00    +0.000 A 
ATOM      5  C   UNL     1      49.395   6.935  15.359  0.00  0.00    +0.000 A 
ATOM      6  C   UNL     1      49.306   6.957  13.963  0.00  0.00    +0.000 A 
ENDROOT
BRANCH   1   7
ATOM      7  C   UNL     1      48.447   7.951  11.807  0.00  0.00    +0.000 C 
BRANCH   7  10
ATOM      8  C   UNL     1      46.307   6.894  11.212  0.00  0.00    +0.000 C 
ATOM      9  O   UNL     1      45.683   7.905  11.531  0.00  0.00    +0.000 OA
ATOM     10  N   UNL     1      47.668   6.840  11.321  0.00  0.00    +0.000 N 
ATOM     11  H   UNL     1      48.162   5.984  11.107  0.00  0.00    +0.000 HD
BRANCH   8  19
ATOM     12  C   UNL     1      44.529   4.369  12.728  0.00  0.00    +0.000 A 
ATOM     13  N   UNL     1      43.806   3.278  13.053  0.00  0.00    +0.000 NA
ATOM     14  C   UNL     1      43.428   2.458  12.069  0.00  0.00    +0.000 A 
ATOM     15  N   UNL     1      43.692   2.593  10.773  0.00  0.00    +0.000 NA
ATOM     16  C   UNL     1      44.410   3.693  10.492  0.00  0.00    +0.000 A 
ATOM     17  S   UNL     1      44.836   4.022   8.881  0.00  0.00    +0.000 S 
ATOM     18  C   UNL     1      45.650   5.442   9.338  0.00  0.00    +0.000 A 
ATOM     19  C   UNL     1      45.617   5.696  10.704  0.00  0.00    +0.000 A 
ATOM     20  C   UNL     1      44.870   4.645  11.393  0.00  0.00    +0.000 A 
BRANCH  12  22
ATOM     21  C   UNL     1      46.199   5.023  14.235  0.00  0.00    +0.000 C 
ATOM     22  O   UNL     1      44.880   5.239  13.739  0.00  0.00    +0.000 OA
ENDBRANCH  12  22
ENDBRANCH   8  19
ENDBRANCH   7  10
ENDBRANCH   1   7
BRANCH   4  23
ATOM     23  C   UNL     1      48.824   7.878  17.641  0.00  0.00    +0.000 C 
BRANCH  23  24
ATOM     24  N   UNL     1      47.658   7.217  18.258  0.00  0.00    +0.000 NA
ATOM     25  H   UNL     1      47.121   6.799  17.497  0.00  0.00    +0.000 HD
BRANCH  24  26
ATOM     26  CA  UNL     1      48.112   6.120  19.161  0.00  0.00    +0.000 C 
BRANCH  26  27
ATOM     27  C   UNL     1      48.384   4.812  18.421  0.00  0.00    +0.000 A 
ATOM     28  C   UNL     1      49.668   4.281  18.295  0.00  0.00    +0.000 A 
ATOM     29  C   UNL     1      49.862   3.143  17.514  0.00  0.00    +0.000 A 
ATOM     30  C   UNL     1      48.777   2.567  16.868  0.00  0.00    +0.000 A 
ATOM     31  C   UNL     1      47.535   3.152  17.037  0.00  0.00    +0.000 A 
ATOM     32  N   UNL     1      47.315   4.253  17.790  0.00  0.00    +0.000 NA
ENDBRANCH  26  27
BRANCH  26  33
ATOM     33  C   UNL     1      49.309   6.592  20.028  0.00  0.00    +0.000 C 
BRANCH  33  34
ATOM     34  O   UNL     1      48.919   7.399  21.139  0.00  0.00    +0.000 OA
ATOM     35  H   UNL     1      49.022   6.831  21.925  0.00  0.00    +0.000 HD
ENDBRANCH  33  34
ENDBRANCH  26  33
ENDBRANCH  24  26
ENDBRANCH  23  24
ENDBRANCH   4  23
TORSDOF 10
ENDMDL
MODEL 9
REMARK VINA RESULT:    -5.975      2.803      8.089
REMARK INTER + INTRA:         -11.004
REMARK INTER:                  -9.094
REMARK INTRA:                  -1.910
REMARK UNBOUND:                -1.711
REMARK  Name = 
REMARK  11 active torsions:
REMARK  status: ('A' for Active; 'I' for Inactive)
REMARK    1  A    between atoms: C_1  and  O_2
REMARK    2  A    between atoms: O_2  and  C_3
REMARK    3  A    between atoms: C_10  and  C_11
REMARK    4  A    between atoms: N_13  and  C_14
REMARK    5  A    between atoms: C_14  and  C_15
REMARK    6  A    between atoms: C_18  and  C_19
REMARK    7  A    between atoms: C_19  and  N_20
REMARK    8  A    between atoms: N_20  and  CA_21
REMARK    9  A    between atoms: CA_21  and  C_22
REMARK   10  A    between atoms: CA_21  and  C_24
REMARK   11  A    between atoms: C_22  and  O_23
REMARK                            x       y       z     vdW  Elec       q    Type
REMARK                         _______ _______ _______ _____ _____    ______ ____
ROOT
ATOM      1  C   UNL     1      48.268   7.925  13.181  0.00  0.00    +0.000 A 
ATOM      2  C   UNL     1      47.659   8.787  14.102  0.00  0.00    +0.000 A 
ATOM      3  C   UNL     1      48.197   8.955  15.382  0.00  0.00    +0.000 A 
ATOM      4  C   UNL     1      49.356   8.268  15.767  0.00  0.00    +0.000 A 
ATOM      5  C   UNL     1      49.984   7.432  14.833  0.00  0.00    +0.000 A 
ATOM      6  C   UNL     1      49.447   7.266  13.551  0.00  0.00    +0.000 A 
ENDROOT
BRANCH   1   7
ATOM      7  C   UNL     1      47.694   7.745  11.798  0.00  0.00    +0.000 C 
BRANCH   7  10
ATOM      8  C   UNL     1      45.573   6.502  11.724  0.00  0.00    +0.000 C 
ATOM      9  O   UNL     1      44.924   7.542  11.821  0.00  0.00    +0.000 OA
ATOM     10  N   UNL     1      46.939   6.521  11.707  0.00  0.00    +0.000 N 
ATOM     11  H   UNL     1      47.460   5.654  11.682  0.00  0.00    +0.000 HD
BRANCH   8  19
ATOM     12  C   UNL     1      45.328   4.157   9.218  0.00  0.00    +0.000 A 
ATOM     13  N   UNL     1      45.073   3.094   8.430  0.00  0.00    +0.000 NA
ATOM     14  C   UNL     1      44.326   2.105   8.929  0.00  0.00    +0.000 A 
ATOM     15  N   UNL     1      43.788   2.047  10.143  0.00  0.00    +0.000 NA
ATOM     16  C   UNL     1      44.069   3.123  10.898  0.00  0.00    +0.000 A 
ATOM     17  S   UNL     1      43.461   3.213  12.480  0.00  0.00    +0.000 S 
ATOM     18  C   UNL     1      44.195   4.726  12.725  0.00  0.00    +0.000 A 
ATOM     19  C   UNL     1      44.910   5.191  11.626  0.00  0.00    +0.000 A 
ATOM     20  C   UNL     1      44.833   4.224  10.532  0.00  0.00    +0.000 A 
BRANCH  12  22
ATOM     21  C   UNL     1      46.927   4.739   7.608  0.00  0.00    +0.000 C 
ATOM     22  O   UNL     1      46.136   5.156   8.718  0.00  0.00    +0.000 OA
ENDBRANCH  12  22
ENDBRANCH   8  19
ENDBRANCH   7  10
ENDBRANCH   1   7
BRANCH   4  23
ATOM     23  C   UNL     1      49.938   8.457  17.151  0.00  0.00    +0.000 C 
BRANCH  23  24
ATOM     24  N   UNL     1      50.075   7.172  17.863  0.00  0.00    +0.000 NA
ATOM     25  H   UNL     1      50.445   7.388  18.790  0.00  0.00    +0.000 HD
BRANCH  24  26
ATOM     26  CA  UNL     1      48.737   6.538  18.034  0.00  0.00    +0.000 C 
BRANCH  26  27
ATOM     27  C   UNL     1      48.659   5.136  17.433  0.00  0.00    +0.000 A 
ATOM     28  C   UNL     1      47.776   4.817  16.399  0.00  0.00    +0.000 A 
ATOM     29  C   UNL     1      47.677   3.494  15.972  0.00  0.00    +0.000 A 
ATOM     30  C   UNL     1      48.447   2.519  16.588  0.00  0.00    +0.000 A 
ATOM     31  C   UNL     1      49.296   2.910  17.608  0.00  0.00    +0.000 A 
ATOM     32  N   UNL     1      49.418   4.184  18.043  0.00  0.00    +0.000 NA
ENDBRANCH  26  27
BRANCH  26  33
ATOM     33  C   UNL     1      48.297   6.591  19.520  0.00  0.00    +0.000 C 
BRANCH  33  34
ATOM     34  O   UNL     1      47.447   5.507  19.898  0.00  0.00    +0.000 OA
ATOM     35  H   UNL     1      47.749   5.232  20.783  0.00  0.00    +0.000 HD
ENDBRANCH  33  34
ENDBRANCH  26  33
ENDBRANCH  24  26
ENDBRANCH  23  24
ENDBRANCH   4  23
TORSDOF 10
ENDMDL
