MODEL 1
REMARK VINA RESULT:    -8.376      0.000      0.000
REMARK INTER + INTRA:         -13.898
REMARK INTER:                 -12.294
REMARK INTRA:                  -1.604
REMARK UNBOUND:                -1.604
REMARK  Name = 
REMARK  9 active torsions:
REMARK  status: ('A' for Active; 'I' for Inactive)
REMARK    1  A    between atoms: C_1  and  O_2
REMARK    2  A    between atoms: O_2  and  C_3
REMARK    3  A    between atoms: C_10  and  C_11
REMARK    4  A    between atoms: N_13  and  C_14
REMARK    5  A    between atoms: C_14  and  C_15
REMARK    6  A    between atoms: C_18  and  C_19
REMARK    7  A    between atoms: C_19  and  O_20
REMARK    8  A    between atoms: O_20  and  C_21
REMARK    9  A    between atoms: C_21  and  C_22
REMARK                            x       y       z     vdW  Elec       q    Type
REMARK                         _______ _______ _______ _____ _____    ______ ____
ROOT
ATOM      1  C   UNL     1      47.110   8.025  13.262  0.00  0.00    +0.000 C 
ENDROOT
BRANCH   1   2
ATOM      2  C   UNL     1      46.251   7.138  12.413  0.00  0.00    +0.000 A 
ATOM      3  C   UNL     1      46.699   6.632  11.191  0.00  0.00    +0.000 A 
ATOM      4  C   UNL     1      45.864   5.816  10.432  0.00  0.00    +0.000 A 
ATOM      5  C   UNL     1      44.598   5.505  10.923  0.00  0.00    +0.000 A 
ATOM      6  N   UNL     1      44.159   5.944  12.128  0.00  0.00    +0.000 NA
ATOM      7  C   UNL     1      44.985   6.749  12.837  0.00  0.00    +0.000 A 
BRANCH   5   8
ATOM      8  C   UNL     1      43.681   4.594  10.139  0.00  0.00    +0.000 C 
BRANCH   8   9
ATOM      9  O   UNL     1      44.309   4.073   8.964  0.00  0.00    +0.000 OA
BRANCH   9  10
ATOM     10  C   UNL     1      44.521   2.664   9.047  0.00  0.00    +0.000 C 
BRANCH  10  11
ATOM     11  C   UNL     1      45.726   2.317   8.218  0.00  0.00    +0.000 A 
ATOM     12  C   UNL     1      46.456   3.318   7.573  0.00  0.00    +0.000 A 
ATOM     13  C   UNL     1      47.574   2.960   6.832  0.00  0.00    +0.000 A 
ATOM     14  N   UNL     1      48.008   1.688   6.704  0.00  0.00    +0.000 NA
ATOM     15  C   UNL     1      47.290   0.735   7.336  0.00  0.00    +0.000 A 
ATOM     16  C   UNL     1      46.160   0.996   8.093  0.00  0.00    +0.000 A 
ENDBRANCH  10  11
ENDBRANCH   9  10
ENDBRANCH   8   9
ENDBRANCH   5   8
ENDBRANCH   1   2
BRANCH   1  19
ATOM     17  C   UNL     1      48.746   6.877  14.695  0.00  0.00    +0.000 C 
ATOM     18  O   UNL     1      49.620   6.996  13.840  0.00  0.00    +0.000 OA
ATOM     19  N   UNL     1      47.484   7.368  14.489  0.00  0.00    +0.000 N 
ATOM     20  H   UNL     1      46.774   7.247  15.198  0.00  0.00    +0.000 HD
BRANCH  17  28
ATOM     21  C   UNL     1      47.259   4.211  16.285  0.00  0.00    +0.000 A 
ATOM     22  N   UNL     1      46.921   3.173  17.074  0.00  0.00    +0.000 NA
ATOM     23  C   UNL     1      47.640   2.967  18.181  0.00  0.00    +0.000 A 
ATOM     24  N   UNL     1      48.664   3.694  18.620  0.00  0.00    +0.000 NA
ATOM     25  C   UNL     1      48.975   4.712  17.798  0.00  0.00    +0.000 A 
ATOM     26  S   UNL     1      50.250   5.757  18.204  0.00  0.00    +0.000 S 
ATOM     27  C   UNL     1      50.029   6.660  16.782  0.00  0.00    +0.000 A 
ATOM     28  C   UNL     1      49.000   6.189  15.972  0.00  0.00    +0.000 A 
ATOM     29  C   UNL     1      48.350   5.043  16.600  0.00  0.00    +0.000 A 
BRANCH  21  31
ATOM     30  C   UNL     1      47.014   3.660  14.024  0.00  0.00    +0.000 C 
ATOM     31  O   UNL     1      46.528   4.416  15.134  0.00  0.00    +0.000 OA
ENDBRANCH  21  31
ENDBRANCH  17  28
ENDBRANCH   1  19
TORSDOF 8
ENDMDL
MODEL 2
REMARK VINA RESULT:    -7.432      1.765      2.125
REMARK INTER + INTRA:         -12.512
REMARK INTER:                 -11.536
REMARK INTRA:                  -0.976
REMARK UNBOUND:                -1.604
REMARK  Name = 
REMARK  9 active torsions:
REMARK  status: ('A' for Active; 'I' for Inactive)
REMARK    1  A    between atoms: C_1  and  O_2
REMARK    2  A    between atoms: O_2  and  C_3
REMARK    3  A    between atoms: C_10  and  C_11
REMARK    4  A    between atoms: N_13  and  C_14
REMARK    5  A    between atoms: C_14  and  C_15
REMARK    6  A    between atoms: C_18  and  C_19
REMARK    7  A    between atoms: C_19  and  O_20
REMARK    8  A    between atoms: O_20  and  C_21
REMARK    9  A    between atoms: C_21  and  C_22
REMARK                            x       y       z     vdW  Elec       q    Type
REMARK                         _______ _______ _______ _____ _____    ______ ____
ROOT
ATOM      1  C   UNL     1      48.437   6.844  13.475  0.00  0.00    +0.000 C 
ENDROOT
BRANCH   1   2
ATOM      2  C   UNL     1      47.291   6.177  12.779  0.00  0.00    +0.000 A 
ATOM      3  C   UNL     1      46.675   5.037  13.304  0.00  0.00    +0.000 A 
ATOM      4  C   UNL     1      45.616   4.447  12.619  0.00  0.00    +0.000 A 
ATOM      5  C   UNL     1      45.178   5.022  11.429  0.00  0.00    +0.000 A 
ATOM      6  N   UNL     1      45.727   6.155  10.926  0.00  0.00    +0.000 NA
ATOM      7  C   UNL     1      46.766   6.698  11.603  0.00  0.00    +0.000 A 
BRANCH   5   8
ATOM      8  C   UNL     1      44.008   4.425  10.680  0.00  0.00    +0.000 C 
BRANCH   8   9
ATOM      9  O   UNL     1      44.409   3.370   9.802  0.00  0.00    +0.000 OA
BRANCH   9  10
ATOM     10  C   UNL     1      44.749   3.851   8.502  0.00  0.00    +0.000 C 
BRANCH  10  11
ATOM     11  C   UNL     1      45.817   2.961   7.931  0.00  0.00    +0.000 A 
ATOM     12  C   UNL     1      46.778   3.475   7.058  0.00  0.00    +0.000 A 
ATOM     13  C   UNL     1      47.760   2.627   6.567  0.00  0.00    +0.000 A 
ATOM     14  N   UNL     1      47.848   1.319   6.894  0.00  0.00    +0.000 NA
ATOM     15  C   UNL     1      46.911   0.841   7.739  0.00  0.00    +0.000 A 
ATOM     16  C   UNL     1      45.892   1.610   8.277  0.00  0.00    +0.000 A 
ENDBRANCH  10  11
ENDBRANCH   9  10
ENDBRANCH   8   9
ENDBRANCH   5   8
ENDBRANCH   1   2
BRANCH   1  19
ATOM     17  C   UNL     1      49.135   6.844  15.833  0.00  0.00    +0.000 C 
ATOM     18  O   UNL     1      50.287   6.555  15.522  0.00  0.00    +0.000 OA
ATOM     19  N   UNL     1      48.166   7.014  14.880  0.00  0.00    +0.000 N 
ATOM     20  H   UNL     1      47.220   7.238  15.156  0.00  0.00    +0.000 HD
BRANCH  17  28
ATOM     21  C   UNL     1      48.902   4.673  18.494  0.00  0.00    +0.000 A 
ATOM     22  N   UNL     1      48.794   4.071  19.694  0.00  0.00    +0.000 NA
ATOM     23  C   UNL     1      48.430   4.819  20.739  0.00  0.00    +0.000 A 
ATOM     24  N   UNL     1      48.136   6.117  20.734  0.00  0.00    +0.000 NA
ATOM     25  C   UNL     1      48.268   6.679  19.520  0.00  0.00    +0.000 A 
ATOM     26  S   UNL     1      47.922   8.329  19.319  0.00  0.00    +0.000 S 
ATOM     27  C   UNL     1      48.321   8.264  17.670  0.00  0.00    +0.000 A 
ATOM     28  C   UNL     1      48.730   7.005  17.240  0.00  0.00    +0.000 A 
ATOM     29  C   UNL     1      48.664   6.052  18.343  0.00  0.00    +0.000 A 
BRANCH  21  31
ATOM     30  C   UNL     1      48.195   3.273  16.756  0.00  0.00    +0.000 C 
ATOM     31  O   UNL     1      49.293   3.905  17.416  0.00  0.00    +0.000 OA
ENDBRANCH  21  31
ENDBRANCH  17  28
ENDBRANCH   1  19
TORSDOF 8
ENDMDL
MODEL 3
REMARK VINA RESULT:    -7.423      2.095      2.763
REMARK INTER + INTRA:         -12.499
REMARK INTER:                 -11.597
REMARK INTRA:                  -0.901
REMARK UNBOUND:                -1.604
REMARK  Name = 
REMARK  9 active torsions:
REMARK  status: ('A' for Active; 'I' for Inactive)
REMARK    1  A    between atoms: C_1  and  O_2
REMARK    2  A    between atoms: O_2  and  C_3
REMARK    3  A    between atoms: C_10  and  C_11
REMARK    4  A    between atoms: N_13  and  C_14
REMARK    5  A    between atoms: C_14  and  C_15
REMARK    6  A    between atoms: C_18  and  C_19
REMARK    7  A    between atoms: C_19  and  O_20
REMARK    8  A    between atoms: O_20  and  C_21
REMARK    9  A    between atoms: C_21  and  C_22
REMARK                            x       y       z     vdW  Elec       q    Type
REMARK                         _______ _______ _______ _____ _____    ______ ____
ROOT
ATOM      1  C   UNL     1      47.873   6.662  13.659  0.00  0.00    +0.000 C 
ENDROOT
BRANCH   1   2
ATOM      2  C   UNL     1      46.806   6.002  12.841  0.00  0.00    +0.000 A 
ATOM      3  C   UNL     1      46.275   4.758  13.192  0.00  0.00    +0.000 A 
ATOM      4  C   UNL     1      45.289   4.179  12.399  0.00  0.00    +0.000 A 
ATOM      5  C   UNL     1      44.835   4.867  11.277  0.00  0.00    +0.000 A 
ATOM      6  N   UNL     1      45.300   6.097  10.944  0.00  0.00    +0.000 NA
ATOM      7  C   UNL     1      46.270   6.628  11.723  0.00  0.00    +0.000 A 
BRANCH   5   8
ATOM      8  C   UNL     1      43.740   4.281  10.415  0.00  0.00    +0.000 C 
BRANCH   8   9
ATOM      9  O   UNL     1      44.240   3.312   9.489  0.00  0.00    +0.000 OA
BRANCH   9  10
ATOM     10  C   UNL     1      44.858   3.919   8.355  0.00  0.00    +0.000 C 
BRANCH  10  11
ATOM     11  C   UNL     1      45.872   2.960   7.797  0.00  0.00    +0.000 A 
ATOM     12  C   UNL     1      46.792   3.381   6.834  0.00  0.00    +0.000 A 
ATOM     13  C   UNL     1      47.725   2.472   6.357  0.00  0.00    +0.000 A 
ATOM     14  N   UNL     1      47.804   1.192   6.779  0.00  0.00    +0.000 NA
ATOM     15  C   UNL     1      46.907   0.804   7.710  0.00  0.00    +0.000 A 
ATOM     16  C   UNL     1      45.936   1.638   8.242  0.00  0.00    +0.000 A 
ENDBRANCH  10  11
ENDBRANCH   9  10
ENDBRANCH   8   9
ENDBRANCH   5   8
ENDBRANCH   1   2
BRANCH   1  19
ATOM     17  C   UNL     1      48.904   6.250  15.853  0.00  0.00    +0.000 C 
ATOM     18  O   UNL     1      49.999   6.624  15.441  0.00  0.00    +0.000 OA
ATOM     19  N   UNL     1      47.804   6.249  15.038  0.00  0.00    +0.000 N 
ATOM     20  H   UNL     1      46.914   5.924  15.391  0.00  0.00    +0.000 HD
BRANCH  17  28
ATOM     21  C   UNL     1      47.918   7.768  18.781  0.00  0.00    +0.000 A 
ATOM     22  N   UNL     1      47.500   8.085  20.022  0.00  0.00    +0.000 NA
ATOM     23  C   UNL     1      47.460   7.111  20.937  0.00  0.00    +0.000 A 
ATOM     24  N   UNL     1      47.809   5.838  20.770  0.00  0.00    +0.000 NA
ATOM     25  C   UNL     1      48.209   5.564  19.516  0.00  0.00    +0.000 A 
ATOM     26  S   UNL     1      48.706   3.990  19.121  0.00  0.00    +0.000 S 
ATOM     27  C   UNL     1      48.999   4.432  17.508  0.00  0.00    +0.000 A 
ATOM     28  C   UNL     1      48.720   5.768  17.233  0.00  0.00    +0.000 A 
ATOM     29  C   UNL     1      48.280   6.450  18.446  0.00  0.00    +0.000 A 
BRANCH  21  31
ATOM     30  C   UNL     1      49.220   9.408  17.734  0.00  0.00    +0.000 C 
ATOM     31  O   UNL     1      47.946   8.768  17.832  0.00  0.00    +0.000 OA
ENDBRANCH  21  31
ENDBRANCH  17  28
ENDBRANCH   1  19
TORSDOF 8
ENDMDL
MODEL 4
REMARK VINA RESULT:    -7.242      2.009      3.760
REMARK INTER + INTRA:         -12.233
REMARK INTER:                 -10.934
REMARK INTRA:                  -1.299
REMARK UNBOUND:                -1.604
REMARK  Name = 
REMARK  9 active torsions:
REMARK  status: ('A' for Active; 'I' for Inactive)
REMARK    1  A    between atoms: C_1  and  O_2
REMARK    2  A    between atoms: O_2  and  C_3
REMARK    3  A    between atoms: C_10  and  C_11
REMARK    4  A    between atoms: N_13  and  C_14
REMARK    5  A    between atoms: C_14  and  C_15
REMARK    6  A    between atoms: C_18  and  C_19
REMARK    7  A    between atoms: C_19  and  O_20
REMARK    8  A    between atoms: O_20  and  C_21
REMARK    9  A    between atoms: C_21  and  C_22
REMARK                            x       y       z     vdW  Elec       q    Type
REMARK                         _______ _______ _______ _____ _____    ______ ____
ROOT
ATOM      1  C   UNL     1      47.082   4.386  14.912  0.00  0.00    +0.000 C 
ENDROOT
BRANCH   1   2
ATOM      2  C   UNL     1      46.199   4.449  13.704  0.00  0.00    +0.000 A 
ATOM      3  C   UNL     1      45.627   5.650  13.273  0.00  0.00    +0.000 A 
ATOM      4  C   UNL     1      44.808   5.660  12.148  0.00  0.00    +0.000 A 
ATOM      5  C   UNL     1      44.591   4.469  11.460  0.00  0.00    +0.000 A 
ATOM      6  N   UNL     1      45.174   3.301  11.830  0.00  0.00    +0.000 NA
ATOM      7  C   UNL     1      45.952   3.317  12.937  0.00  0.00    +0.000 A 
BRANCH   5   8
ATOM      8  C   UNL     1      43.735   4.453  10.214  0.00  0.00    +0.000 C 
BRANCH   8   9
ATOM      9  O   UNL     1      44.212   3.521   9.240  0.00  0.00    +0.000 OA
BRANCH   9  10
ATOM     10  C   UNL     1      45.109   4.126   8.310  0.00  0.00    +0.000 C 
BRANCH  10  11
ATOM     11  C   UNL     1      46.045   3.067   7.796  0.00  0.00    +0.000 A 
ATOM     12  C   UNL     1      45.949   1.752   8.255  0.00  0.00    +0.000 A 
ATOM     13  C   UNL     1      46.818   0.799   7.744  0.00  0.00    +0.000 A 
ATOM     14  N   UNL     1      47.756   1.068   6.811  0.00  0.00    +0.000 NA
ATOM     15  C   UNL     1      47.832   2.344   6.379  0.00  0.00    +0.000 A 
ATOM     16  C   UNL     1      47.012   3.364   6.834  0.00  0.00    +0.000 A 
ENDBRANCH  10  11
ENDBRANCH   9  10
ENDBRANCH   8   9
ENDBRANCH   5   8
ENDBRANCH   1   2
BRANCH   1  19
ATOM     17  C   UNL     1      48.638   5.877  16.095  0.00  0.00    +0.000 C 
ATOM     18  O   UNL     1      49.276   4.919  16.524  0.00  0.00    +0.000 OA
ATOM     19  N   UNL     1      47.549   5.697  15.285  0.00  0.00    +0.000 N 
ATOM     20  H   UNL     1      47.029   6.498  14.954  0.00  0.00    +0.000 HD
BRANCH  17  28
ATOM     21  C   UNL     1      48.783   8.808  14.296  0.00  0.00    +0.000 A 
ATOM     22  N   UNL     1      48.852  10.080  13.858  0.00  0.00    +0.000 NA
ATOM     23  C   UNL     1      49.183  11.029  14.739  0.00  0.00    +0.000 A 
ATOM     24  N   UNL     1      49.478  10.861  16.025  0.00  0.00    +0.000 NA
ATOM     25  C   UNL     1      49.385   9.580  16.422  0.00  0.00    +0.000 A 
ATOM     26  S   UNL     1      49.739   9.174  18.032  0.00  0.00    +0.000 S 
ATOM     27  C   UNL     1      49.394   7.535  17.748  0.00  0.00    +0.000 A 
ATOM     28  C   UNL     1      48.998   7.263  16.442  0.00  0.00    +0.000 A 
ATOM     29  C   UNL     1      49.027   8.484  15.643  0.00  0.00    +0.000 A 
BRANCH  21  31
ATOM     30  C   UNL     1      49.495   7.466  12.515  0.00  0.00    +0.000 C 
ATOM     31  O   UNL     1      48.426   7.830  13.391  0.00  0.00    +0.000 OA
ENDBRANCH  21  31
ENDBRANCH  17  28
ENDBRANCH   1  19
TORSDOF 8
ENDMDL
MODEL 5
REMARK VINA RESULT:    -7.093      2.528      3.411
REMARK INTER + INTRA:         -12.014
REMARK INTER:                 -11.023
REMARK INTRA:                  -0.990
REMARK UNBOUND:                -1.604
REMARK  Name = 
REMARK  9 active torsions:
REMARK  status: ('A' for Active; 'I' for Inactive)
REMARK    1  A    between atoms: C_1  and  O_2
REMARK    2  A    between atoms: O_2  and  C_3
REMARK    3  A    between atoms: C_10  and  C_11
REMARK    4  A    between atoms: N_13  and  C_14
REMARK    5  A    between atoms: C_14  and  C_15
REMARK    6  A    between atoms: C_18  and  C_19
REMARK    7  A    between atoms: C_19  and  O_20
REMARK    8  A    between atoms: O_20  and  C_21
REMARK    9  A    between atoms: C_21  and  C_22
REMARK                            x       y       z     vdW  Elec       q    Type
REMARK                         _______ _______ _______ _____ _____    ______ ____
ROOT
ATOM      1  C   UNL     1      47.217   4.373  14.805  0.00  0.00    +0.000 C 
ENDROOT
BRANCH   1   2
ATOM      2  C   UNL     1      46.304   4.442  13.619  0.00  0.00    +0.000 A 
ATOM      3  C   UNL     1      45.822   5.660  13.133  0.00  0.00    +0.000 A 
ATOM      4  C   UNL     1      44.971   5.676  12.031  0.00  0.00    +0.000 A 
ATOM      5  C   UNL     1      44.633   4.470  11.423  0.00  0.00    +0.000 A 
ATOM      6  N   UNL     1      45.127   3.280  11.846  0.00  0.00    +0.000 NA
ATOM      7  C   UNL     1      45.939   3.293  12.929  0.00  0.00    +0.000 A 
BRANCH   5   8
ATOM      8  C   UNL     1      43.739   4.457  10.204  0.00  0.00    +0.000 C 
BRANCH   8   9
ATOM      9  O   UNL     1      44.209   3.556   9.197  0.00  0.00    +0.000 OA
BRANCH   9  10
ATOM     10  C   UNL     1      45.180   4.162   8.344  0.00  0.00    +0.000 C 
BRANCH  10  11
ATOM     11  C   UNL     1      46.015   3.074   7.729  0.00  0.00    +0.000 A 
ATOM     12  C   UNL     1      46.785   3.329   6.591  0.00  0.00    +0.000 A 
ATOM     13  C   UNL     1      47.558   2.304   6.063  0.00  0.00    +0.000 A 
ATOM     14  N   UNL     1      47.619   1.064   6.595  0.00  0.00    +0.000 NA
ATOM     15  C   UNL     1      46.869   0.839   7.694  0.00  0.00    +0.000 A 
ATOM     16  C   UNL     1      46.064   1.797   8.290  0.00  0.00    +0.000 A 
ENDBRANCH  10  11
ENDBRANCH   9  10
ENDBRANCH   8   9
ENDBRANCH   5   8
ENDBRANCH   1   2
BRANCH   1  19
ATOM     17  C   UNL     1      48.590   5.895  16.163  0.00  0.00    +0.000 C 
ATOM     18  O   UNL     1      49.240   4.954  16.611  0.00  0.00    +0.000 OA
ATOM     19  N   UNL     1      47.581   5.691  15.260  0.00  0.00    +0.000 N 
ATOM     20  H   UNL     1      47.047   6.476  14.913  0.00  0.00    +0.000 HD
BRANCH  17  28
ATOM     21  C   UNL     1      47.778   7.702  18.978  0.00  0.00    +0.000 A 
ATOM     22  N   UNL     1      47.662   8.598  19.977  0.00  0.00    +0.000 NA
ATOM     23  C   UNL     1      48.229   9.797  19.812  0.00  0.00    +0.000 A 
ATOM     24  N   UNL     1      48.896  10.229  18.745  0.00  0.00    +0.000 NA
ATOM     25  C   UNL     1      48.998   9.300  17.778  0.00  0.00    +0.000 A 
ATOM     26  S   UNL     1      49.806   9.679  16.334  0.00  0.00    +0.000 S 
ATOM     27  C   UNL     1      49.538   8.120  15.716  0.00  0.00    +0.000 A 
ATOM     28  C   UNL     1      48.845   7.283  16.585  0.00  0.00    +0.000 A 
ATOM     29  C   UNL     1      48.494   8.004  17.804  0.00  0.00    +0.000 A 
BRANCH  21  31
ATOM     30  C   UNL     1      48.004   5.587  19.956  0.00  0.00    +0.000 C 
ATOM     31  O   UNL     1      47.206   6.459  19.153  0.00  0.00    +0.000 OA
ENDBRANCH  21  31
ENDBRANCH  17  28
ENDBRANCH   1  19
TORSDOF 8
ENDMDL
MODEL 6
REMARK VINA RESULT:    -7.059      2.063      3.410
REMARK INTER + INTRA:         -11.964
REMARK INTER:                 -10.862
REMARK INTRA:                  -1.102
REMARK UNBOUND:                -1.604
REMARK  Name = 
REMARK  9 active torsions:
REMARK  status: ('A' for Active; 'I' for Inactive)
REMARK    1  A    between atoms: C_1  and  O_2
REMARK    2  A    between atoms: O_2  and  C_3
REMARK    3  A    between atoms: C_10  and  C_11
REMARK    4  A    between atoms: N_13  and  C_14
REMARK    5  A    between atoms: C_14  and  C_15
REMARK    6  A    between atoms: C_18  and  C_19
REMARK    7  A    between atoms: C_19  and  O_20
REMARK    8  A    between atoms: O_20  and  C_21
REMARK    9  A    between atoms: C_21  and  C_22
REMARK                            x       y       z     vdW  Elec       q    Type
REMARK                         _______ _______ _______ _____ _____    ______ ____
ROOT
ATOM      1  C   UNL     1      47.151   3.902  15.066  0.00  0.00    +0.000 C 
ENDROOT
BRANCH   1   2
ATOM      2  C   UNL     1      46.574   4.369  13.765  0.00  0.00    +0.000 A 
ATOM      3  C   UNL     1      46.827   5.650  13.266  0.00  0.00    +0.000 A 
ATOM      4  C   UNL     1      46.264   6.043  12.055  0.00  0.00    +0.000 A 
ATOM      5  C   UNL     1      45.473   5.137  11.353  0.00  0.00    +0.000 A 
ATOM      6  N   UNL     1      45.254   3.873  11.793  0.00  0.00    +0.000 NA
ATOM      7  C   UNL     1      45.799   3.523  12.981  0.00  0.00    +0.000 A 
BRANCH   5   8
ATOM      8  C   UNL     1      44.876   5.522  10.019  0.00  0.00    +0.000 C 
BRANCH   8   9
ATOM      9  O   UNL     1      45.619   4.987   8.919  0.00  0.00    +0.000 OA
BRANCH   9  10
ATOM     10  C   UNL     1      44.930   3.917   8.274  0.00  0.00    +0.000 C 
BRANCH  10  11
ATOM     11  C   UNL     1      45.951   2.961   7.721  0.00  0.00    +0.000 A 
ATOM     12  C   UNL     1      46.872   3.384   6.760  0.00  0.00    +0.000 A 
ATOM     13  C   UNL     1      47.810   2.478   6.287  0.00  0.00    +0.000 A 
ATOM     14  N   UNL     1      47.893   1.199   6.713  0.00  0.00    +0.000 NA
ATOM     15  C   UNL     1      46.996   0.810   7.643  0.00  0.00    +0.000 A 
ATOM     16  C   UNL     1      46.020   1.641   8.170  0.00  0.00    +0.000 A 
ENDBRANCH  10  11
ENDBRANCH   9  10
ENDBRANCH   8   9
ENDBRANCH   5   8
ENDBRANCH   1   2
BRANCH   1  19
ATOM     17  C   UNL     1      47.866   4.849  17.220  0.00  0.00    +0.000 C 
ATOM     18  O   UNL     1      47.927   3.730  17.724  0.00  0.00    +0.000 OA
ATOM     19  N   UNL     1      47.501   5.016  15.911  0.00  0.00    +0.000 N 
ATOM     20  H   UNL     1      47.442   5.946  15.518  0.00  0.00    +0.000 HD
BRANCH  17  28
ATOM     21  C   UNL     1      49.904   7.569  16.676  0.00  0.00    +0.000 A 
ATOM     22  N   UNL     1      50.546   8.753  16.684  0.00  0.00    +0.000 NA
ATOM     23  C   UNL     1      50.343   9.569  17.722  0.00  0.00    +0.000 A 
ATOM     24  N   UNL     1      49.577   9.340  18.785  0.00  0.00    +0.000 NA
ATOM     25  C   UNL     1      48.946   8.153  18.731  0.00  0.00    +0.000 A 
ATOM     26  S   UNL     1      47.934   7.684  20.011  0.00  0.00    +0.000 S 
ATOM     27  C   UNL     1      47.546   6.224  19.235  0.00  0.00    +0.000 A 
ATOM     28  C   UNL     1      48.162   6.065  17.997  0.00  0.00    +0.000 A 
ATOM     29  C   UNL     1      49.026   7.207  17.715  0.00  0.00    +0.000 A 
BRANCH  21  31
ATOM     30  C   UNL     1      49.831   7.364  14.345  0.00  0.00    +0.000 C 
ATOM     31  O   UNL     1      50.101   6.732  15.598  0.00  0.00    +0.000 OA
ENDBRANCH  21  31
ENDBRANCH  17  28
ENDBRANCH   1  19
TORSDOF 8
ENDMDL
MODEL 7
REMARK VINA RESULT:    -6.934      1.707      2.177
REMARK INTER + INTRA:         -11.781
REMARK INTER:                 -10.652
REMARK INTRA:                  -1.129
REMARK UNBOUND:                -1.604
REMARK  Name = 
REMARK  9 active torsions:
REMARK  status: ('A' for Active; 'I' for Inactive)
REMARK    1  A    between atoms: C_1  and  O_2
REMARK    2  A    between atoms: O_2  and  C_3
REMARK    3  A    between atoms: C_10  and  C_11
REMARK    4  A    between atoms: N_13  and  C_14
REMARK    5  A    between atoms: C_14  and  C_15
REMARK    6  A    between atoms: C_18  and  C_19
REMARK    7  A    between atoms: C_19  and  O_20
REMARK    8  A    between atoms: O_20  and  C_21
REMARK    9  A    between atoms: C_21  and  C_22
REMARK                            x       y       z     vdW  Elec       q    Type
REMARK                         _______ _______ _______ _____ _____    ______ ____
ROOT
ATOM      1  C   UNL     1      47.675   7.607  13.151  0.00  0.00    +0.000 C 
ENDROOT
BRANCH   1   2
ATOM      2  C   UNL     1      46.803   6.507  12.629  0.00  0.00    +0.000 A 
ATOM      3  C   UNL     1      46.262   6.545  11.341  0.00  0.00    +0.000 A 
ATOM      4  C   UNL     1      45.452   5.502  10.901  0.00  0.00    +0.000 A 
ATOM      5  C   UNL     1      45.212   4.428  11.754  0.00  0.00    +0.000 A 
ATOM      6  N   UNL     1      45.765   4.345  12.989  0.00  0.00    +0.000 NA
ATOM      7  C   UNL     1      46.535   5.380  13.397  0.00  0.00    +0.000 A 
BRANCH   5   8
ATOM      8  C   UNL     1      44.365   3.264  11.292  0.00  0.00    +0.000 C 
BRANCH   8   9
ATOM      9  O   UNL     1      44.148   3.279   9.878  0.00  0.00    +0.000 OA
BRANCH   9  10
ATOM     10  C   UNL     1      44.475   2.030   9.270  0.00  0.00    +0.000 C 
BRANCH  10  11
ATOM     11  C   UNL     1      45.621   2.248   8.323  0.00  0.00    +0.000 A 
ATOM     12  C   UNL     1      45.859   3.511   7.777  0.00  0.00    +0.000 A 
ATOM     13  C   UNL     1      46.938   3.678   6.921  0.00  0.00    +0.000 A 
ATOM     14  N   UNL     1      47.788   2.683   6.588  0.00  0.00    +0.000 NA
ATOM     15  C   UNL     1      47.542   1.470   7.126  0.00  0.00    +0.000 A 
ATOM     16  C   UNL     1      46.487   1.206   7.986  0.00  0.00    +0.000 A 
ENDBRANCH  10  11
ENDBRANCH   9  10
ENDBRANCH   8   9
ENDBRANCH   5   8
ENDBRANCH   1   2
BRANCH   1  19
ATOM     17  C   UNL     1      49.094   7.538  15.157  0.00  0.00    +0.000 C 
ATOM     18  O   UNL     1      48.422   8.412  15.698  0.00  0.00    +0.000 OA
ATOM     19  N   UNL     1      48.784   7.080  13.905  0.00  0.00    +0.000 N 
ATOM     20  H   UNL     1      49.358   6.370  13.470  0.00  0.00    +0.000 HD
BRANCH  17  28
ATOM     21  C   UNL     1      49.518   4.992  17.435  0.00  0.00    +0.000 A 
ATOM     22  N   UNL     1      49.967   4.015  18.246  0.00  0.00    +0.000 NA
ATOM     23  C   UNL     1      51.287   3.901  18.418  0.00  0.00    +0.000 A 
ATOM     24  N   UNL     1      52.235   4.667  17.885  0.00  0.00    +0.000 NA
ATOM     25  C   UNL     1      51.744   5.620  17.074  0.00  0.00    +0.000 A 
ATOM     26  S   UNL     1      52.808   6.703  16.314  0.00  0.00    +0.000 S 
ATOM     27  C   UNL     1      51.526   7.492  15.529  0.00  0.00    +0.000 A 
ATOM     28  C   UNL     1      50.275   6.952  15.815  0.00  0.00    +0.000 A 
ATOM     29  C   UNL     1      50.408   5.854  16.767  0.00  0.00    +0.000 A 
BRANCH  21  31
ATOM     30  C   UNL     1      47.450   5.416  18.446  0.00  0.00    +0.000 C 
ATOM     31  O   UNL     1      48.156   5.102  17.244  0.00  0.00    +0.000 OA
ENDBRANCH  21  31
ENDBRANCH  17  28
ENDBRANCH   1  19
TORSDOF 8
ENDMDL
MODEL 8
REMARK VINA RESULT:    -6.386      4.571      9.072
REMARK INTER + INTRA:         -10.977
REMARK INTER:                  -9.996
REMARK INTRA:                  -0.981
REMARK UNBOUND:                -1.604
REMARK  Name = 
REMARK  9 active torsions:
REMARK  status: ('A' for Active; 'I' for Inactive)
REMARK    1  A    between atoms: C_1  and  O_2
REMARK    2  A    between atoms: O_2  and  C_3
REMARK    3  A    between atoms: C_10  and  C_11
REMARK    4  A    between atoms: N_13  and  C_14
REMARK    5  A    between atoms: C_14  and  C_15
REMARK    6  A    between atoms: C_18  and  C_19
REMARK    7  A    between atoms: C_19  and  O_20
REMARK    8  A    between atoms: O_20  and  C_21
REMARK    9  A    between atoms: C_21  and  C_22
REMARK                            x       y       z     vdW  Elec       q    Type
REMARK                         _______ _______ _______ _____ _____    ______ ____
ROOT
ATOM      1  C   UNL     1      47.351   3.225  17.043  0.00  0.00    +0.000 C 
ENDROOT
BRANCH   1   2
ATOM      2  C   UNL     1      48.816   3.196  17.355  0.00  0.00    +0.000 A 
ATOM      3  C   UNL     1      49.627   2.122  16.976  0.00  0.00    +0.000 A 
ATOM      4  C   UNL     1      50.983   2.135  17.293  0.00  0.00    +0.000 A 
ATOM      5  C   UNL     1      51.507   3.235  17.967  0.00  0.00    +0.000 A 
ATOM      6  N   UNL     1      50.751   4.310  18.301  0.00  0.00    +0.000 NA
ATOM      7  C   UNL     1      49.434   4.263  17.997  0.00  0.00    +0.000 A 
BRANCH   5   8
ATOM      8  C   UNL     1      52.982   3.294  18.294  0.00  0.00    +0.000 C 
BRANCH   8   9
ATOM      9  O   UNL     1      53.400   2.197  19.111  0.00  0.00    +0.000 OA
BRANCH   9  10
ATOM     10  C   UNL     1      54.759   1.833  18.870  0.00  0.00    +0.000 C 
BRANCH  10  11
ATOM     11  C   UNL     1      54.776   0.516  18.146  0.00  0.00    +0.000 A 
ATOM     12  C   UNL     1      54.756   0.473  16.750  0.00  0.00    +0.000 A 
ATOM     13  C   UNL     1      54.791  -0.761  16.117  0.00  0.00    +0.000 A 
ATOM     14  N   UNL     1      54.854  -1.937  16.778  0.00  0.00    +0.000 NA
ATOM     15  C   UNL     1      54.873  -1.875  18.126  0.00  0.00    +0.000 A 
ATOM     16  C   UNL     1      54.837  -0.691  18.845  0.00  0.00    +0.000 A 
ENDBRANCH  10  11
ENDBRANCH   9  10
ENDBRANCH   8   9
ENDBRANCH   5   8
ENDBRANCH   1   2
BRANCH   1  19
ATOM     17  C   UNL     1      47.055   4.069  14.753  0.00  0.00    +0.000 C 
ATOM     18  O   UNL     1      47.321   2.967  14.281  0.00  0.00    +0.000 OA
ATOM     19  N   UNL     1      47.039   4.275  16.107  0.00  0.00    +0.000 N 
ATOM     20  H   UNL     1      46.832   5.193  16.475  0.00  0.00    +0.000 HD
BRANCH  17  28
ATOM     21  C   UNL     1      44.436   4.861  12.664  0.00  0.00    +0.000 A 
ATOM     22  N   UNL     1      43.527   5.441  11.857  0.00  0.00    +0.000 NA
ATOM     23  C   UNL     1      43.791   6.667  11.396  0.00  0.00    +0.000 A 
ATOM     24  N   UNL     1      44.881   7.394  11.628  0.00  0.00    +0.000 NA
ATOM     25  C   UNL     1      45.755   6.783  12.446  0.00  0.00    +0.000 A 
ATOM     26  S   UNL     1      47.212   7.557  12.845  0.00  0.00    +0.000 S 
ATOM     27  C   UNL     1      47.688   6.262  13.835  0.00  0.00    +0.000 A 
ATOM     28  C   UNL     1      46.759   5.228  13.893  0.00  0.00    +0.000 A 
ATOM     29  C   UNL     1      45.619   5.529  13.033  0.00  0.00    +0.000 A 
BRANCH  21  31
ATOM     30  C   UNL     1      43.509   2.763  12.197  0.00  0.00    +0.000 C 
ATOM     31  O   UNL     1      44.158   3.602  13.154  0.00  0.00    +0.000 OA
ENDBRANCH  21  31
ENDBRANCH  17  28
ENDBRANCH   1  19
TORSDOF 8
ENDMDL
MODEL 9
REMARK VINA RESULT:    -6.237      3.637      8.468
REMARK INTER + INTRA:         -10.757
REMARK INTER:                  -9.466
REMARK INTRA:                  -1.292
REMARK UNBOUND:                -1.604
REMARK  Name = 
REMARK  9 active torsions:
REMARK  status: ('A' for Active; 'I' for Inactive)
REMARK    1  A    between atoms: C_1  and  O_2
REMARK    2  A    between atoms: O_2  and  C_3
REMARK    3  A    between atoms: C_10  and  C_11
REMARK    4  A    between atoms: N_13  and  C_14
REMARK    5  A    between atoms: C_14  and  C_15
REMARK    6  A    between atoms: C_18  and  C_19
REMARK    7  A    between atoms: C_19  and  O_20
REMARK    8  A    between atoms: O_20  and  C_21
REMARK    9  A    between atoms: C_21  and  C_22
REMARK                            x       y       z     vdW  Elec       q    Type
REMARK                         _______ _______ _______ _____ _____    ______ ____
ROOT
ATOM      1  C   UNL     1      47.145   3.389  16.874  0.00  0.00    +0.000 C 
ENDROOT
BRANCH   1   2
ATOM      2  C   UNL     1      48.579   3.478  17.297  0.00  0.00    +0.000 A 
ATOM      3  C   UNL     1      49.500   2.472  16.993  0.00  0.00    +0.000 A 
ATOM      4  C   UNL     1      50.822   2.595  17.412  0.00  0.00    +0.000 A 
ATOM      5  C   UNL     1      51.204   3.736  18.112  0.00  0.00    +0.000 A 
ATOM      6  N   UNL     1      50.341   4.748  18.377  0.00  0.00    +0.000 NA
ATOM      7  C   UNL     1      49.058   4.594  17.973  0.00  0.00    +0.000 A 
BRANCH   5   8
ATOM      8  C   UNL     1      52.640   3.916  18.550  0.00  0.00    +0.000 C 
BRANCH   8   9
ATOM      9  O   UNL     1      53.139   5.221  18.246  0.00  0.00    +0.000 OA
BRANCH   9  10
ATOM     10  C   UNL     1      54.009   5.214  17.115  0.00  0.00    +0.000 C 
BRANCH  10  11
ATOM     11  C   UNL     1      53.547   6.275  16.155  0.00  0.00    +0.000 A 
ATOM     12  C   UNL     1      54.408   6.765  15.170  0.00  0.00    +0.000 A 
ATOM     13  C   UNL     1      53.940   7.730  14.291  0.00  0.00    +0.000 A 
ATOM     14  N   UNL     1      52.683   8.224  14.325  0.00  0.00    +0.000 NA
ATOM     15  C   UNL     1      51.866   7.737  15.282  0.00  0.00    +0.000 A 
ATOM     16  C   UNL     1      52.245   6.777  16.206  0.00  0.00    +0.000 A 
ENDBRANCH  10  11
ENDBRANCH   9  10
ENDBRANCH   8   9
ENDBRANCH   5   8
ENDBRANCH   1   2
BRANCH   1  19
ATOM     17  C   UNL     1      46.911   4.162  14.552  0.00  0.00    +0.000 C 
ATOM     18  O   UNL     1      47.249   3.062  14.122  0.00  0.00    +0.000 OA
ATOM     19  N   UNL     1      46.826   4.399  15.898  0.00  0.00    +0.000 N 
ATOM     20  H   UNL     1      46.560   5.315  16.233  0.00  0.00    +0.000 HD
BRANCH  17  28
ATOM     21  C   UNL     1      44.144   5.001  12.685  0.00  0.00    +0.000 A 
ATOM     22  N   UNL     1      43.193   5.592  11.935  0.00  0.00    +0.000 NA
ATOM     23  C   UNL     1      43.484   6.767  11.368  0.00  0.00    +0.000 A 
ATOM     24  N   UNL     1      44.634   7.432  11.443  0.00  0.00    +0.000 NA
ATOM     25  C   UNL     1      45.548   6.813  12.209  0.00  0.00    +0.000 A 
ATOM     26  S   UNL     1      47.084   7.509  12.409  0.00  0.00    +0.000 S 
ATOM     27  C   UNL     1      47.579   6.248  13.432  0.00  0.00    +0.000 A 
ATOM     28  C   UNL     1      46.599   5.284  13.650  0.00  0.00    +0.000 A 
ATOM     29  C   UNL     1      45.397   5.609  12.889  0.00  0.00    +0.000 A 
BRANCH  21  31
ATOM     30  C   UNL     1      43.645   2.740  12.340  0.00  0.00    +0.000 C 
ATOM     31  O   UNL     1      43.841   3.796  13.283  0.00  0.00    +0.000 OA
ENDBRANCH  21  31
ENDBRANCH  17  28
ENDBRANCH   1  19
TORSDOF 8
ENDMDL
