MODEL 1
REMARK VINA RESULT:    -8.274      0.000      0.000
REMARK INTER + INTRA:         -13.539
REMARK INTER:                 -12.385
REMARK INTRA:                  -1.155
REMARK UNBOUND:                -1.155
REMARK  Name = 
REMARK  9 active torsions:
REMARK  status: ('A' for Active; 'I' for Inactive)
REMARK    1  A    between atoms: N_1  and  C_2
REMARK    2  A    between atoms: C_2  and  C_3
REMARK    3  A    between atoms: C_3  and  N_4
REMARK    4  A    between atoms: C_3  and  C_26
REMARK    5  A    between atoms: N_4  and  C_5
REMARK    6  A    between atoms: C_5  and  C_6
REMARK    7  A    between atoms: C_9  and  C_10
REMARK    8  A    between atoms: C_10  and  N_11
REMARK    9  A    between atoms: C_12  and  C_14
REMARK                            x       y       z     vdW  Elec       q    Type
REMARK                         _______ _______ _______ _____ _____    ______ ____
ROOT
ATOM      1  C   UNL     1      44.662   6.241  11.323  0.00  0.00    +0.000 A 
ATOM      2  C   UNL     1      44.437   7.578  11.660  0.00  0.00    +0.000 A 
ATOM      3  C   UNL     1      45.391   8.278  12.393  0.00  0.00    +0.000 A 
ATOM      4  C   UNL     1      46.547   7.613  12.789  0.00  0.00    +0.000 A 
ATOM      5  N   UNL     1      46.819   6.331  12.428  0.00  0.00    +0.000 NA
ATOM      6  C   UNL     1      45.877   5.685  11.705  0.00  0.00    +0.000 A 
ENDROOT
BRANCH   1   7
ATOM      7  C   UNL     1      43.614   5.438  10.595  0.00  0.00    +0.000 C 
BRANCH   7   8
ATOM      8  N   UNL     1      44.184   4.806   9.409  0.00  0.00    +0.000 NA
ATOM      9  H   UNL     1      43.640   5.090   8.597  0.00  0.00    +0.000 HD
BRANCH   8  10
ATOM     10  C   UNL     1      44.170   3.323   9.432  0.00  0.00    +0.000 C 
BRANCH  10  11
ATOM     11  C   UNL     1      45.290   2.773   8.534  0.00  0.00    +0.000 A 
ATOM     12  C   UNL     1      45.934   3.595   7.603  0.00  0.00    +0.000 A 
ATOM     13  C   UNL     1      46.932   3.060   6.795  0.00  0.00    +0.000 A 
ATOM     14  C   UNL     1      47.281   1.727   6.944  0.00  0.00    +0.000 A 
ATOM     15  C   UNL     1      46.609   0.979   7.899  0.00  0.00    +0.000 A 
ATOM     16  N   UNL     1      45.628   1.467   8.690  0.00  0.00    +0.000 NA
ENDBRANCH  10  11
BRANCH  10  17
ATOM     17  C   UNL     1      44.322   2.654  10.835  0.00  0.00    +0.000 C 
BRANCH  17  18
ATOM     18  N   UNL     1      43.081   2.151  11.447  0.00  0.00    +0.000 NA
ATOM     19  H   UNL     1      42.285   2.488  10.907  0.00  0.00    +0.000 HD
ATOM     20  H   UNL     1      42.983   2.536  12.385  0.00  0.00    +0.000 HD
ENDBRANCH  17  18
ENDBRANCH  10  17
ENDBRANCH   8  10
ENDBRANCH   7   8
ENDBRANCH   1   7
BRANCH   4  21
ATOM     21  C   UNL     1      47.561   8.310  13.657  0.00  0.00    +0.000 C 
BRANCH  21  22
ATOM     22  N   UNL     1      47.875   7.553  14.845  0.00  0.00    +0.000 N 
ATOM     23  C   UNL     1      49.096   6.967  15.035  0.00  0.00    +0.000 C 
ATOM     24  O   UNL     1      49.996   7.052  14.202  0.00  0.00    +0.000 OA
ATOM     25  H   UNL     1      47.081   7.273  15.413  0.00  0.00    +0.000 HD
BRANCH  23  26
ATOM     26  C   UNL     1      49.308   6.291  16.320  0.00  0.00    +0.000 A 
ATOM     27  C   UNL     1      50.270   6.779  17.195  0.00  0.00    +0.000 A 
ATOM     28  S   UNL     1      50.366   5.913  18.660  0.00  0.00    +0.000 S 
ATOM     29  C   UNL     1      49.159   4.824  18.160  0.00  0.00    +0.000 A 
ATOM     30  N   UNL     1      48.774   3.795  18.957  0.00  0.00    +0.000 NA
ATOM     31  C   UNL     1      47.869   3.030  18.444  0.00  0.00    +0.000 A 
ATOM     32  N   UNL     1      47.303   3.213  17.209  0.00  0.00    +0.000 N 
ATOM     33  C   UNL     1      47.625   4.268  16.389  0.00  0.00    +0.000 A 
ATOM     34  O   UNL     1      47.039   4.449  15.326  0.00  0.00    +0.000 OA
ATOM     35  C   UNL     1      48.663   5.138  16.903  0.00  0.00    +0.000 A 
ATOM     36  H   UNL     1      46.583   2.591  16.872  0.00  0.00    +0.000 HD
ENDBRANCH  23  26
ENDBRANCH  21  22
ENDBRANCH   4  21
TORSDOF 9
ENDMDL
MODEL 2
REMARK VINA RESULT:    -7.909      0.873      1.290
REMARK INTER + INTRA:         -12.993
REMARK INTER:                 -12.260
REMARK INTRA:                  -0.733
REMARK UNBOUND:                -1.155
REMARK  Name = 
REMARK  9 active torsions:
REMARK  status: ('A' for Active; 'I' for Inactive)
REMARK    1  A    between atoms: N_1  and  C_2
REMARK    2  A    between atoms: C_2  and  C_3
REMARK    3  A    between atoms: C_3  and  N_4
REMARK    4  A    between atoms: C_3  and  C_26
REMARK    5  A    between atoms: N_4  and  C_5
REMARK    6  A    between atoms: C_5  and  C_6
REMARK    7  A    between atoms: C_9  and  C_10
REMARK    8  A    between atoms: C_10  and  N_11
REMARK    9  A    between atoms: C_12  and  C_14
REMARK                            x       y       z     vdW  Elec       q    Type
REMARK                         _______ _______ _______ _____ _____    ______ ____
ROOT
ATOM      1  C   UNL     1      44.386   6.108  11.522  0.00  0.00    +0.000 A 
ATOM      2  C   UNL     1      45.252   5.477  12.418  0.00  0.00    +0.000 A 
ATOM      3  C   UNL     1      46.191   6.228  13.118  0.00  0.00    +0.000 A 
ATOM      4  C   UNL     1      46.255   7.598  12.889  0.00  0.00    +0.000 A 
ATOM      5  N   UNL     1      45.389   8.247  12.066  0.00  0.00    +0.000 NA
ATOM      6  C   UNL     1      44.481   7.490  11.412  0.00  0.00    +0.000 A 
ENDROOT
BRANCH   1   7
ATOM      7  C   UNL     1      43.409   5.311  10.695  0.00  0.00    +0.000 C 
BRANCH   7   8
ATOM      8  N   UNL     1      44.053   4.808   9.484  0.00  0.00    +0.000 NA
ATOM      9  H   UNL     1      43.491   5.084   8.681  0.00  0.00    +0.000 HD
BRANCH   8  10
ATOM     10  C   UNL     1      44.187   3.333   9.423  0.00  0.00    +0.000 C 
BRANCH  10  11
ATOM     11  C   UNL     1      45.346   2.949   8.489  0.00  0.00    +0.000 A 
ATOM     12  C   UNL     1      45.820   1.634   8.434  0.00  0.00    +0.000 A 
ATOM     13  C   UNL     1      46.882   1.326   7.590  0.00  0.00    +0.000 A 
ATOM     14  C   UNL     1      47.434   2.325   6.804  0.00  0.00    +0.000 A 
ATOM     15  C   UNL     1      46.900   3.601   6.900  0.00  0.00    +0.000 A 
ATOM     16  N   UNL     1      45.877   3.935   7.720  0.00  0.00    +0.000 NA
ENDBRANCH  10  11
BRANCH  10  17
ATOM     17  C   UNL     1      44.420   2.604  10.785  0.00  0.00    +0.000 C 
BRANCH  17  18
ATOM     18  N   UNL     1      43.215   2.081  11.451  0.00  0.00    +0.000 NA
ATOM     19  H   UNL     1      42.391   2.433  10.968  0.00  0.00    +0.000 HD
ATOM     20  H   UNL     1      43.171   2.438  12.404  0.00  0.00    +0.000 HD
ENDBRANCH  17  18
ENDBRANCH  10  17
ENDBRANCH   8  10
ENDBRANCH   7   8
ENDBRANCH   1   7
BRANCH   4  21
ATOM     21  C   UNL     1      47.315   8.429  13.560  0.00  0.00    +0.000 C 
BRANCH  21  22
ATOM     22  N   UNL     1      47.760   7.847  14.804  0.00  0.00    +0.000 N 
ATOM     23  C   UNL     1      48.920   7.128  14.899  0.00  0.00    +0.000 C 
ATOM     24  O   UNL     1      49.649   6.937  13.929  0.00  0.00    +0.000 OA
ATOM     25  H   UNL     1      47.061   7.789  15.538  0.00  0.00    +0.000 HD
BRANCH  23  26
ATOM     26  C   UNL     1      49.292   6.657  16.238  0.00  0.00    +0.000 A 
ATOM     27  C   UNL     1      50.111   7.447  17.034  0.00  0.00    +0.000 A 
ATOM     28  S   UNL     1      50.417   6.783  18.573  0.00  0.00    +0.000 S 
ATOM     29  C   UNL     1      49.506   5.392  18.217  0.00  0.00    +0.000 A 
ATOM     30  N   UNL     1      49.383   4.387  19.121  0.00  0.00    +0.000 NA
ATOM     31  C   UNL     1      48.686   3.380  18.711  0.00  0.00    +0.000 A 
ATOM     32  N   UNL     1      48.089   3.296  17.480  0.00  0.00    +0.000 N 
ATOM     33  C   UNL     1      48.145   4.308  16.551  0.00  0.00    +0.000 A 
ATOM     34  O   UNL     1      47.529   4.234  15.493  0.00  0.00    +0.000 OA
ATOM     35  C   UNL     1      48.945   5.449  16.949  0.00  0.00    +0.000 A 
ATOM     36  H   UNL     1      47.539   2.489  17.225  0.00  0.00    +0.000 HD
ENDBRANCH  23  26
ENDBRANCH  21  22
ENDBRANCH   4  21
TORSDOF 9
ENDMDL
MODEL 3
REMARK VINA RESULT:    -7.647      1.625      1.961
REMARK INTER + INTRA:         -12.601
REMARK INTER:                 -11.193
REMARK INTRA:                  -1.408
REMARK UNBOUND:                -1.155
REMARK  Name = 
REMARK  9 active torsions:
REMARK  status: ('A' for Active; 'I' for Inactive)
REMARK    1  A    between atoms: N_1  and  C_2
REMARK    2  A    between atoms: C_2  and  C_3
REMARK    3  A    between atoms: C_3  and  N_4
REMARK    4  A    between atoms: C_3  and  C_26
REMARK    5  A    between atoms: N_4  and  C_5
REMARK    6  A    between atoms: C_5  and  C_6
REMARK    7  A    between atoms: C_9  and  C_10
REMARK    8  A    between atoms: C_10  and  N_11
REMARK    9  A    between atoms: C_12  and  C_14
REMARK                            x       y       z     vdW  Elec       q    Type
REMARK                         _______ _______ _______ _____ _____    ______ ____
ROOT
ATOM      1  C   UNL     1      45.203   6.747  11.970  0.00  0.00    +0.000 A 
ATOM      2  C   UNL     1      46.410   6.315  11.413  0.00  0.00    +0.000 A 
ATOM      3  C   UNL     1      47.594   6.972  11.732  0.00  0.00    +0.000 A 
ATOM      4  C   UNL     1      47.539   8.065  12.592  0.00  0.00    +0.000 A 
ATOM      5  N   UNL     1      46.390   8.472  13.192  0.00  0.00    +0.000 NA
ATOM      6  C   UNL     1      45.261   7.803  12.870  0.00  0.00    +0.000 A 
ENDROOT
BRANCH   1   7
ATOM      7  C   UNL     1      43.897   6.101  11.583  0.00  0.00    +0.000 C 
BRANCH   7   8
ATOM      8  N   UNL     1      43.982   5.535  10.240  0.00  0.00    +0.000 NA
ATOM      9  H   UNL     1      43.245   5.944   9.669  0.00  0.00    +0.000 HD
BRANCH   8  10
ATOM     10  C   UNL     1      43.801   4.064  10.178  0.00  0.00    +0.000 C 
BRANCH  10  11
ATOM     11  C   UNL     1      44.829   3.449   9.214  0.00  0.00    +0.000 A 
ATOM     12  C   UNL     1      45.589   4.258   8.362  0.00  0.00    +0.000 A 
ATOM     13  C   UNL     1      46.499   3.666   7.491  0.00  0.00    +0.000 A 
ATOM     14  C   UNL     1      46.647   2.288   7.501  0.00  0.00    +0.000 A 
ATOM     15  C   UNL     1      45.871   1.554   8.385  0.00  0.00    +0.000 A 
ATOM     16  N   UNL     1      44.971   2.099   9.235  0.00  0.00    +0.000 NA
ENDBRANCH  10  11
BRANCH  10  17
ATOM     17  C   UNL     1      43.911   3.297  11.534  0.00  0.00    +0.000 C 
BRANCH  17  18
ATOM     18  N   UNL     1      43.037   2.122  11.681  0.00  0.00    +0.000 NA
ATOM     19  H   UNL     1      43.157   1.516  10.871  0.00  0.00    +0.000 HD
ATOM     20  H   UNL     1      42.063   2.419  11.684  0.00  0.00    +0.000 HD
ENDBRANCH  17  18
ENDBRANCH  10  17
ENDBRANCH   8  10
ENDBRANCH   7   8
ENDBRANCH   1   7
BRANCH   4  21
ATOM     21  C   UNL     1      48.785   8.856  12.891  0.00  0.00    +0.000 C 
BRANCH  21  22
ATOM     22  N   UNL     1      49.726   8.111  13.693  0.00  0.00    +0.000 N 
ATOM     23  C   UNL     1      49.653   8.077  15.059  0.00  0.00    +0.000 C 
ATOM     24  O   UNL     1      48.781   8.679  15.680  0.00  0.00    +0.000 OA
ATOM     25  H   UNL     1      50.576   7.819  13.219  0.00  0.00    +0.000 HD
BRANCH  23  26
ATOM     26  C   UNL     1      50.626   7.220  15.746  0.00  0.00    +0.000 A 
ATOM     27  C   UNL     1      51.977   7.537  15.682  0.00  0.00    +0.000 A 
ATOM     28  S   UNL     1      52.973   6.472  16.564  0.00  0.00    +0.000 S 
ATOM     29  C   UNL     1      51.642   5.520  17.026  0.00  0.00    +0.000 A 
ATOM     30  N   UNL     1      51.809   4.409  17.788  0.00  0.00    +0.000 NA
ATOM     31  C   UNL     1      50.719   3.765  18.043  0.00  0.00    +0.000 A 
ATOM     32  N   UNL     1      49.473   4.145  17.616  0.00  0.00    +0.000 N 
ATOM     33  C   UNL     1      49.249   5.287  16.885  0.00  0.00    +0.000 A 
ATOM     34  O   UNL     1      48.112   5.640  16.591  0.00  0.00    +0.000 OA
ATOM     35  C   UNL     1      50.446   6.029  16.542  0.00  0.00    +0.000 A 
ATOM     36  H   UNL     1      48.655   3.609  17.866  0.00  0.00    +0.000 HD
ENDBRANCH  23  26
ENDBRANCH  21  22
ENDBRANCH   4  21
TORSDOF 9
ENDMDL
MODEL 4
REMARK VINA RESULT:    -7.527      2.475      2.978
REMARK INTER + INTRA:         -12.422
REMARK INTER:                 -11.265
REMARK INTRA:                  -1.157
REMARK UNBOUND:                -1.155
REMARK  Name = 
REMARK  9 active torsions:
REMARK  status: ('A' for Active; 'I' for Inactive)
REMARK    1  A    between atoms: N_1  and  C_2
REMARK    2  A    between atoms: C_2  and  C_3
REMARK    3  A    between atoms: C_3  and  N_4
REMARK    4  A    between atoms: C_3  and  C_26
REMARK    5  A    between atoms: N_4  and  C_5
REMARK    6  A    between atoms: C_5  and  C_6
REMARK    7  A    between atoms: C_9  and  C_10
REMARK    8  A    between atoms: C_10  and  N_11
REMARK    9  A    between atoms: C_12  and  C_14
REMARK                            x       y       z     vdW  Elec       q    Type
REMARK                         _______ _______ _______ _____ _____    ______ ____
ROOT
ATOM      1  C   UNL     1      47.142   6.265  12.550  0.00  0.00    +0.000 A 
ATOM      2  C   UNL     1      48.003   7.360  12.445  0.00  0.00    +0.000 A 
ATOM      3  C   UNL     1      48.824   7.698  13.516  0.00  0.00    +0.000 A 
ATOM      4  C   UNL     1      48.750   6.940  14.680  0.00  0.00    +0.000 A 
ATOM      5  N   UNL     1      47.964   5.837  14.790  0.00  0.00    +0.000 NA
ATOM      6  C   UNL     1      47.189   5.528  13.727  0.00  0.00    +0.000 A 
ENDROOT
BRANCH   1   7
ATOM      7  C   UNL     1      46.188   5.920  11.434  0.00  0.00    +0.000 C 
BRANCH   7   8
ATOM      8  N   UNL     1      45.565   4.622  11.675  0.00  0.00    +0.000 NA
ATOM      9  H   UNL     1      46.287   3.904  11.643  0.00  0.00    +0.000 HD
BRANCH   8  10
ATOM     10  C   UNL     1      44.538   4.235  10.677  0.00  0.00    +0.000 C 
BRANCH  10  11
ATOM     11  C   UNL     1      45.209   3.573   9.462  0.00  0.00    +0.000 A 
ATOM     12  C   UNL     1      45.688   4.344   8.398  0.00  0.00    +0.000 A 
ATOM     13  C   UNL     1      46.275   3.710   7.307  0.00  0.00    +0.000 A 
ATOM     14  C   UNL     1      46.391   2.330   7.308  0.00  0.00    +0.000 A 
ATOM     15  C   UNL     1      45.908   1.634   8.406  0.00  0.00    +0.000 A 
ATOM     16  N   UNL     1      45.322   2.220   9.475  0.00  0.00    +0.000 NA
ENDBRANCH  10  11
BRANCH  10  17
ATOM     17  C   UNL     1      43.417   3.269  11.179  0.00  0.00    +0.000 C 
BRANCH  17  18
ATOM     18  N   UNL     1      43.765   2.425  12.334  0.00  0.00    +0.000 NA
ATOM     19  H   UNL     1      43.204   1.575  12.305  0.00  0.00    +0.000 HD
ATOM     20  H   UNL     1      43.520   2.908  13.196  0.00  0.00    +0.000 HD
ENDBRANCH  17  18
ENDBRANCH  10  17
ENDBRANCH   8  10
ENDBRANCH   7   8
ENDBRANCH   1   7
BRANCH   4  21
ATOM     21  C   UNL     1      49.557   7.329  15.890  0.00  0.00    +0.000 C 
BRANCH  21  22
ATOM     22  N   UNL     1      50.472   6.289  16.294  0.00  0.00    +0.000 N 
ATOM     23  C   UNL     1      50.948   6.192  17.573  0.00  0.00    +0.000 C 
ATOM     24  O   UNL     1      50.622   6.987  18.451  0.00  0.00    +0.000 OA
ATOM     25  H   UNL     1      50.931   5.788  15.539  0.00  0.00    +0.000 HD
BRANCH  23  26
ATOM     26  C   UNL     1      51.812   5.043  17.866  0.00  0.00    +0.000 A 
ATOM     27  C   UNL     1      53.086   5.261  18.373  0.00  0.00    +0.000 A 
ATOM     28  S   UNL     1      53.948   3.828  18.700  0.00  0.00    +0.000 S 
ATOM     29  C   UNL     1      52.668   2.862  18.133  0.00  0.00    +0.000 A 
ATOM     30  N   UNL     1      52.770   1.509  18.113  0.00  0.00    +0.000 NA
ATOM     31  C   UNL     1      51.737   0.901  17.633  0.00  0.00    +0.000 A 
ATOM     32  N   UNL     1      50.604   1.527  17.185  0.00  0.00    +0.000 N 
ATOM     33  C   UNL     1      50.435   2.890  17.231  0.00  0.00    +0.000 A 
ATOM     34  O   UNL     1      49.376   3.411  16.900  0.00  0.00    +0.000 OA
ATOM     35  C   UNL     1      51.581   3.624  17.730  0.00  0.00    +0.000 A 
ATOM     36  H   UNL     1      49.819   0.994  16.839  0.00  0.00    +0.000 HD
ENDBRANCH  23  26
ENDBRANCH  21  22
ENDBRANCH   4  21
TORSDOF 9
ENDMDL
MODEL 5
REMARK VINA RESULT:    -7.274      2.843      8.053
REMARK INTER + INTRA:         -12.043
REMARK INTER:                 -10.598
REMARK INTRA:                  -1.446
REMARK UNBOUND:                -1.155
REMARK  Name = 
REMARK  9 active torsions:
REMARK  status: ('A' for Active; 'I' for Inactive)
REMARK    1  A    between atoms: N_1  and  C_2
REMARK    2  A    between atoms: C_2  and  C_3
REMARK    3  A    between atoms: C_3  and  N_4
REMARK    4  A    between atoms: C_3  and  C_26
REMARK    5  A    between atoms: N_4  and  C_5
REMARK    6  A    between atoms: C_5  and  C_6
REMARK    7  A    between atoms: C_9  and  C_10
REMARK    8  A    between atoms: C_10  and  N_11
REMARK    9  A    between atoms: C_12  and  C_14
REMARK                            x       y       z     vdW  Elec       q    Type
REMARK                         _______ _______ _______ _____ _____    ______ ____
ROOT
ATOM      1  C   UNL     1      49.365   8.255  15.856  0.00  0.00    +0.000 A 
ATOM      2  C   UNL     1      50.002   7.421  14.933  0.00  0.00    +0.000 A 
ATOM      3  C   UNL     1      49.496   7.303  13.642  0.00  0.00    +0.000 A 
ATOM      4  C   UNL     1      48.347   8.012  13.309  0.00  0.00    +0.000 A 
ATOM      5  N   UNL     1      47.739   8.873  14.167  0.00  0.00    +0.000 NA
ATOM      6  C   UNL     1      48.264   8.974  15.408  0.00  0.00    +0.000 A 
ENDROOT
BRANCH   1   7
ATOM      7  C   UNL     1      49.847   8.344  17.281  0.00  0.00    +0.000 C 
BRANCH   7   8
ATOM      8  N   UNL     1      49.774   7.038  17.931  0.00  0.00    +0.000 NA
ATOM      9  H   UNL     1      50.483   6.433  17.522  0.00  0.00    +0.000 HD
BRANCH   8  10
ATOM     10  C   UNL     1      48.475   6.341  17.769  0.00  0.00    +0.000 C 
BRANCH  10  11
ATOM     11  C   UNL     1      48.713   4.873  17.379  0.00  0.00    +0.000 A 
ATOM     12  C   UNL     1      49.864   4.195  17.796  0.00  0.00    +0.000 A 
ATOM     13  C   UNL     1      50.054   2.872  17.411  0.00  0.00    +0.000 A 
ATOM     14  C   UNL     1      49.088   2.246  16.640  0.00  0.00    +0.000 A 
ATOM     15  C   UNL     1      47.965   2.976  16.279  0.00  0.00    +0.000 A 
ATOM     16  N   UNL     1      47.758   4.267  16.627  0.00  0.00    +0.000 NA
ENDBRANCH  10  11
BRANCH  10  17
ATOM     17  C   UNL     1      47.528   6.350  19.011  0.00  0.00    +0.000 C 
BRANCH  17  18
ATOM     18  N   UNL     1      46.361   5.456  18.937  0.00  0.00    +0.000 NA
ATOM     19  H   UNL     1      46.071   5.369  17.965  0.00  0.00    +0.000 HD
ATOM     20  H   UNL     1      45.579   5.874  19.439  0.00  0.00    +0.000 HD
ENDBRANCH  17  18
ENDBRANCH  10  17
ENDBRANCH   8  10
ENDBRANCH   7   8
ENDBRANCH   1   7
BRANCH   4  21
ATOM     21  C   UNL     1      47.719   7.841  11.951  0.00  0.00    +0.000 C 
BRANCH  21  22
ATOM     22  N   UNL     1      46.963   6.616  11.848  0.00  0.00    +0.000 N 
ATOM     23  C   UNL     1      45.599   6.607  11.750  0.00  0.00    +0.000 C 
ATOM     24  O   UNL     1      44.939   7.643  11.744  0.00  0.00    +0.000 OA
ATOM     25  H   UNL     1      47.464   5.767  12.095  0.00  0.00    +0.000 HD
BRANCH  23  26
ATOM     26  C   UNL     1      44.963   5.296  11.576  0.00  0.00    +0.000 A 
ATOM     27  C   UNL     1      44.236   4.747  12.624  0.00  0.00    +0.000 A 
ATOM     28  S   UNL     1      43.525   3.243  12.252  0.00  0.00    +0.000 S 
ATOM     29  C   UNL     1      44.201   3.247  10.692  0.00  0.00    +0.000 A 
ATOM     30  N   UNL     1      43.999   2.209   9.841  0.00  0.00    +0.000 NA
ATOM     31  C   UNL     1      44.591   2.328   8.699  0.00  0.00    +0.000 A 
ATOM     32  N   UNL     1      45.356   3.403   8.328  0.00  0.00    +0.000 N 
ATOM     33  C   UNL     1      45.549   4.498   9.136  0.00  0.00    +0.000 A 
ATOM     34  O   UNL     1      46.171   5.478   8.740  0.00  0.00    +0.000 OA
ATOM     35  C   UNL     1      44.933   4.399  10.445  0.00  0.00    +0.000 A 
ATOM     36  H   UNL     1      45.777   3.447   7.412  0.00  0.00    +0.000 HD
ENDBRANCH  23  26
ENDBRANCH  21  22
ENDBRANCH   4  21
TORSDOF 9
ENDMDL
MODEL 6
REMARK VINA RESULT:    -7.233      3.442      4.575
REMARK INTER + INTRA:         -11.982
REMARK INTER:                 -11.117
REMARK INTRA:                  -0.865
REMARK UNBOUND:                -1.155
REMARK  Name = 
REMARK  9 active torsions:
REMARK  status: ('A' for Active; 'I' for Inactive)
REMARK    1  A    between atoms: N_1  and  C_2
REMARK    2  A    between atoms: C_2  and  C_3
REMARK    3  A    between atoms: C_3  and  N_4
REMARK    4  A    between atoms: C_3  and  C_26
REMARK    5  A    between atoms: N_4  and  C_5
REMARK    6  A    between atoms: C_5  and  C_6
REMARK    7  A    between atoms: C_9  and  C_10
REMARK    8  A    between atoms: C_10  and  N_11
REMARK    9  A    between atoms: C_12  and  C_14
REMARK                            x       y       z     vdW  Elec       q    Type
REMARK                         _______ _______ _______ _____ _____    ______ ____
ROOT
ATOM      1  C   UNL     1      47.191   5.487  13.802  0.00  0.00    +0.000 A 
ATOM      2  C   UNL     1      48.007   6.374  14.508  0.00  0.00    +0.000 A 
ATOM      3  C   UNL     1      48.549   5.993  15.731  0.00  0.00    +0.000 A 
ATOM      4  C   UNL     1      48.242   4.731  16.231  0.00  0.00    +0.000 A 
ATOM      5  N   UNL     1      47.498   3.827  15.541  0.00  0.00    +0.000 NA
ATOM      6  C   UNL     1      47.000   4.226  14.350  0.00  0.00    +0.000 A 
ENDROOT
BRANCH   1   7
ATOM      7  C   UNL     1      46.531   5.901  12.510  0.00  0.00    +0.000 C 
BRANCH   7   8
ATOM      8  N   UNL     1      45.518   4.927  12.117  0.00  0.00    +0.000 NA
ATOM      9  H   UNL     1      45.976   4.034  11.944  0.00  0.00    +0.000 HD
BRANCH   8  10
ATOM     10  C   UNL     1      44.778   5.271  10.879  0.00  0.00    +0.000 C 
BRANCH  10  11
ATOM     11  C   UNL     1      45.189   4.323   9.741  0.00  0.00    +0.000 A 
ATOM     12  C   UNL     1      44.930   2.950   9.820  0.00  0.00    +0.000 A 
ATOM     13  C   UNL     1      45.330   2.119   8.778  0.00  0.00    +0.000 A 
ATOM     14  C   UNL     1      45.959   2.673   7.675  0.00  0.00    +0.000 A 
ATOM     15  C   UNL     1      46.167   4.043   7.660  0.00  0.00    +0.000 A 
ATOM     16  N   UNL     1      45.801   4.875   8.661  0.00  0.00    +0.000 NA
ENDBRANCH  10  11
BRANCH  10  17
ATOM     17  C   UNL     1      43.219   5.242  10.975  0.00  0.00    +0.000 C 
BRANCH  17  18
ATOM     18  N   UNL     1      42.553   6.553  11.047  0.00  0.00    +0.000 NA
ATOM     19  H   UNL     1      42.143   6.666  11.972  0.00  0.00    +0.000 HD
ATOM     20  H   UNL     1      41.784   6.581  10.380  0.00  0.00    +0.000 HD
ENDBRANCH  17  18
ENDBRANCH  10  17
ENDBRANCH   8  10
ENDBRANCH   7   8
ENDBRANCH   1   7
BRANCH   4  21
ATOM     21  C   UNL     1      48.736   4.316  17.592  0.00  0.00    +0.000 C 
BRANCH  21  22
ATOM     22  N   UNL     1      50.125   3.924  17.573  0.00  0.00    +0.000 N 
ATOM     23  C   UNL     1      50.973   4.193  18.612  0.00  0.00    +0.000 C 
ATOM     24  O   UNL     1      50.599   4.785  19.622  0.00  0.00    +0.000 OA
ATOM     25  H   UNL     1      50.497   3.662  16.665  0.00  0.00    +0.000 HD
BRANCH  23  26
ATOM     26  C   UNL     1      52.340   3.673  18.495  0.00  0.00    +0.000 A 
ATOM     27  C   UNL     1      53.409   4.476  18.870  0.00  0.00    +0.000 A 
ATOM     28  S   UNL     1      54.926   3.715  18.715  0.00  0.00    +0.000 S 
ATOM     29  C   UNL     1      54.215   2.299  18.097  0.00  0.00    +0.000 A 
ATOM     30  N   UNL     1      54.978   1.239  17.727  0.00  0.00    +0.000 NA
ATOM     31  C   UNL     1      54.312   0.241  17.250  0.00  0.00    +0.000 A 
ATOM     32  N   UNL     1      52.948   0.204  17.124  0.00  0.00    +0.000 N 
ATOM     33  C   UNL     1      52.132   1.232  17.529  0.00  0.00    +0.000 A 
ATOM     34  O   UNL     1      50.911   1.132  17.479  0.00  0.00    +0.000 OA
ATOM     35  C   UNL     1      52.832   2.393  18.041  0.00  0.00    +0.000 A 
ATOM     36  H   UNL     1      52.484  -0.616  16.761  0.00  0.00    +0.000 HD
ENDBRANCH  23  26
ENDBRANCH  21  22
ENDBRANCH   4  21
TORSDOF 9
ENDMDL
MODEL 7
REMARK VINA RESULT:    -7.186      3.004      4.675
REMARK INTER + INTRA:         -11.912
REMARK INTER:                 -10.819
REMARK INTRA:                  -1.093
REMARK UNBOUND:                -1.155
REMARK  Name = 
REMARK  9 active torsions:
REMARK  status: ('A' for Active; 'I' for Inactive)
REMARK    1  A    between atoms: N_1  and  C_2
REMARK    2  A    between atoms: C_2  and  C_3
REMARK    3  A    between atoms: C_3  and  N_4
REMARK    4  A    between atoms: C_3  and  C_26
REMARK    5  A    between atoms: N_4  and  C_5
REMARK    6  A    between atoms: C_5  and  C_6
REMARK    7  A    between atoms: C_9  and  C_10
REMARK    8  A    between atoms: C_10  and  N_11
REMARK    9  A    between atoms: C_12  and  C_14
REMARK                            x       y       z     vdW  Elec       q    Type
REMARK                         _______ _______ _______ _____ _____    ______ ____
ROOT
ATOM      1  C   UNL     1      46.996   4.946  13.996  0.00  0.00    +0.000 A 
ATOM      2  C   UNL     1      47.371   5.698  15.112  0.00  0.00    +0.000 A 
ATOM      3  C   UNL     1      47.860   5.057  16.246  0.00  0.00    +0.000 A 
ATOM      4  C   UNL     1      47.944   3.668  16.243  0.00  0.00    +0.000 A 
ATOM      5  N   UNL     1      47.640   2.915  15.153  0.00  0.00    +0.000 NA
ATOM      6  C   UNL     1      47.182   3.571  14.064  0.00  0.00    +0.000 A 
ENDROOT
BRANCH   1   7
ATOM      7  C   UNL     1      46.394   5.608  12.782  0.00  0.00    +0.000 C 
BRANCH   7   8
ATOM      8  N   UNL     1      45.355   4.764  12.200  0.00  0.00    +0.000 NA
ATOM      9  H   UNL     1      45.753   3.847  12.005  0.00  0.00    +0.000 HD
BRANCH   8  10
ATOM     10  C   UNL     1      44.796   5.266  10.922  0.00  0.00    +0.000 C 
BRANCH  10  11
ATOM     11  C   UNL     1      45.202   4.333   9.769  0.00  0.00    +0.000 A 
ATOM     12  C   UNL     1      44.985   2.953   9.850  0.00  0.00    +0.000 A 
ATOM     13  C   UNL     1      45.380   2.137   8.795  0.00  0.00    +0.000 A 
ATOM     14  C   UNL     1      45.962   2.712   7.676  0.00  0.00    +0.000 A 
ATOM     15  C   UNL     1      46.130   4.088   7.661  0.00  0.00    +0.000 A 
ATOM     16  N   UNL     1      45.768   4.906   8.675  0.00  0.00    +0.000 NA
ENDBRANCH  10  11
BRANCH  10  17
ATOM     17  C   UNL     1      43.244   5.434  10.865  0.00  0.00    +0.000 C 
BRANCH  17  18
ATOM     18  N   UNL     1      42.729   6.774  11.191  0.00  0.00    +0.000 NA
ATOM     19  H   UNL     1      42.159   7.107  10.416  0.00  0.00    +0.000 HD
ATOM     20  H   UNL     1      43.508   7.425  11.284  0.00  0.00    +0.000 HD
ENDBRANCH  17  18
ENDBRANCH  10  17
ENDBRANCH   8  10
ENDBRANCH   7   8
ENDBRANCH   1   7
BRANCH   4  21
ATOM     21  C   UNL     1      48.383   2.934  17.482  0.00  0.00    +0.000 C 
BRANCH  21  22
ATOM     22  N   UNL     1      49.743   3.248  17.850  0.00  0.00    +0.000 N 
ATOM     23  C   UNL     1      50.808   2.522  17.393  0.00  0.00    +0.000 C 
ATOM     24  O   UNL     1      50.668   1.560  16.641  0.00  0.00    +0.000 OA
ATOM     25  H   UNL     1      49.852   3.869  18.646  0.00  0.00    +0.000 HD
BRANCH  23  26
ATOM     26  C   UNL     1      52.141   2.995  17.784  0.00  0.00    +0.000 A 
ATOM     27  C   UNL     1      53.034   2.108  18.372  0.00  0.00    +0.000 A 
ATOM     28  S   UNL     1      54.550   2.798  18.729  0.00  0.00    +0.000 S 
ATOM     29  C   UNL     1      54.056   4.320  18.156  0.00  0.00    +0.000 A 
ATOM     30  N   UNL     1      54.892   5.389  18.202  0.00  0.00    +0.000 NA
ATOM     31  C   UNL     1      54.381   6.489  17.760  0.00  0.00    +0.000 A 
ATOM     32  N   UNL     1      53.110   6.611  17.261  0.00  0.00    +0.000 N 
ATOM     33  C   UNL     1      52.245   5.548  17.149  0.00  0.00    +0.000 A 
ATOM     34  O   UNL     1      51.145   5.676  16.622  0.00  0.00    +0.000 OA
ATOM     35  C   UNL     1      52.759   4.295  17.665  0.00  0.00    +0.000 A 
ATOM     36  H   UNL     1      52.774   7.496  16.910  0.00  0.00    +0.000 HD
ENDBRANCH  23  26
ENDBRANCH  21  22
ENDBRANCH   4  21
TORSDOF 9
ENDMDL
MODEL 8
REMARK VINA RESULT:    -6.219      3.262      7.748
REMARK INTER + INTRA:         -10.464
REMARK INTER:                  -8.498
REMARK INTRA:                  -1.966
REMARK UNBOUND:                -1.155
REMARK  Name = 
REMARK  9 active torsions:
REMARK  status: ('A' for Active; 'I' for Inactive)
REMARK    1  A    between atoms: N_1  and  C_2
REMARK    2  A    between atoms: C_2  and  C_3
REMARK    3  A    between atoms: C_3  and  N_4
REMARK    4  A    between atoms: C_3  and  C_26
REMARK    5  A    between atoms: N_4  and  C_5
REMARK    6  A    between atoms: C_5  and  C_6
REMARK    7  A    between atoms: C_9  and  C_10
REMARK    8  A    between atoms: C_10  and  N_11
REMARK    9  A    between atoms: C_12  and  C_14
REMARK                            x       y       z     vdW  Elec       q    Type
REMARK                         _______ _______ _______ _____ _____    ______ ____
ROOT
ATOM      1  C   UNL     1      50.034   8.469  16.667  0.00  0.00    +0.000 A 
ATOM      2  C   UNL     1      50.512   7.608  15.676  0.00  0.00    +0.000 A 
ATOM      3  C   UNL     1      50.084   7.761  14.361  0.00  0.00    +0.000 A 
ATOM      4  C   UNL     1      49.166   8.765  14.071  0.00  0.00    +0.000 A 
ATOM      5  N   UNL     1      48.726   9.651  15.003  0.00  0.00    +0.000 NA
ATOM      6  C   UNL     1      49.173   9.483  16.267  0.00  0.00    +0.000 A 
ENDROOT
BRANCH   1   7
ATOM      7  C   UNL     1      50.423   8.280  18.111  0.00  0.00    +0.000 C 
BRANCH   7   8
ATOM      8  N   UNL     1      50.039   6.950  18.577  0.00  0.00    +0.000 NA
ATOM      9  H   UNL     1      50.677   6.268  18.171  0.00  0.00    +0.000 HD
BRANCH   8  10
ATOM     10  C   UNL     1      48.669   6.533  18.191  0.00  0.00    +0.000 C 
BRANCH  10  11
ATOM     11  C   UNL     1      48.680   5.073  17.712  0.00  0.00    +0.000 A 
ATOM     12  C   UNL     1      49.848   4.305  17.772  0.00  0.00    +0.000 A 
ATOM     13  C   UNL     1      49.825   2.991  17.315  0.00  0.00    +0.000 A 
ATOM     14  C   UNL     1      48.639   2.464  16.828  0.00  0.00    +0.000 A 
ATOM     15  C   UNL     1      47.518   3.281  16.815  0.00  0.00    +0.000 A 
ATOM     16  N   UNL     1      47.511   4.564  17.241  0.00  0.00    +0.000 NA
ENDBRANCH  10  11
BRANCH  10  17
ATOM     17  C   UNL     1      47.573   6.657  19.298  0.00  0.00    +0.000 C 
BRANCH  17  18
ATOM     18  N   UNL     1      47.427   5.496  20.192  0.00  0.00    +0.000 NA
ATOM     19  H   UNL     1      48.227   5.460  20.822  0.00  0.00    +0.000 HD
ATOM     20  H   UNL     1      47.449   4.638  19.643  0.00  0.00    +0.000 HD
ENDBRANCH  17  18
ENDBRANCH  10  17
ENDBRANCH   8  10
ENDBRANCH   7   8
ENDBRANCH   1   7
BRANCH   4  21
ATOM     21  C   UNL     1      48.611   8.904  12.678  0.00  0.00    +0.000 C 
BRANCH  21  22
ATOM     22  N   UNL     1      47.661   7.864  12.361  0.00  0.00    +0.000 N 
ATOM     23  C   UNL     1      46.340   7.955  12.703  0.00  0.00    +0.000 C 
ATOM     24  O   UNL     1      45.887   8.929  13.300  0.00  0.00    +0.000 OA
ATOM     25  H   UNL     1      48.060   6.969  12.096  0.00  0.00    +0.000 HD
BRANCH  23  26
ATOM     26  C   UNL     1      45.469   6.863  12.254  0.00  0.00    +0.000 A 
ATOM     27  C   UNL     1      44.343   7.158  11.496  0.00  0.00    +0.000 A 
ATOM     28  S   UNL     1      43.460   5.781  11.018  0.00  0.00    +0.000 S 
ATOM     29  C   UNL     1      44.522   4.743  11.844  0.00  0.00    +0.000 A 
ATOM     30  N   UNL     1      44.317   3.401  11.859  0.00  0.00    +0.000 NA
ATOM     31  C   UNL     1      45.183   2.734  12.546  0.00  0.00    +0.000 A 
ATOM     32  N   UNL     1      46.247   3.289  13.208  0.00  0.00    +0.000 N 
ATOM     33  C   UNL     1      46.523   4.636  13.181  0.00  0.00    +0.000 A 
ATOM     34  O   UNL     1      47.530   5.088  13.714  0.00  0.00    +0.000 OA
ATOM     35  C   UNL     1      45.560   5.435  12.451  0.00  0.00    +0.000 A 
ATOM     36  H   UNL     1      46.902   2.711  13.712  0.00  0.00    +0.000 HD
ENDBRANCH  23  26
ENDBRANCH  21  22
ENDBRANCH   4  21
TORSDOF 9
ENDMDL
MODEL 9
REMARK VINA RESULT:    -6.177      2.547      3.534
REMARK INTER + INTRA:         -10.401
REMARK INTER:                  -9.403
REMARK INTRA:                  -0.999
REMARK UNBOUND:                -1.155
REMARK  Name = 
REMARK  9 active torsions:
REMARK  status: ('A' for Active; 'I' for Inactive)
REMARK    1  A    between atoms: N_1  and  C_2
REMARK    2  A    between atoms: C_2  and  C_3
REMARK    3  A    between atoms: C_3  and  N_4
REMARK    4  A    between atoms: C_3  and  C_26
REMARK    5  A    between atoms: N_4  and  C_5
REMARK    6  A    between atoms: C_5  and  C_6
REMARK    7  A    between atoms: C_9  and  C_10
REMARK    8  A    between atoms: C_10  and  N_11
REMARK    9  A    between atoms: C_12  and  C_14
REMARK                            x       y       z     vdW  Elec       q    Type
REMARK                         _______ _______ _______ _____ _____    ______ ____
ROOT
ATOM      1  C   UNL     1      46.882   7.558  12.531  0.00  0.00    +0.000 A 
ATOM      2  C   UNL     1      47.986   7.027  11.860  0.00  0.00    +0.000 A 
ATOM      3  C   UNL     1      49.273   7.358  12.273  0.00  0.00    +0.000 A 
ATOM      4  C   UNL     1      49.425   8.233  13.343  0.00  0.00    +0.000 A 
ATOM      5  N   UNL     1      48.372   8.721  14.050  0.00  0.00    +0.000 NA
ATOM      6  C   UNL     1      47.136   8.368  13.631  0.00  0.00    +0.000 A 
ENDROOT
BRANCH   1   7
ATOM      7  C   UNL     1      45.478   7.276  12.059  0.00  0.00    +0.000 C 
BRANCH   7   8
ATOM      8  N   UNL     1      45.261   5.839  11.925  0.00  0.00    +0.000 NA
ATOM      9  H   UNL     1      46.116   5.414  11.570  0.00  0.00    +0.000 HD
BRANCH   8  10
ATOM     10  C   UNL     1      44.178   5.463  10.984  0.00  0.00    +0.000 C 
BRANCH  10  11
ATOM     11  C   UNL     1      44.701   4.441   9.962  0.00  0.00    +0.000 A 
ATOM     12  C   UNL     1      44.406   3.079  10.092  0.00  0.00    +0.000 A 
ATOM     13  C   UNL     1      44.909   2.180   9.158  0.00  0.00    +0.000 A 
ATOM     14  C   UNL     1      45.675   2.655   8.105  0.00  0.00    +0.000 A 
ATOM     15  C   UNL     1      45.911   4.020   8.033  0.00  0.00    +0.000 A 
ATOM     16  N   UNL     1      45.447   4.917   8.932  0.00  0.00    +0.000 NA
ENDBRANCH  10  11
BRANCH  10  17
ATOM     17  C   UNL     1      42.884   4.868  11.625  0.00  0.00    +0.000 C 
BRANCH  17  18
ATOM     18  N   UNL     1      42.576   5.319  12.992  0.00  0.00    +0.000 NA
ATOM     19  H   UNL     1      43.419   5.257  13.560  0.00  0.00    +0.000 HD
ATOM     20  H   UNL     1      41.893   4.691  13.413  0.00  0.00    +0.000 HD
ENDBRANCH  17  18
ENDBRANCH  10  17
ENDBRANCH   8  10
ENDBRANCH   7   8
ENDBRANCH   1   7
BRANCH   4  21
ATOM     21  C   UNL     1      50.799   8.684  13.762  0.00  0.00    +0.000 C 
BRANCH  21  22
ATOM     22  N   UNL     1      51.506   7.667  14.503  0.00  0.00    +0.000 N 
ATOM     23  C   UNL     1      52.523   7.967  15.367  0.00  0.00    +0.000 C 
ATOM     24  O   UNL     1      52.892   9.123  15.562  0.00  0.00    +0.000 OA
ATOM     25  H   UNL     1      51.381   6.714  14.173  0.00  0.00    +0.000 HD
BRANCH  23  26
ATOM     26  C   UNL     1      53.105   6.844  16.111  0.00  0.00    +0.000 A 
ATOM     27  C   UNL     1      54.485   6.695  16.148  0.00  0.00    +0.000 A 
ATOM     28  S   UNL     1      55.006   5.370  17.086  0.00  0.00    +0.000 S 
ATOM     29  C   UNL     1      53.405   4.918  17.438  0.00  0.00    +0.000 A 
ATOM     30  N   UNL     1      53.139   3.823  18.194  0.00  0.00    +0.000 NA
ATOM     31  C   UNL     1      51.882   3.579  18.361  0.00  0.00    +0.000 A 
ATOM     32  N   UNL     1      50.866   4.345  17.850  0.00  0.00    +0.000 N 
ATOM     33  C   UNL     1      51.086   5.489  17.121  0.00  0.00    +0.000 A 
ATOM     34  O   UNL     1      50.155   6.196  16.750  0.00  0.00    +0.000 OA
ATOM     35  C   UNL     1      52.483   5.788  16.875  0.00  0.00    +0.000 A 
ATOM     36  H   UNL     1      49.901   4.114  18.033  0.00  0.00    +0.000 HD
ENDBRANCH  23  26
ENDBRANCH  21  22
ENDBRANCH   4  21
TORSDOF 9
ENDMDL
