MODEL 1
REMARK VINA RESULT:    -6.982      0.000      0.000
REMARK INTER + INTRA:         -10.263
REMARK INTER:                  -9.635
REMARK INTRA:                  -0.628
REMARK UNBOUND:                -0.628
REMARK  Name = 
REMARK  7 active torsions:
REMARK  status: ('A' for Active; 'I' for Inactive)
REMARK    1  A    between atoms: N_1  and  C_2
REMARK    2  A    between atoms: C_2  and  C_3
REMARK    3  A    between atoms: C_6  and  O_7
REMARK    4  A    between atoms: O_7  and  C_8
REMARK    5  A    between atoms: C_8  and  C_9
REMARK    6  A    between atoms: N_13  and  C_14
REMARK    7  A    between atoms: C_14  and  C_15
REMARK                            x       y       z     vdW  Elec       q    Type
REMARK                         _______ _______ _______ _____ _____    ______ ____
ROOT
ATOM      1  O   UNL     1      43.682   4.598   9.504  0.00  0.00    +0.000 OA
ENDROOT
BRANCH   1   5
ATOM      2  C   UNL     1      46.316   1.860   7.909  0.00  0.00    +0.000 A 
ATOM      3  C   UNL     1      46.426   3.178   7.470  0.00  0.00    +0.000 A 
ATOM      4  C   UNL     1      45.564   4.145   7.989  0.00  0.00    +0.000 A 
ATOM      5  C   UNL     1      44.608   3.778   8.926  0.00  0.00    +0.000 A 
ATOM      6  C   UNL     1      44.582   2.445   9.323  0.00  0.00    +0.000 A 
ATOM      7  N   UNL     1      45.407   1.481   8.840  0.00  0.00    +0.000 NA
BRANCH   2   8
ATOM      8  C   UNL     1      47.213   0.789   7.329  0.00  0.00    +0.000 C 
BRANCH   8   9
ATOM      9  N   UNL     1      46.843  -0.564   7.759  0.00  0.00    +0.000 NA
ATOM     10  H   UNL     1      47.387  -1.232   7.215  0.00  0.00    +0.000 HD
ATOM     11  H   UNL     1      45.869  -0.718   7.494  0.00  0.00    +0.000 HD
ENDBRANCH   8   9
ENDBRANCH   2   8
ENDBRANCH   1   5
BRANCH   1  12
ATOM     12  C   UNL     1      43.776   4.775  10.919  0.00  0.00    +0.000 C 
BRANCH  12  13
ATOM     13  C   UNL     1      44.948   5.712  11.230  0.00  0.00    +0.000 C 
ATOM     14  C   UNL     1      44.461   7.153  11.426  0.00  0.00    +0.000 C 
ATOM     15  C   UNL     1      45.605   8.046  11.878  0.00  0.00    +0.000 C 
ATOM     16  C   UNL     1      46.317   7.470  13.101  0.00  0.00    +0.000 C 
ATOM     17  N   UNL     1      46.818   6.109  12.842  0.00  0.00    +0.000 NA
ATOM     18  C   UNL     1      45.707   5.212  12.474  0.00  0.00    +0.000 C 
BRANCH  17  19
ATOM     19  C   UNL     1      47.530   5.560  14.026  0.00  0.00    +0.000 C 
BRANCH  19  20
ATOM     20  C   UNL     1      46.849   4.409  14.785  0.00  0.00    +0.000 C 
ATOM     21  F   UNL     1      47.404   3.214  14.462  0.00  0.00    +0.000 F 
ATOM     22  F   UNL     1      47.070   4.570  16.118  0.00  0.00    +0.000 F 
ENDBRANCH  19  20
ENDBRANCH  17  19
ENDBRANCH  12  13
ENDBRANCH   1  12
TORSDOF 7
ENDMDL
MODEL 2
REMARK VINA RESULT:    -6.949      2.202      2.885
REMARK INTER + INTRA:         -10.218
REMARK INTER:                  -9.695
REMARK INTRA:                  -0.523
REMARK UNBOUND:                -0.628
REMARK  Name = 
REMARK  7 active torsions:
REMARK  status: ('A' for Active; 'I' for Inactive)
REMARK    1  A    between atoms: N_1  and  C_2
REMARK    2  A    between atoms: C_2  and  C_3
REMARK    3  A    between atoms: C_6  and  O_7
REMARK    4  A    between atoms: O_7  and  C_8
REMARK    5  A    between atoms: C_8  and  C_9
REMARK    6  A    between atoms: N_13  and  C_14
REMARK    7  A    between atoms: C_14  and  C_15
REMARK                            x       y       z     vdW  Elec       q    Type
REMARK                         _______ _______ _______ _____ _____    ______ ____
ROOT
ATOM      1  O   UNL     1      43.789   4.003   9.964  0.00  0.00    +0.000 OA
ENDROOT
BRANCH   1   5
ATOM      2  C   UNL     1      46.579   2.114   7.593  0.00  0.00    +0.000 A 
ATOM      3  C   UNL     1      46.415   3.486   7.412  0.00  0.00    +0.000 A 
ATOM      4  C   UNL     1      45.491   4.174   8.199  0.00  0.00    +0.000 A 
ATOM      5  C   UNL     1      44.745   3.480   9.142  0.00  0.00    +0.000 A 
ATOM      6  C   UNL     1      44.987   2.116   9.270  0.00  0.00    +0.000 A 
ATOM      7  N   UNL     1      45.880   1.419   8.523  0.00  0.00    +0.000 NA
BRANCH   2   8
ATOM      8  C   UNL     1      47.547   1.343   6.723  0.00  0.00    +0.000 C 
BRANCH   8   9
ATOM      9  N   UNL     1      48.587   2.191   6.131  0.00  0.00    +0.000 NA
ATOM     10  H   UNL     1      49.335   1.588   5.792  0.00  0.00    +0.000 HD
ATOM     11  H   UNL     1      48.997   2.748   6.882  0.00  0.00    +0.000 HD
ENDBRANCH   8   9
ENDBRANCH   2   8
ENDBRANCH   1   5
BRANCH   1  12
ATOM     12  C   UNL     1      43.556   3.317  11.196  0.00  0.00    +0.000 C 
BRANCH  12  13
ATOM     13  C   UNL     1      44.267   4.067  12.328  0.00  0.00    +0.000 C 
ATOM     14  C   UNL     1      45.620   3.420  12.650  0.00  0.00    +0.000 C 
ATOM     15  C   UNL     1      46.382   4.253  13.669  0.00  0.00    +0.000 C 
ATOM     16  C   UNL     1      46.491   5.712  13.231  0.00  0.00    +0.000 C 
ATOM     17  N   UNL     1      45.164   6.305  12.992  0.00  0.00    +0.000 NA
ATOM     18  C   UNL     1      44.441   5.550  11.951  0.00  0.00    +0.000 C 
BRANCH  17  19
ATOM     19  C   UNL     1      45.272   7.732  12.588  0.00  0.00    +0.000 C 
BRANCH  19  20
ATOM     20  C   UNL     1      46.638   8.413  12.775  0.00  0.00    +0.000 C 
ATOM     21  F   UNL     1      46.756   9.501  11.972  0.00  0.00    +0.000 F 
ATOM     22  F   UNL     1      46.723   8.885  14.049  0.00  0.00    +0.000 F 
ENDBRANCH  19  20
ENDBRANCH  17  19
ENDBRANCH  12  13
ENDBRANCH   1  12
TORSDOF 7
ENDMDL
MODEL 3
REMARK VINA RESULT:    -6.907      2.388      3.015
REMARK INTER + INTRA:         -10.160
REMARK INTER:                  -9.575
REMARK INTRA:                  -0.584
REMARK UNBOUND:                -0.628
REMARK  Name = 
REMARK  7 active torsions:
REMARK  status: ('A' for Active; 'I' for Inactive)
REMARK    1  A    between atoms: N_1  and  C_2
REMARK    2  A    between atoms: C_2  and  C_3
REMARK    3  A    between atoms: C_6  and  O_7
REMARK    4  A    between atoms: O_7  and  C_8
REMARK    5  A    between atoms: C_8  and  C_9
REMARK    6  A    between atoms: N_13  and  C_14
REMARK    7  A    between atoms: C_14  and  C_15
REMARK                            x       y       z     vdW  Elec       q    Type
REMARK                         _______ _______ _______ _____ _____    ______ ____
ROOT
ATOM      1  O   UNL     1      44.216   3.124  10.221  0.00  0.00    +0.000 OA
ENDROOT
BRANCH   1   5
ATOM      2  C   UNL     1      46.582   2.805   6.863  0.00  0.00    +0.000 A 
ATOM      3  C   UNL     1      46.398   1.651   7.623  0.00  0.00    +0.000 A 
ATOM      4  C   UNL     1      45.596   1.705   8.764  0.00  0.00    +0.000 A 
ATOM      5  C   UNL     1      45.002   2.906   9.126  0.00  0.00    +0.000 A 
ATOM      6  C   UNL     1      45.222   4.003   8.299  0.00  0.00    +0.000 A 
ATOM      7  N   UNL     1      45.994   3.983   7.183  0.00  0.00    +0.000 NA
BRANCH   2   8
ATOM      8  C   UNL     1      47.480   2.778   5.646  0.00  0.00    +0.000 C 
BRANCH   8   9
ATOM      9  N   UNL     1      48.533   1.760   5.733  0.00  0.00    +0.000 NA
ATOM     10  H   UNL     1      48.223   0.936   5.220  0.00  0.00    +0.000 HD
ATOM     11  H   UNL     1      48.604   1.470   6.709  0.00  0.00    +0.000 HD
ENDBRANCH   8   9
ENDBRANCH   2   8
ENDBRANCH   1   5
BRANCH   1  12
ATOM     12  C   UNL     1      43.795   4.470  10.451  0.00  0.00    +0.000 C 
BRANCH  12  13
ATOM     13  C   UNL     1      44.439   4.981  11.745  0.00  0.00    +0.000 C 
ATOM     14  C   UNL     1      45.277   3.883  12.412  0.00  0.00    +0.000 C 
ATOM     15  C   UNL     1      46.028   4.439  13.612  0.00  0.00    +0.000 C 
ATOM     16  C   UNL     1      46.834   5.683  13.242  0.00  0.00    +0.000 C 
ATOM     17  N   UNL     1      45.974   6.730  12.661  0.00  0.00    +0.000 NA
ATOM     18  C   UNL     1      45.295   6.227  11.452  0.00  0.00    +0.000 C 
BRANCH  17  19
ATOM     19  C   UNL     1      46.757   7.947  12.323  0.00  0.00    +0.000 C 
BRANCH  19  20
ATOM     20  C   UNL     1      48.281   7.790  12.194  0.00  0.00    +0.000 C 
ATOM     21  F   UNL     1      48.630   7.422  10.935  0.00  0.00    +0.000 F 
ATOM     22  F   UNL     1      48.867   9.001  12.399  0.00  0.00    +0.000 F 
ENDBRANCH  19  20
ENDBRANCH  17  19
ENDBRANCH  12  13
ENDBRANCH   1  12
TORSDOF 7
ENDMDL
MODEL 4
REMARK VINA RESULT:    -6.505      1.895      1.997
REMARK INTER + INTRA:          -9.605
REMARK INTER:                  -9.110
REMARK INTRA:                  -0.495
REMARK UNBOUND:                -0.628
REMARK  Name = 
REMARK  7 active torsions:
REMARK  status: ('A' for Active; 'I' for Inactive)
REMARK    1  A    between atoms: N_1  and  C_2
REMARK    2  A    between atoms: C_2  and  C_3
REMARK    3  A    between atoms: C_6  and  O_7
REMARK    4  A    between atoms: O_7  and  C_8
REMARK    5  A    between atoms: C_8  and  C_9
REMARK    6  A    between atoms: N_13  and  C_14
REMARK    7  A    between atoms: C_14  and  C_15
REMARK                            x       y       z     vdW  Elec       q    Type
REMARK                         _______ _______ _______ _____ _____    ______ ____
ROOT
ATOM      1  O   UNL     1      43.676   3.491  10.031  0.00  0.00    +0.000 OA
ENDROOT
BRANCH   1   5
ATOM      2  C   UNL     1      46.675   2.300   7.469  0.00  0.00    +0.000 A 
ATOM      3  C   UNL     1      46.270   3.633   7.399  0.00  0.00    +0.000 A 
ATOM      4  C   UNL     1      45.266   4.087   8.254  0.00  0.00    +0.000 A 
ATOM      5  C   UNL     1      44.682   3.205   9.153  0.00  0.00    +0.000 A 
ATOM      6  C   UNL     1      45.160   1.899   9.169  0.00  0.00    +0.000 A 
ATOM      7  N   UNL     1      46.137   1.427   8.354  0.00  0.00    +0.000 NA
BRANCH   2   8
ATOM      8  C   UNL     1      47.734   1.778   6.523  0.00  0.00    +0.000 C 
BRANCH   8   9
ATOM      9  N   UNL     1      48.028   2.702   5.423  0.00  0.00    +0.000 NA
ATOM     10  H   UNL     1      47.209   3.288   5.271  0.00  0.00    +0.000 HD
ATOM     11  H   UNL     1      48.134   2.146   4.573  0.00  0.00    +0.000 HD
ENDBRANCH   8   9
ENDBRANCH   2   8
ENDBRANCH   1   5
BRANCH   1  12
ATOM     12  C   UNL     1      44.059   3.757  11.381  0.00  0.00    +0.000 C 
BRANCH  12  13
ATOM     13  C   UNL     1      44.926   5.019  11.416  0.00  0.00    +0.000 C 
ATOM     14  C   UNL     1      44.057   6.283  11.433  0.00  0.00    +0.000 C 
ATOM     15  C   UNL     1      44.919   7.522  11.616  0.00  0.00    +0.000 C 
ATOM     16  C   UNL     1      45.835   7.394  12.832  0.00  0.00    +0.000 C 
ATOM     17  N   UNL     1      46.691   6.199  12.739  0.00  0.00    +0.000 NA
ATOM     18  C   UNL     1      45.867   4.980  12.635  0.00  0.00    +0.000 C 
BRANCH  17  19
ATOM     19  C   UNL     1      47.598   6.089  13.912  0.00  0.00    +0.000 C 
BRANCH  19  20
ATOM     20  C   UNL     1      48.908   6.893  13.866  0.00  0.00    +0.000 C 
ATOM     21  F   UNL     1      49.314   7.093  12.586  0.00  0.00    +0.000 F 
ATOM     22  F   UNL     1      48.680   8.134  14.378  0.00  0.00    +0.000 F 
ENDBRANCH  19  20
ENDBRANCH  17  19
ENDBRANCH  12  13
ENDBRANCH   1  12
TORSDOF 7
ENDMDL
MODEL 5
REMARK VINA RESULT:    -6.066      3.940      7.744
REMARK INTER + INTRA:          -8.999
REMARK INTER:                  -8.555
REMARK INTRA:                  -0.445
REMARK UNBOUND:                -0.628
REMARK  Name = 
REMARK  7 active torsions:
REMARK  status: ('A' for Active; 'I' for Inactive)
REMARK    1  A    between atoms: N_1  and  C_2
REMARK    2  A    between atoms: C_2  and  C_3
REMARK    3  A    between atoms: C_6  and  O_7
REMARK    4  A    between atoms: O_7  and  C_8
REMARK    5  A    between atoms: C_8  and  C_9
REMARK    6  A    between atoms: N_13  and  C_14
REMARK    7  A    between atoms: C_14  and  C_15
REMARK                            x       y       z     vdW  Elec       q    Type
REMARK                         _______ _______ _______ _____ _____    ______ ____
ROOT
ATOM      1  O   UNL     1      47.123   3.606  14.541  0.00  0.00    +0.000 OA
ENDROOT
BRANCH   1   5
ATOM      2  C   UNL     1      48.404   4.511  18.351  0.00  0.00    +0.000 A 
ATOM      3  C   UNL     1      48.131   3.173  18.073  0.00  0.00    +0.000 A 
ATOM      4  C   UNL     1      47.705   2.813  16.794  0.00  0.00    +0.000 A 
ATOM      5  C   UNL     1      47.553   3.794  15.823  0.00  0.00    +0.000 A 
ATOM      6  C   UNL     1      47.867   5.101  16.181  0.00  0.00    +0.000 A 
ATOM      7  N   UNL     1      48.286   5.483  17.414  0.00  0.00    +0.000 NA
BRANCH   2   8
ATOM      8  C   UNL     1      48.827   4.927  19.742  0.00  0.00    +0.000 C 
BRANCH   8   9
ATOM      9  N   UNL     1      48.543   3.908  20.758  0.00  0.00    +0.000 NA
ATOM     10  H   UNL     1      49.425   3.626  21.182  0.00  0.00    +0.000 HD
ATOM     11  H   UNL     1      48.189   3.080  20.275  0.00  0.00    +0.000 HD
ENDBRANCH   8   9
ENDBRANCH   2   8
ENDBRANCH   1   5
BRANCH   1  12
ATOM     12  C   UNL     1      46.685   4.768  13.834  0.00  0.00    +0.000 C 
BRANCH  12  13
ATOM     13  C   UNL     1      45.273   4.521  13.292  0.00  0.00    +0.000 C 
ATOM     14  C   UNL     1      44.587   5.843  12.926  0.00  0.00    +0.000 C 
ATOM     15  C   UNL     1      43.248   5.582  12.253  0.00  0.00    +0.000 C 
ATOM     16  C   UNL     1      43.390   4.621  11.075  0.00  0.00    +0.000 C 
ATOM     17  N   UNL     1      43.999   3.344  11.490  0.00  0.00    +0.000 NA
ATOM     18  C   UNL     1      45.332   3.575  12.078  0.00  0.00    +0.000 C 
BRANCH  17  19
ATOM     19  C   UNL     1      44.115   2.402  10.346  0.00  0.00    +0.000 C 
BRANCH  19  20
ATOM     20  C   UNL     1      45.223   2.680   9.317  0.00  0.00    +0.000 C 
ATOM     21  F   UNL     1      45.755   1.523   8.847  0.00  0.00    +0.000 F 
ATOM     22  F   UNL     1      44.674   3.298   8.235  0.00  0.00    +0.000 F 
ENDBRANCH  19  20
ENDBRANCH  17  19
ENDBRANCH  12  13
ENDBRANCH   1  12
TORSDOF 7
ENDMDL
MODEL 6
REMARK VINA RESULT:    -5.522      3.738      5.475
REMARK INTER + INTRA:          -8.249
REMARK INTER:                  -7.763
REMARK INTRA:                  -0.485
REMARK UNBOUND:                -0.628
REMARK  Name = 
REMARK  7 active torsions:
REMARK  status: ('A' for Active; 'I' for Inactive)
REMARK    1  A    between atoms: N_1  and  C_2
REMARK    2  A    between atoms: C_2  and  C_3
REMARK    3  A    between atoms: C_6  and  O_7
REMARK    4  A    between atoms: O_7  and  C_8
REMARK    5  A    between atoms: C_8  and  C_9
REMARK    6  A    between atoms: N_13  and  C_14
REMARK    7  A    between atoms: C_14  and  C_15
REMARK                            x       y       z     vdW  Elec       q    Type
REMARK                         _______ _______ _______ _____ _____    ______ ____
ROOT
ATOM      1  O   UNL     1      48.236   5.793  13.650  0.00  0.00    +0.000 OA
ENDROOT
BRANCH   1   5
ATOM      2  C   UNL     1      44.483   4.802  12.266  0.00  0.00    +0.000 A 
ATOM      3  C   UNL     1      45.122   5.880  11.656  0.00  0.00    +0.000 A 
ATOM      4  C   UNL     1      46.399   6.248  12.081  0.00  0.00    +0.000 A 
ATOM      5  C   UNL     1      47.009   5.540  13.108  0.00  0.00    +0.000 A 
ATOM      6  C   UNL     1      46.308   4.466  13.647  0.00  0.00    +0.000 A 
ATOM      7  N   UNL     1      45.067   4.081  13.254  0.00  0.00    +0.000 NA
BRANCH   2   8
ATOM      8  C   UNL     1      43.083   4.412  11.848  0.00  0.00    +0.000 C 
BRANCH   8   9
ATOM      9  N   UNL     1      42.971   3.003  11.459  0.00  0.00    +0.000 NA
ATOM     10  H   UNL     1      43.163   2.931  10.461  0.00  0.00    +0.000 HD
ATOM     11  H   UNL     1      41.995   2.726  11.575  0.00  0.00    +0.000 HD
ENDBRANCH   8   9
ENDBRANCH   2   8
ENDBRANCH   1   5
BRANCH   1  12
ATOM     12  C   UNL     1      48.382   7.023  14.361  0.00  0.00    +0.000 C 
BRANCH  12  13
ATOM     13  C   UNL     1      49.032   6.741  15.720  0.00  0.00    +0.000 C 
ATOM     14  C   UNL     1      48.883   7.943  16.661  0.00  0.00    +0.000 C 
ATOM     15  C   UNL     1      49.398   7.602  18.050  0.00  0.00    +0.000 C 
ATOM     16  C   UNL     1      48.759   6.323  18.587  0.00  0.00    +0.000 C 
ATOM     17  N   UNL     1      48.982   5.185  17.678  0.00  0.00    +0.000 NA
ATOM     18  C   UNL     1      48.420   5.472  16.345  0.00  0.00    +0.000 C 
BRANCH  17  19
ATOM     19  C   UNL     1      48.378   3.937  18.215  0.00  0.00    +0.000 C 
BRANCH  19  20
ATOM     20  C   UNL     1      47.672   3.010  17.211  0.00  0.00    +0.000 C 
ATOM     21  F   UNL     1      48.540   2.112  16.681  0.00  0.00    +0.000 F 
ATOM     22  F   UNL     1      46.739   2.273  17.875  0.00  0.00    +0.000 F 
ENDBRANCH  19  20
ENDBRANCH  17  19
ENDBRANCH  12  13
ENDBRANCH   1  12
TORSDOF 7
ENDMDL
MODEL 7
REMARK VINA RESULT:    -5.438      3.843      6.913
REMARK INTER + INTRA:          -8.133
REMARK INTER:                  -7.616
REMARK INTRA:                  -0.516
REMARK UNBOUND:                -0.628
REMARK  Name = 
REMARK  7 active torsions:
REMARK  status: ('A' for Active; 'I' for Inactive)
REMARK    1  A    between atoms: N_1  and  C_2
REMARK    2  A    between atoms: C_2  and  C_3
REMARK    3  A    between atoms: C_6  and  O_7
REMARK    4  A    between atoms: O_7  and  C_8
REMARK    5  A    between atoms: C_8  and  C_9
REMARK    6  A    between atoms: N_13  and  C_14
REMARK    7  A    between atoms: C_14  and  C_15
REMARK                            x       y       z     vdW  Elec       q    Type
REMARK                         _______ _______ _______ _____ _____    ______ ____
ROOT
ATOM      1  O   UNL     1      46.935   6.254  13.652  0.00  0.00    +0.000 OA
ENDROOT
BRANCH   1   5
ATOM      2  C   UNL     1      50.426   8.164  12.581  0.00  0.00    +0.000 A 
ATOM      3  C   UNL     1      49.463   7.995  11.588  0.00  0.00    +0.000 A 
ATOM      4  C   UNL     1      48.258   7.365  11.903  0.00  0.00    +0.000 A 
ATOM      5  C   UNL     1      48.043   6.909  13.197  0.00  0.00    +0.000 A 
ATOM      6  C   UNL     1      49.049   7.137  14.130  0.00  0.00    +0.000 A 
ATOM      7  N   UNL     1      50.229   7.749  13.857  0.00  0.00    +0.000 NA
BRANCH   2   8
ATOM      8  C   UNL     1      51.753   8.808  12.251  0.00  0.00    +0.000 C 
BRANCH   8   9
ATOM      9  N   UNL     1      52.902   8.044  12.748  0.00  0.00    +0.000 NA
ATOM     10  H   UNL     1      52.669   7.681  13.670  0.00  0.00    +0.000 HD
ATOM     11  H   UNL     1      53.671   8.700  12.893  0.00  0.00    +0.000 HD
ENDBRANCH   8   9
ENDBRANCH   2   8
ENDBRANCH   1   5
BRANCH   1  12
ATOM     12  C   UNL     1      45.756   6.356  12.851  0.00  0.00    +0.000 C 
BRANCH  12  13
ATOM     13  C   UNL     1      45.442   4.983  12.246  0.00  0.00    +0.000 C 
ATOM     14  C   UNL     1      44.183   4.379  12.878  0.00  0.00    +0.000 C 
ATOM     15  C   UNL     1      43.796   3.089  12.171  0.00  0.00    +0.000 C 
ATOM     16  C   UNL     1      43.685   3.289  10.661  0.00  0.00    +0.000 C 
ATOM     17  N   UNL     1      44.939   3.814  10.092  0.00  0.00    +0.000 NA
ATOM     18  C   UNL     1      45.289   5.104  10.718  0.00  0.00    +0.000 C 
BRANCH  17  19
ATOM     19  C   UNL     1      44.836   3.986   8.619  0.00  0.00    +0.000 C 
BRANCH  19  20
ATOM     20  C   UNL     1      46.049   3.562   7.776  0.00  0.00    +0.000 C 
ATOM     21  F   UNL     1      45.679   3.254   6.507  0.00  0.00    +0.000 F 
ATOM     22  F   UNL     1      46.900   4.619   7.665  0.00  0.00    +0.000 F 
ENDBRANCH  19  20
ENDBRANCH  17  19
ENDBRANCH  12  13
ENDBRANCH   1  12
TORSDOF 7
ENDMDL
MODEL 8
REMARK VINA RESULT:    -5.271      2.316      3.680
REMARK INTER + INTRA:          -7.903
REMARK INTER:                  -7.397
REMARK INTRA:                  -0.506
REMARK UNBOUND:                -0.628
REMARK  Name = 
REMARK  7 active torsions:
REMARK  status: ('A' for Active; 'I' for Inactive)
REMARK    1  A    between atoms: N_1  and  C_2
REMARK    2  A    between atoms: C_2  and  C_3
REMARK    3  A    between atoms: C_6  and  O_7
REMARK    4  A    between atoms: O_7  and  C_8
REMARK    5  A    between atoms: C_8  and  C_9
REMARK    6  A    between atoms: N_13  and  C_14
REMARK    7  A    between atoms: C_14  and  C_15
REMARK                            x       y       z     vdW  Elec       q    Type
REMARK                         _______ _______ _______ _____ _____    ______ ____
ROOT
ATOM      1  O   UNL     1      45.664   5.956  13.231  0.00  0.00    +0.000 OA
ENDROOT
BRANCH   1   5
ATOM      2  C   UNL     1      44.871   3.285  10.197  0.00  0.00    +0.000 A 
ATOM      3  C   UNL     1      45.251   4.573   9.826  0.00  0.00    +0.000 A 
ATOM      4  C   UNL     1      45.542   5.512  10.817  0.00  0.00    +0.000 A 
ATOM      5  C   UNL     1      45.440   5.149  12.153  0.00  0.00    +0.000 A 
ATOM      6  C   UNL     1      45.072   3.838  12.433  0.00  0.00    +0.000 A 
ATOM      7  N   UNL     1      44.786   2.901  11.494  0.00  0.00    +0.000 NA
BRANCH   2   8
ATOM      8  C   UNL     1      44.512   2.265   9.139  0.00  0.00    +0.000 C 
BRANCH   8   9
ATOM      9  N   UNL     1      45.675   1.789   8.383  0.00  0.00    +0.000 NA
ATOM     10  H   UNL     1      45.967   2.529   7.747  0.00  0.00    +0.000 HD
ATOM     11  H   UNL     1      45.364   1.018   7.789  0.00  0.00    +0.000 HD
ENDBRANCH   8   9
ENDBRANCH   2   8
ENDBRANCH   1   5
BRANCH   1  12
ATOM     12  C   UNL     1      46.668   6.962  13.083  0.00  0.00    +0.000 C 
BRANCH  12  13
ATOM     13  C   UNL     1      47.929   6.525  13.836  0.00  0.00    +0.000 C 
ATOM     14  C   UNL     1      48.761   7.740  14.266  0.00  0.00    +0.000 C 
ATOM     15  C   UNL     1      49.929   7.307  15.137  0.00  0.00    +0.000 C 
ATOM     16  C   UNL     1      49.466   6.440  16.306  0.00  0.00    +0.000 C 
ATOM     17  N   UNL     1      48.724   5.255  15.840  0.00  0.00    +0.000 NA
ATOM     18  C   UNL     1      47.544   5.662  15.053  0.00  0.00    +0.000 C 
BRANCH  17  19
ATOM     19  C   UNL     1      48.294   4.402  16.978  0.00  0.00    +0.000 C 
BRANCH  19  20
ATOM     20  C   UNL     1      47.930   2.941  16.663  0.00  0.00    +0.000 C 
ATOM     21  F   UNL     1      49.030   2.147  16.689  0.00  0.00    +0.000 F 
ATOM     22  F   UNL     1      47.113   2.470  17.645  0.00  0.00    +0.000 F 
ENDBRANCH  19  20
ENDBRANCH  17  19
ENDBRANCH  12  13
ENDBRANCH   1  12
TORSDOF 7
ENDMDL
MODEL 9
REMARK VINA RESULT:    -4.850      4.339      6.377
REMARK INTER + INTRA:          -7.321
REMARK INTER:                  -6.946
REMARK INTRA:                  -0.375
REMARK UNBOUND:                -0.628
REMARK  Name = 
REMARK  7 active torsions:
REMARK  status: ('A' for Active; 'I' for Inactive)
REMARK    1  A    between atoms: N_1  and  C_2
REMARK    2  A    between atoms: C_2  and  C_3
REMARK    3  A    between atoms: C_6  and  O_7
REMARK    4  A    between atoms: O_7  and  C_8
REMARK    5  A    between atoms: C_8  and  C_9
REMARK    6  A    between atoms: N_13  and  C_14
REMARK    7  A    between atoms: C_14  and  C_15
REMARK                            x       y       z     vdW  Elec       q    Type
REMARK                         _______ _______ _______ _____ _____    ______ ____
ROOT
ATOM      1  O   UNL     1      47.821   5.027  14.030  0.00  0.00    +0.000 OA
ENDROOT
BRANCH   1   5
ATOM      2  C   UNL     1      44.456   5.750  11.764  0.00  0.00    +0.000 A 
ATOM      3  C   UNL     1      45.610   6.458  11.433  0.00  0.00    +0.000 A 
ATOM      4  C   UNL     1      46.779   6.240  12.163  0.00  0.00    +0.000 A 
ATOM      5  C   UNL     1      46.772   5.329  13.210  0.00  0.00    +0.000 A 
ATOM      6  C   UNL     1      45.582   4.652  13.460  0.00  0.00    +0.000 A 
ATOM      7  N   UNL     1      44.430   4.839  12.767  0.00  0.00    +0.000 NA
BRANCH   2   8
ATOM      8  C   UNL     1      43.169   6.001  11.012  0.00  0.00    +0.000 C 
BRANCH   8   9
ATOM      9  N   UNL     1      42.707   7.389  11.111  0.00  0.00    +0.000 NA
ATOM     10  H   UNL     1      42.497   7.587  12.088  0.00  0.00    +0.000 HD
ATOM     11  H   UNL     1      41.816   7.455  10.616  0.00  0.00    +0.000 HD
ENDBRANCH   8   9
ENDBRANCH   2   8
ENDBRANCH   1   5
BRANCH   1  12
ATOM     12  C   UNL     1      48.140   5.983  15.043  0.00  0.00    +0.000 C 
BRANCH  12  13
ATOM     13  C   UNL     1      48.119   5.290  16.409  0.00  0.00    +0.000 C 
ATOM     14  C   UNL     1      47.601   3.851  16.287  0.00  0.00    +0.000 C 
ATOM     15  C   UNL     1      47.722   3.125  17.618  0.00  0.00    +0.000 C 
ATOM     16  C   UNL     1      49.139   3.218  18.180  0.00  0.00    +0.000 C 
ATOM     17  N   UNL     1      49.568   4.619  18.335  0.00  0.00    +0.000 NA
ATOM     18  C   UNL     1      49.526   5.318  17.036  0.00  0.00    +0.000 C 
BRANCH  17  19
ATOM     19  C   UNL     1      50.938   4.707  18.904  0.00  0.00    +0.000 C 
BRANCH  19  20
ATOM     20  C   UNL     1      51.971   3.681  18.411  0.00  0.00    +0.000 C 
ATOM     21  F   UNL     1      52.694   4.173  17.374  0.00  0.00    +0.000 F 
ATOM     22  F   UNL     1      52.869   3.447  19.407  0.00  0.00    +0.000 F 
ENDBRANCH  19  20
ENDBRANCH  17  19
ENDBRANCH  12  13
ENDBRANCH   1  12
TORSDOF 7
ENDMDL
