MODEL 1
REMARK VINA RESULT:    -7.534      0.000      0.000
REMARK INTER + INTRA:         -10.003
REMARK INTER:                  -9.516
REMARK INTRA:                  -0.487
REMARK UNBOUND:                -0.487
REMARK  Name = 
REMARK  5 active torsions:
REMARK  status: ('A' for Active; 'I' for Inactive)
REMARK    1  A    between atoms: N_1  and  C_2
REMARK    2  A    between atoms: C_2  and  C_3
REMARK    3  A    between atoms: C_3  and  C_4
REMARK    4  A    between atoms: C_7  and  C_8
REMARK    5  A    between atoms: C_8  and  N_9
REMARK                            x       y       z     vdW  Elec       q    Type
REMARK                         _______ _______ _______ _____ _____    ______ ____
ROOT
ATOM      1  C   UNL     1      46.131   2.245   7.883  0.00  0.00    +0.000 A 
ATOM      2  C   UNL     1      45.318   1.687   8.871  0.00  0.00    +0.000 A 
ATOM      3  C   UNL     1      44.523   2.515   9.664  0.00  0.00    +0.000 A 
ATOM      4  C   UNL     1      44.572   3.892   9.463  0.00  0.00    +0.000 A 
ATOM      5  N   UNL     1      45.334   4.450   8.485  0.00  0.00    +0.000 NA
ATOM      6  C   UNL     1      46.081   3.622   7.719  0.00  0.00    +0.000 A 
ENDROOT
BRANCH   1   7
ATOM      7  C   UNL     1      47.016   1.392   7.014  0.00  0.00    +0.000 C 
BRANCH   7   8
ATOM      8  C   UNL     1      48.284   2.133   6.583  0.00  0.00    +0.000 C 
BRANCH   8   9
ATOM      9  N   UNL     1      48.358   2.238   5.126  0.00  0.00    +0.000 NA
ATOM     10  H   UNL     1      48.988   1.519   4.769  0.00  0.00    +0.000 HD
ATOM     11  H   UNL     1      48.774   3.132   4.865  0.00  0.00    +0.000 HD
ENDBRANCH   8   9
ENDBRANCH   7   8
ENDBRANCH   1   7
BRANCH   4  12
ATOM     12  C   UNL     1      43.781   4.844  10.323  0.00  0.00    +0.000 C 
BRANCH  12  13
ATOM     13  N   UNL     1      44.627   5.678  11.167  0.00  0.00    +0.000 N 
ATOM     14  N   UNL     1      44.646   7.015  10.952  0.00  0.00    +0.000 NA
ATOM     15  C   UNL     1      45.505   7.471  11.865  0.00  0.00    +0.000 A 
ATOM     16  C   UNL     1      46.037   6.447  12.676  0.00  0.00    +0.000 A 
ATOM     17  C   UNL     1      46.927   6.387  13.762  0.00  0.00    +0.000 A 
ATOM     18  C   UNL     1      47.204   5.139  14.319  0.00  0.00    +0.000 A 
ATOM     19  F   UNL     1      48.022   5.066  15.377  0.00  0.00    +0.000 F 
ATOM     20  C   UNL     1      46.644   3.971  13.812  0.00  0.00    +0.000 A 
ATOM     21  C   UNL     1      45.772   4.012  12.719  0.00  0.00    +0.000 A 
ATOM     22  C   UNL     1      45.470   5.273  12.182  0.00  0.00    +0.000 A 
ENDBRANCH  12  13
ENDBRANCH   4  12
TORSDOF 5
ENDMDL
MODEL 2
REMARK VINA RESULT:    -7.324      1.584      2.340
REMARK INTER + INTRA:          -9.738
REMARK INTER:                  -9.303
REMARK INTRA:                  -0.435
REMARK UNBOUND:                -0.487
REMARK  Name = 
REMARK  5 active torsions:
REMARK  status: ('A' for Active; 'I' for Inactive)
REMARK    1  A    between atoms: N_1  and  C_2
REMARK    2  A    between atoms: C_2  and  C_3
REMARK    3  A    between atoms: C_3  and  C_4
REMARK    4  A    between atoms: C_7  and  C_8
REMARK    5  A    between atoms: C_8  and  N_9
REMARK                            x       y       z     vdW  Elec       q    Type
REMARK                         _______ _______ _______ _____ _____    ______ ____
ROOT
ATOM      1  C   UNL     1      45.868   3.205   7.768  0.00  0.00    +0.000 A 
ATOM      2  C   UNL     1      45.213   2.354   8.660  0.00  0.00    +0.000 A 
ATOM      3  C   UNL     1      44.722   2.856   9.865  0.00  0.00    +0.000 A 
ATOM      4  C   UNL     1      44.914   4.203  10.163  0.00  0.00    +0.000 A 
ATOM      5  N   UNL     1      45.520   5.053   9.293  0.00  0.00    +0.000 NA
ATOM      6  C   UNL     1      45.971   4.542   8.124  0.00  0.00    +0.000 A 
ENDROOT
BRANCH   1   7
ATOM      7  C   UNL     1      46.426   2.704   6.464  0.00  0.00    +0.000 C 
BRANCH   7   8
ATOM      8  C   UNL     1      47.536   1.670   6.673  0.00  0.00    +0.000 C 
BRANCH   8   9
ATOM      9  N   UNL     1      48.610   1.851   5.697  0.00  0.00    +0.000 NA
ATOM     10  H   UNL     1      48.420   2.682   5.139  0.00  0.00    +0.000 HD
ATOM     11  H   UNL     1      48.618   1.068   5.043  0.00  0.00    +0.000 HD
ENDBRANCH   8   9
ENDBRANCH   7   8
ENDBRANCH   1   7
BRANCH   4  12
ATOM     12  C   UNL     1      44.457   4.795  11.472  0.00  0.00    +0.000 C 
BRANCH  12  13
ATOM     13  N   UNL     1      45.542   4.941  12.433  0.00  0.00    +0.000 N 
ATOM     14  N   UNL     1      45.798   3.920  13.286  0.00  0.00    +0.000 NA
ATOM     15  C   UNL     1      46.818   4.367  14.020  0.00  0.00    +0.000 A 
ATOM     16  C   UNL     1      47.233   5.663  13.649  0.00  0.00    +0.000 A 
ATOM     17  C   UNL     1      48.239   6.553  14.062  0.00  0.00    +0.000 A 
ATOM     18  C   UNL     1      48.337   7.785  13.416  0.00  0.00    +0.000 A 
ATOM     19  F   UNL     1      49.312   8.631  13.774  0.00  0.00    +0.000 F 
ATOM     20  C   UNL     1      47.457   8.152  12.405  0.00  0.00    +0.000 A 
ATOM     21  C   UNL     1      46.437   7.286  11.994  0.00  0.00    +0.000 A 
ATOM     22  C   UNL     1      46.363   6.034  12.624  0.00  0.00    +0.000 A 
ENDBRANCH  12  13
ENDBRANCH   4  12
TORSDOF 5
ENDMDL
MODEL 3
REMARK VINA RESULT:    -6.686      2.911      6.737
REMARK INTER + INTRA:          -8.932
REMARK INTER:                  -8.403
REMARK INTRA:                  -0.529
REMARK UNBOUND:                -0.487
REMARK  Name = 
REMARK  5 active torsions:
REMARK  status: ('A' for Active; 'I' for Inactive)
REMARK    1  A    between atoms: N_1  and  C_2
REMARK    2  A    between atoms: C_2  and  C_3
REMARK    3  A    between atoms: C_3  and  C_4
REMARK    4  A    between atoms: C_7  and  C_8
REMARK    5  A    between atoms: C_8  and  N_9
REMARK                            x       y       z     vdW  Elec       q    Type
REMARK                         _______ _______ _______ _____ _____    ______ ____
ROOT
ATOM      1  C   UNL     1      46.907   6.189  12.972  0.00  0.00    +0.000 A 
ATOM      2  C   UNL     1      46.988   6.714  11.681  0.00  0.00    +0.000 A 
ATOM      3  C   UNL     1      46.100   6.279  10.698  0.00  0.00    +0.000 A 
ATOM      4  C   UNL     1      45.154   5.310  11.023  0.00  0.00    +0.000 A 
ATOM      5  N   UNL     1      45.039   4.811  12.282  0.00  0.00    +0.000 NA
ATOM      6  C   UNL     1      45.903   5.263  13.220  0.00  0.00    +0.000 A 
ENDROOT
BRANCH   1   7
ATOM      7  C   UNL     1      47.853   6.616  14.060  0.00  0.00    +0.000 C 
BRANCH   7   8
ATOM      8  C   UNL     1      48.189   8.108  13.976  0.00  0.00    +0.000 C 
BRANCH   8   9
ATOM      9  N   UNL     1      47.309   8.892  14.842  0.00  0.00    +0.000 NA
ATOM     10  H   UNL     1      47.843   9.650  15.266  0.00  0.00    +0.000 HD
ATOM     11  H   UNL     1      46.979   8.313  15.614  0.00  0.00    +0.000 HD
ENDBRANCH   8   9
ENDBRANCH   7   8
ENDBRANCH   1   7
BRANCH   4  12
ATOM     12  C   UNL     1      44.202   4.758   9.993  0.00  0.00    +0.000 C 
BRANCH  12  13
ATOM     13  N   UNL     1      44.667   3.508   9.407  0.00  0.00    +0.000 N 
ATOM     14  N   UNL     1      44.138   2.343   9.854  0.00  0.00    +0.000 NA
ATOM     15  C   UNL     1      44.770   1.412   9.137  0.00  0.00    +0.000 A 
ATOM     16  C   UNL     1      45.696   1.959   8.225  0.00  0.00    +0.000 A 
ATOM     17  C   UNL     1      46.570   1.444   7.252  0.00  0.00    +0.000 A 
ATOM     18  C   UNL     1      47.346   2.343   6.520  0.00  0.00    +0.000 A 
ATOM     19  F   UNL     1      48.158   1.874   5.565  0.00  0.00    +0.000 F 
ATOM     20  C   UNL     1      47.288   3.713   6.749  0.00  0.00    +0.000 A 
ATOM     21  C   UNL     1      46.438   4.240   7.728  0.00  0.00    +0.000 A 
ATOM     22  C   UNL     1      45.635   3.335   8.439  0.00  0.00    +0.000 A 
ENDBRANCH  12  13
ENDBRANCH   4  12
TORSDOF 5
ENDMDL
MODEL 4
REMARK VINA RESULT:    -6.340      3.006      6.643
REMARK INTER + INTRA:          -8.496
REMARK INTER:                  -8.135
REMARK INTRA:                  -0.361
REMARK UNBOUND:                -0.487
REMARK  Name = 
REMARK  5 active torsions:
REMARK  status: ('A' for Active; 'I' for Inactive)
REMARK    1  A    between atoms: N_1  and  C_2
REMARK    2  A    between atoms: C_2  and  C_3
REMARK    3  A    between atoms: C_3  and  C_4
REMARK    4  A    between atoms: C_7  and  C_8
REMARK    5  A    between atoms: C_8  and  N_9
REMARK                            x       y       z     vdW  Elec       q    Type
REMARK                         _______ _______ _______ _____ _____    ______ ____
ROOT
ATOM      1  C   UNL     1      47.349   7.554  13.589  0.00  0.00    +0.000 A 
ATOM      2  C   UNL     1      47.335   6.221  13.175  0.00  0.00    +0.000 A 
ATOM      3  C   UNL     1      46.283   5.750  12.389  0.00  0.00    +0.000 A 
ATOM      4  C   UNL     1      45.254   6.623  12.045  0.00  0.00    +0.000 A 
ATOM      5  N   UNL     1      45.268   7.932  12.412  0.00  0.00    +0.000 NA
ATOM      6  C   UNL     1      46.308   8.366  13.160  0.00  0.00    +0.000 A 
ENDROOT
BRANCH   1   7
ATOM      7  C   UNL     1      48.455   8.101  14.451  0.00  0.00    +0.000 C 
BRANCH   7   8
ATOM      8  C   UNL     1      49.076   7.023  15.343  0.00  0.00    +0.000 C 
BRANCH   8   9
ATOM      9  N   UNL     1      48.374   6.935  16.623  0.00  0.00    +0.000 NA
ATOM     10  H   UNL     1      48.833   6.240  17.211  0.00  0.00    +0.000 HD
ATOM     11  H   UNL     1      47.424   6.593  16.473  0.00  0.00    +0.000 HD
ENDBRANCH   8   9
ENDBRANCH   7   8
ENDBRANCH   1   7
BRANCH   4  12
ATOM     12  C   UNL     1      44.063   6.163  11.244  0.00  0.00    +0.000 C 
BRANCH  12  13
ATOM     13  N   UNL     1      44.149   4.760  10.861  0.00  0.00    +0.000 N 
ATOM     14  N   UNL     1      43.494   3.840  11.609  0.00  0.00    +0.000 NA
ATOM     15  C   UNL     1      43.778   2.683  11.008  0.00  0.00    +0.000 A 
ATOM     16  C   UNL     1      44.602   2.842   9.875  0.00  0.00    +0.000 A 
ATOM     17  C   UNL     1      45.153   1.987   8.905  0.00  0.00    +0.000 A 
ATOM     18  C   UNL     1      45.936   2.549   7.898  0.00  0.00    +0.000 A 
ATOM     19  F   UNL     1      46.440   1.753   6.945  0.00  0.00    +0.000 F 
ATOM     20  C   UNL     1      46.197   3.913   7.851  0.00  0.00    +0.000 A 
ATOM     21  C   UNL     1      45.674   4.776   8.819  0.00  0.00    +0.000 A 
ATOM     22  C   UNL     1      44.858   4.212   9.812  0.00  0.00    +0.000 A 
ENDBRANCH  12  13
ENDBRANCH   4  12
TORSDOF 5
ENDMDL
MODEL 5
REMARK VINA RESULT:    -6.226      3.320      6.369
REMARK INTER + INTRA:          -8.351
REMARK INTER:                  -8.162
REMARK INTRA:                  -0.189
REMARK UNBOUND:                -0.487
REMARK  Name = 
REMARK  5 active torsions:
REMARK  status: ('A' for Active; 'I' for Inactive)
REMARK    1  A    between atoms: N_1  and  C_2
REMARK    2  A    between atoms: C_2  and  C_3
REMARK    3  A    between atoms: C_3  and  C_4
REMARK    4  A    between atoms: C_7  and  C_8
REMARK    5  A    between atoms: C_8  and  N_9
REMARK                            x       y       z     vdW  Elec       q    Type
REMARK                         _______ _______ _______ _____ _____    ______ ____
ROOT
ATOM      1  C   UNL     1      48.101   7.282  12.813  0.00  0.00    +0.000 A 
ATOM      2  C   UNL     1      47.071   8.090  12.327  0.00  0.00    +0.000 A 
ATOM      3  C   UNL     1      45.759   7.616  12.324  0.00  0.00    +0.000 A 
ATOM      4  C   UNL     1      45.505   6.329  12.793  0.00  0.00    +0.000 A 
ATOM      5  N   UNL     1      46.490   5.541  13.299  0.00  0.00    +0.000 NA
ATOM      6  C   UNL     1      47.750   6.032  13.305  0.00  0.00    +0.000 A 
ENDROOT
BRANCH   1   7
ATOM      7  C   UNL     1      49.531   7.745  12.821  0.00  0.00    +0.000 C 
BRANCH   7   8
ATOM      8  C   UNL     1      50.105   7.816  14.239  0.00  0.00    +0.000 C 
BRANCH   8   9
ATOM      9  N   UNL     1      51.567   7.767  14.215  0.00  0.00    +0.000 NA
ATOM     10  H   UNL     1      51.868   7.029  13.579  0.00  0.00    +0.000 HD
ATOM     11  H   UNL     1      51.919   7.506  15.136  0.00  0.00    +0.000 HD
ENDBRANCH   8   9
ENDBRANCH   7   8
ENDBRANCH   1   7
BRANCH   4  12
ATOM     12  C   UNL     1      44.119   5.738  12.765  0.00  0.00    +0.000 C 
BRANCH  12  13
ATOM     13  N   UNL     1      44.029   4.552  11.924  0.00  0.00    +0.000 N 
ATOM     14  N   UNL     1      43.376   3.464  12.400  0.00  0.00    +0.000 NA
ATOM     15  C   UNL     1      43.482   2.574  11.412  0.00  0.00    +0.000 A 
ATOM     16  C   UNL     1      44.188   3.072  10.298  0.00  0.00    +0.000 A 
ATOM     17  C   UNL     1      44.545   2.578   9.032  0.00  0.00    +0.000 A 
ATOM     18  C   UNL     1      45.263   3.413   8.176  0.00  0.00    +0.000 A 
ATOM     19  F   UNL     1      45.581   2.971   6.952  0.00  0.00    +0.000 F 
ATOM     20  C   UNL     1      45.645   4.694   8.556  0.00  0.00    +0.000 A 
ATOM     21  C   UNL     1      45.315   5.195   9.820  0.00  0.00    +0.000 A 
ATOM     22  C   UNL     1      44.564   4.364  10.666  0.00  0.00    +0.000 A 
ENDBRANCH  12  13
ENDBRANCH   4  12
TORSDOF 5
ENDMDL
MODEL 6
REMARK VINA RESULT:    -5.630      2.156      3.073
REMARK INTER + INTRA:          -7.599
REMARK INTER:                  -7.302
REMARK INTRA:                  -0.297
REMARK UNBOUND:                -0.487
REMARK  Name = 
REMARK  5 active torsions:
REMARK  status: ('A' for Active; 'I' for Inactive)
REMARK    1  A    between atoms: N_1  and  C_2
REMARK    2  A    between atoms: C_2  and  C_3
REMARK    3  A    between atoms: C_3  and  C_4
REMARK    4  A    between atoms: C_7  and  C_8
REMARK    5  A    between atoms: C_8  and  N_9
REMARK                            x       y       z     vdW  Elec       q    Type
REMARK                         _______ _______ _______ _____ _____    ______ ____
ROOT
ATOM      1  C   UNL     1      45.063   3.941   9.004  0.00  0.00    +0.000 A 
ATOM      2  C   UNL     1      45.769   5.135   9.159  0.00  0.00    +0.000 A 
ATOM      3  C   UNL     1      45.757   5.794  10.388  0.00  0.00    +0.000 A 
ATOM      4  C   UNL     1      45.020   5.251  11.438  0.00  0.00    +0.000 A 
ATOM      5  N   UNL     1      44.353   4.073  11.315  0.00  0.00    +0.000 NA
ATOM      6  C   UNL     1      44.396   3.447  10.116  0.00  0.00    +0.000 A 
ENDROOT
BRANCH   1   7
ATOM      7  C   UNL     1      45.035   3.204   7.693  0.00  0.00    +0.000 C 
BRANCH   7   8
ATOM      8  C   UNL     1      46.443   2.914   7.166  0.00  0.00    +0.000 C 
BRANCH   8   9
ATOM      9  N   UNL     1      46.818   3.867   6.122  0.00  0.00    +0.000 NA
ATOM     10  H   UNL     1      46.164   3.787   5.344  0.00  0.00    +0.000 HD
ATOM     11  H   UNL     1      47.734   3.624   5.746  0.00  0.00    +0.000 HD
ENDBRANCH   8   9
ENDBRANCH   7   8
ENDBRANCH   1   7
BRANCH   4  12
ATOM     12  C   UNL     1      44.921   5.942  12.774  0.00  0.00    +0.000 C 
BRANCH  12  13
ATOM     13  N   UNL     1      45.651   7.203  12.812  0.00  0.00    +0.000 N 
ATOM     14  N   UNL     1      45.003   8.341  12.464  0.00  0.00    +0.000 NA
ATOM     15  C   UNL     1      45.933   9.288  12.595  0.00  0.00    +0.000 A 
ATOM     16  C   UNL     1      47.174   8.780  13.031  0.00  0.00    +0.000 A 
ATOM     17  C   UNL     1      48.430   9.328  13.344  0.00  0.00    +0.000 A 
ATOM     18  C   UNL     1      49.440   8.464  13.766  0.00  0.00    +0.000 A 
ATOM     19  F   UNL     1      50.633   8.974  14.102  0.00  0.00    +0.000 F 
ATOM     20  C   UNL     1      49.238   7.092  13.859  0.00  0.00    +0.000 A 
ATOM     21  C   UNL     1      48.000   6.528  13.532  0.00  0.00    +0.000 A 
ATOM     22  C   UNL     1      46.976   7.404  13.140  0.00  0.00    +0.000 A 
ENDBRANCH  12  13
ENDBRANCH   4  12
TORSDOF 5
ENDMDL
MODEL 7
REMARK VINA RESULT:    -5.585      3.083      6.954
REMARK INTER + INTRA:          -7.542
REMARK INTER:                  -7.380
REMARK INTRA:                  -0.161
REMARK UNBOUND:                -0.487
REMARK  Name = 
REMARK  5 active torsions:
REMARK  status: ('A' for Active; 'I' for Inactive)
REMARK    1  A    between atoms: N_1  and  C_2
REMARK    2  A    between atoms: C_2  and  C_3
REMARK    3  A    between atoms: C_3  and  C_4
REMARK    4  A    between atoms: C_7  and  C_8
REMARK    5  A    between atoms: C_8  and  N_9
REMARK                            x       y       z     vdW  Elec       q    Type
REMARK                         _______ _______ _______ _____ _____    ______ ____
ROOT
ATOM      1  C   UNL     1      47.533   5.181  15.004  0.00  0.00    +0.000 A 
ATOM      2  C   UNL     1      47.676   6.319  14.208  0.00  0.00    +0.000 A 
ATOM      3  C   UNL     1      46.766   6.566  13.180  0.00  0.00    +0.000 A 
ATOM      4  C   UNL     1      45.735   5.656  12.957  0.00  0.00    +0.000 A 
ATOM      5  N   UNL     1      45.562   4.560  13.742  0.00  0.00    +0.000 NA
ATOM      6  C   UNL     1      46.449   4.354  14.742  0.00  0.00    +0.000 A 
ENDROOT
BRANCH   1   7
ATOM      7  C   UNL     1      48.499   4.866  16.112  0.00  0.00    +0.000 C 
BRANCH   7   8
ATOM      8  C   UNL     1      47.782   4.445  17.398  0.00  0.00    +0.000 C 
BRANCH   8   9
ATOM      9  N   UNL     1      47.117   5.587  18.024  0.00  0.00    +0.000 NA
ATOM     10  H   UNL     1      46.192   5.302  18.347  0.00  0.00    +0.000 HD
ATOM     11  H   UNL     1      46.960   6.318  17.330  0.00  0.00    +0.000 HD
ENDBRANCH   8   9
ENDBRANCH   7   8
ENDBRANCH   1   7
BRANCH   4  12
ATOM     12  C   UNL     1      44.752   5.837  11.829  0.00  0.00    +0.000 C 
BRANCH  12  13
ATOM     13  N   UNL     1      44.589   4.632  11.026  0.00  0.00    +0.000 N 
ATOM     14  N   UNL     1      43.815   3.629  11.507  0.00  0.00    +0.000 NA
ATOM     15  C   UNL     1      43.881   2.695  10.556  0.00  0.00    +0.000 A 
ATOM     16  C   UNL     1      44.680   3.083   9.461  0.00  0.00    +0.000 A 
ATOM     17  C   UNL     1      45.045   2.509   8.231  0.00  0.00    +0.000 A 
ATOM     18  C   UNL     1      45.876   3.241   7.383  0.00  0.00    +0.000 A 
ATOM     19  F   UNL     1      46.206   2.724   6.192  0.00  0.00    +0.000 F 
ATOM     20  C   UNL     1      46.360   4.495   7.737  0.00  0.00    +0.000 A 
ATOM     21  C   UNL     1      46.022   5.072   8.965  0.00  0.00    +0.000 A 
ATOM     22  C   UNL     1      45.159   4.347   9.802  0.00  0.00    +0.000 A 
ENDBRANCH  12  13
ENDBRANCH   4  12
TORSDOF 5
ENDMDL
MODEL 8
REMARK VINA RESULT:    -5.480      5.312      8.107
REMARK INTER + INTRA:          -7.409
REMARK INTER:                  -7.282
REMARK INTRA:                  -0.126
REMARK UNBOUND:                -0.487
REMARK  Name = 
REMARK  5 active torsions:
REMARK  status: ('A' for Active; 'I' for Inactive)
REMARK    1  A    between atoms: N_1  and  C_2
REMARK    2  A    between atoms: C_2  and  C_3
REMARK    3  A    between atoms: C_3  and  C_4
REMARK    4  A    between atoms: C_7  and  C_8
REMARK    5  A    between atoms: C_8  and  N_9
REMARK                            x       y       z     vdW  Elec       q    Type
REMARK                         _______ _______ _______ _____ _____    ______ ____
ROOT
ATOM      1  C   UNL     1      51.451   2.746  17.746  0.00  0.00    +0.000 A 
ATOM      2  C   UNL     1      51.116   4.012  18.231  0.00  0.00    +0.000 A 
ATOM      3  C   UNL     1      49.896   4.589  17.880  0.00  0.00    +0.000 A 
ATOM      4  C   UNL     1      49.038   3.892  17.033  0.00  0.00    +0.000 A 
ATOM      5  N   UNL     1      49.334   2.646  16.577  0.00  0.00    +0.000 NA
ATOM      6  C   UNL     1      50.516   2.103  16.947  0.00  0.00    +0.000 A 
ENDROOT
BRANCH   1   7
ATOM      7  C   UNL     1      52.762   2.092  18.086  0.00  0.00    +0.000 C 
BRANCH   7   8
ATOM      8  C   UNL     1      52.898   0.708  17.445  0.00  0.00    +0.000 C 
BRANCH   8   9
ATOM      9  N   UNL     1      52.570  -0.347  18.403  0.00  0.00    +0.000 NA
ATOM     10  H   UNL     1      52.820  -0.037  19.342  0.00  0.00    +0.000 HD
ATOM     11  H   UNL     1      53.139  -1.172  18.217  0.00  0.00    +0.000 HD
ENDBRANCH   8   9
ENDBRANCH   7   8
ENDBRANCH   1   7
BRANCH   4  12
ATOM     12  C   UNL     1      47.731   4.483  16.572  0.00  0.00    +0.000 C 
BRANCH  12  13
ATOM     13  N   UNL     1      47.880   5.339  15.402  0.00  0.00    +0.000 N 
ATOM     14  N   UNL     1      48.833   6.302  15.417  0.00  0.00    +0.000 NA
ATOM     15  C   UNL     1      48.702   6.896  14.230  0.00  0.00    +0.000 A 
ATOM     16  C   UNL     1      47.682   6.326  13.441  0.00  0.00    +0.000 A 
ATOM     17  C   UNL     1      47.168   6.545  12.152  0.00  0.00    +0.000 A 
ATOM     18  C   UNL     1      46.123   5.733  11.712  0.00  0.00    +0.000 A 
ATOM     19  F   UNL     1      45.644   5.905  10.472  0.00  0.00    +0.000 F 
ATOM     20  C   UNL     1      45.574   4.745  12.520  0.00  0.00    +0.000 A 
ATOM     21  C   UNL     1      46.060   4.526  13.813  0.00  0.00    +0.000 A 
ATOM     22  C   UNL     1      47.134   5.323  14.241  0.00  0.00    +0.000 A 
ENDBRANCH  12  13
ENDBRANCH   4  12
TORSDOF 5
ENDMDL
MODEL 9
REMARK VINA RESULT:    -5.405      2.795      6.444
REMARK INTER + INTRA:          -7.313
REMARK INTER:                  -6.908
REMARK INTRA:                  -0.405
REMARK UNBOUND:                -0.487
REMARK  Name = 
REMARK  5 active torsions:
REMARK  status: ('A' for Active; 'I' for Inactive)
REMARK    1  A    between atoms: N_1  and  C_2
REMARK    2  A    between atoms: C_2  and  C_3
REMARK    3  A    between atoms: C_3  and  C_4
REMARK    4  A    between atoms: C_7  and  C_8
REMARK    5  A    between atoms: C_8  and  N_9
REMARK                            x       y       z     vdW  Elec       q    Type
REMARK                         _______ _______ _______ _____ _____    ______ ____
ROOT
ATOM      1  C   UNL     1      46.764   5.857  13.583  0.00  0.00    +0.000 A 
ATOM      2  C   UNL     1      46.304   6.871  12.741  0.00  0.00    +0.000 A 
ATOM      3  C   UNL     1      45.559   6.546  11.607  0.00  0.00    +0.000 A 
ATOM      4  C   UNL     1      45.303   5.206  11.328  0.00  0.00    +0.000 A 
ATOM      5  N   UNL     1      45.716   4.208  12.153  0.00  0.00    +0.000 NA
ATOM      6  C   UNL     1      46.421   4.552  13.255  0.00  0.00    +0.000 A 
ENDROOT
BRANCH   1   7
ATOM      7  C   UNL     1      47.584   6.159  14.807  0.00  0.00    +0.000 C 
BRANCH   7   8
ATOM      8  C   UNL     1      48.657   7.217  14.535  0.00  0.00    +0.000 C 
BRANCH   8   9
ATOM      9  N   UNL     1      49.592   6.760  13.508  0.00  0.00    +0.000 NA
ATOM     10  H   UNL     1      50.507   6.603  13.932  0.00  0.00    +0.000 HD
ATOM     11  H   UNL     1      49.727   7.494  12.812  0.00  0.00    +0.000 HD
ENDBRANCH   8   9
ENDBRANCH   7   8
ENDBRANCH   1   7
BRANCH   4  12
ATOM     12  C   UNL     1      44.552   4.786  10.090  0.00  0.00    +0.000 C 
BRANCH  12  13
ATOM     13  N   UNL     1      45.431   4.297   9.036  0.00  0.00    +0.000 N 
ATOM     14  N   UNL     1      46.155   5.193   8.323  0.00  0.00    +0.000 NA
ATOM     15  C   UNL     1      46.830   4.438   7.455  0.00  0.00    +0.000 A 
ATOM     16  C   UNL     1      46.559   3.062   7.601  0.00  0.00    +0.000 A 
ATOM     17  C   UNL     1      47.005   1.880   6.986  0.00  0.00    +0.000 A 
ATOM     18  C   UNL     1      46.488   0.666   7.436  0.00  0.00    +0.000 A 
ATOM     19  F   UNL     1      46.928  -0.473   6.885  0.00  0.00    +0.000 F 
ATOM     20  C   UNL     1      45.538   0.607   8.449  0.00  0.00    +0.000 A 
ATOM     21  C   UNL     1      45.068   1.775   9.059  0.00  0.00    +0.000 A 
ATOM     22  C   UNL     1      45.615   2.992   8.626  0.00  0.00    +0.000 A 
ENDBRANCH  12  13
ENDBRANCH   4  12
TORSDOF 5
ENDMDL
