MODEL 1
REMARK VINA RESULT:    -7.628      0.000      0.000
REMARK INTER + INTRA:          -9.245
REMARK INTER:                  -8.965
REMARK INTRA:                  -0.280
REMARK UNBOUND:                -0.280
REMARK  Name = 
REMARK  4 active torsions:
REMARK  status: ('A' for Active; 'I' for Inactive)
REMARK    1  A    between atoms: C_1  and  C_2
REMARK    2  A    between atoms: C_6  and  C_7
REMARK    3  A    between atoms: C_7  and  N_8
REMARK    4  A    between atoms: C_12  and  C_13
REMARK                            x       y       z     vdW  Elec       q    Type
REMARK                         _______ _______ _______ _____ _____    ______ ____
ROOT
ATOM      1  N   UNL     1      43.850   3.749  10.359  0.00  0.00    +0.000 N 
ATOM      2  C   UNL     1      44.805   3.421   9.382  0.00  0.00    +0.000 A 
ATOM      3  C   UNL     1      45.132   2.074   9.154  0.00  0.00    +0.000 A 
ATOM      4  N   UNL     1      46.011   1.645   8.208  0.00  0.00    +0.000 NA
ATOM      5  C   UNL     1      46.543   2.641   7.450  0.00  0.00    +0.000 A 
ATOM      6  C   UNL     1      46.216   3.972   7.643  0.00  0.00    +0.000 A 
ATOM      7  N   UNL     1      45.359   4.383   8.615  0.00  0.00    +0.000 NA
ATOM      8  H   UNL     1      42.926   3.552   9.967  0.00  0.00    +0.000 HD
ENDROOT
BRANCH   5   9
ATOM      9  C   UNL     1      47.511   2.270   6.380  0.00  0.00    +0.000 C 
ATOM     10  N   UNL     1      47.435   2.999   5.223  0.00  0.00    +0.000 N 
ATOM     11  O   UNL     1      48.318   1.363   6.516  0.00  0.00    +0.000 OA
ATOM     12  H   UNL     1      46.750   3.739   5.130  0.00  0.00    +0.000 HD
ATOM     13  H   UNL     1      48.064   2.788   4.462  0.00  0.00    +0.000 HD
ENDBRANCH   5   9
BRANCH   1  14
ATOM     14  C   UNL     1      43.904   5.152  10.779  0.00  0.00    +0.000 C 
BRANCH  14  20
ATOM     15  C   UNL     1      48.093   7.435  11.814  0.00  0.00    +0.000 C 
ATOM     16  C   UNL     1      47.040   6.464  12.257  0.00  0.00    +0.000 A 
ATOM     17  C   UNL     1      47.160   5.783  13.463  0.00  0.00    +0.000 A 
ATOM     18  C   UNL     1      46.166   4.877  13.820  0.00  0.00    +0.000 A 
ATOM     19  C   UNL     1      45.090   4.668  12.961  0.00  0.00    +0.000 A 
ATOM     20  C   UNL     1      45.043   5.372  11.762  0.00  0.00    +0.000 A 
ATOM     21  N   UNL     1      45.995   6.279  11.416  0.00  0.00    +0.000 NA
ENDBRANCH  14  20
ENDBRANCH   1  14
TORSDOF 3
ENDMDL
MODEL 2
REMARK VINA RESULT:    -7.500      2.672      6.339
REMARK INTER + INTRA:          -9.095
REMARK INTER:                  -8.786
REMARK INTRA:                  -0.310
REMARK UNBOUND:                -0.280
REMARK  Name = 
REMARK  4 active torsions:
REMARK  status: ('A' for Active; 'I' for Inactive)
REMARK    1  A    between atoms: C_1  and  C_2
REMARK    2  A    between atoms: C_6  and  C_7
REMARK    3  A    between atoms: C_7  and  N_8
REMARK    4  A    between atoms: C_12  and  C_13
REMARK                            x       y       z     vdW  Elec       q    Type
REMARK                         _______ _______ _______ _____ _____    ______ ____
ROOT
ATOM      1  N   UNL     1      44.537   4.956   9.919  0.00  0.00    +0.000 N 
ATOM      2  C   UNL     1      45.224   4.759  11.129  0.00  0.00    +0.000 A 
ATOM      3  C   UNL     1      45.957   5.816  11.692  0.00  0.00    +0.000 A 
ATOM      4  N   UNL     1      46.623   5.745  12.877  0.00  0.00    +0.000 NA
ATOM      5  C   UNL     1      46.496   4.552  13.516  0.00  0.00    +0.000 A 
ATOM      6  C   UNL     1      45.758   3.505  12.990  0.00  0.00    +0.000 A 
ATOM      7  N   UNL     1      45.125   3.586  11.789  0.00  0.00    +0.000 NA
ATOM      8  H   UNL     1      43.688   5.485  10.127  0.00  0.00    +0.000 HD
ENDROOT
BRANCH   5   9
ATOM      9  C   UNL     1      47.183   4.379  14.827  0.00  0.00    +0.000 C 
ATOM     10  N   UNL     1      47.457   5.529  15.517  0.00  0.00    +0.000 N 
ATOM     11  O   UNL     1      47.497   3.280  15.260  0.00  0.00    +0.000 OA
ATOM     12  H   UNL     1      47.197   6.430  15.132  0.00  0.00    +0.000 HD
ATOM     13  H   UNL     1      47.927   5.473  16.409  0.00  0.00    +0.000 HD
ENDBRANCH   5   9
BRANCH   1  14
ATOM     14  C   UNL     1      44.172   3.706   9.246  0.00  0.00    +0.000 C 
BRANCH  14  20
ATOM     15  C   UNL     1      46.795  -0.112   7.707  0.00  0.00    +0.000 C 
ATOM     16  C   UNL     1      46.579   1.370   7.667  0.00  0.00    +0.000 A 
ATOM     17  C   UNL     1      47.436   2.197   6.949  0.00  0.00    +0.000 A 
ATOM     18  C   UNL     1      47.204   3.569   6.960  0.00  0.00    +0.000 A 
ATOM     19  C   UNL     1      46.137   4.078   7.695  0.00  0.00    +0.000 A 
ATOM     20  C   UNL     1      45.329   3.194   8.405  0.00  0.00    +0.000 A 
ATOM     21  N   UNL     1      45.531   1.849   8.379  0.00  0.00    +0.000 NA
ENDBRANCH  14  20
ENDBRANCH   1  14
TORSDOF 3
ENDMDL
MODEL 3
REMARK VINA RESULT:    -7.236      2.753      6.257
REMARK INTER + INTRA:          -8.785
REMARK INTER:                  -8.436
REMARK INTRA:                  -0.349
REMARK UNBOUND:                -0.280
REMARK  Name = 
REMARK  4 active torsions:
REMARK  status: ('A' for Active; 'I' for Inactive)
REMARK    1  A    between atoms: C_1  and  C_2
REMARK    2  A    between atoms: C_6  and  C_7
REMARK    3  A    between atoms: C_7  and  N_8
REMARK    4  A    between atoms: C_12  and  C_13
REMARK                            x       y       z     vdW  Elec       q    Type
REMARK                         _______ _______ _______ _____ _____    ______ ____
ROOT
ATOM      1  N   UNL     1      44.908   5.510   9.929  0.00  0.00    +0.000 N 
ATOM      2  C   UNL     1      45.467   5.260  11.194  0.00  0.00    +0.000 A 
ATOM      3  C   UNL     1      46.514   6.070  11.663  0.00  0.00    +0.000 A 
ATOM      4  N   UNL     1      47.097   5.941  12.885  0.00  0.00    +0.000 NA
ATOM      5  C   UNL     1      46.555   4.965  13.661  0.00  0.00    +0.000 A 
ATOM      6  C   UNL     1      45.507   4.171  13.226  0.00  0.00    +0.000 A 
ATOM      7  N   UNL     1      44.958   4.295  11.988  0.00  0.00    +0.000 NA
ATOM      8  H   UNL     1      44.292   6.320  10.016  0.00  0.00    +0.000 HD
ENDROOT
BRANCH   5   9
ATOM      9  C   UNL     1      47.122   4.751  15.023  0.00  0.00    +0.000 C 
ATOM     10  N   UNL     1      47.853   5.789  15.537  0.00  0.00    +0.000 N 
ATOM     11  O   UNL     1      46.958   3.711  15.642  0.00  0.00    +0.000 OA
ATOM     12  H   UNL     1      47.984   6.637  14.999  0.00  0.00    +0.000 HD
ATOM     13  H   UNL     1      48.266   5.698  16.454  0.00  0.00    +0.000 HD
ENDBRANCH   5   9
BRANCH   1  14
ATOM     14  C   UNL     1      44.141   4.379   9.398  0.00  0.00    +0.000 C 
BRANCH  14  20
ATOM     15  C   UNL     1      47.036   3.614   5.543  0.00  0.00    +0.000 C 
ATOM     16  C   UNL     1      46.434   3.063   6.800  0.00  0.00    +0.000 A 
ATOM     17  C   UNL     1      46.664   1.746   7.183  0.00  0.00    +0.000 A 
ATOM     18  C   UNL     1      46.066   1.276   8.348  0.00  0.00    +0.000 A 
ATOM     19  C   UNL     1      45.250   2.125   9.090  0.00  0.00    +0.000 A 
ATOM     20  C   UNL     1      45.049   3.426   8.638  0.00  0.00    +0.000 A 
ATOM     21  N   UNL     1      45.650   3.904   7.516  0.00  0.00    +0.000 NA
ENDBRANCH  14  20
ENDBRANCH   1  14
TORSDOF 3
ENDMDL
MODEL 4
REMARK VINA RESULT:    -7.116      2.784      6.401
REMARK INTER + INTRA:          -8.643
REMARK INTER:                  -8.529
REMARK INTRA:                  -0.115
REMARK UNBOUND:                -0.280
REMARK  Name = 
REMARK  4 active torsions:
REMARK  status: ('A' for Active; 'I' for Inactive)
REMARK    1  A    between atoms: C_1  and  C_2
REMARK    2  A    between atoms: C_6  and  C_7
REMARK    3  A    between atoms: C_7  and  N_8
REMARK    4  A    between atoms: C_12  and  C_13
REMARK                            x       y       z     vdW  Elec       q    Type
REMARK                         _______ _______ _______ _____ _____    ______ ____
ROOT
ATOM      1  N   UNL     1      44.945   3.141  11.302  0.00  0.00    +0.000 N 
ATOM      2  C   UNL     1      45.452   4.344  11.823  0.00  0.00    +0.000 A 
ATOM      3  C   UNL     1      45.801   4.421  13.180  0.00  0.00    +0.000 A 
ATOM      4  N   UNL     1      46.337   5.522  13.776  0.00  0.00    +0.000 NA
ATOM      5  C   UNL     1      46.550   6.564  12.929  0.00  0.00    +0.000 A 
ATOM      6  C   UNL     1      46.235   6.501  11.582  0.00  0.00    +0.000 A 
ATOM      7  N   UNL     1      45.671   5.401  11.013  0.00  0.00    +0.000 NA
ATOM      8  H   UNL     1      45.733   2.503  11.175  0.00  0.00    +0.000 HD
ENDROOT
BRANCH   5   9
ATOM      9  C   UNL     1      47.142   7.813  13.486  0.00  0.00    +0.000 C 
ATOM     10  N   UNL     1      46.271   8.851  13.688  0.00  0.00    +0.000 N 
ATOM     11  O   UNL     1      48.333   7.916  13.737  0.00  0.00    +0.000 OA
ATOM     12  H   UNL     1      45.290   8.746  13.461  0.00  0.00    +0.000 HD
ATOM     13  H   UNL     1      46.618   9.724  14.059  0.00  0.00    +0.000 HD
ENDBRANCH   5   9
BRANCH   1  14
ATOM     14  C   UNL     1      44.250   3.307  10.022  0.00  0.00    +0.000 C 
BRANCH  14  20
ATOM     15  C   UNL     1      46.807  -0.120   7.669  0.00  0.00    +0.000 C 
ATOM     16  C   UNL     1      46.387   1.316   7.739  0.00  0.00    +0.000 A 
ATOM     17  C   UNL     1      46.873   2.248   6.828  0.00  0.00    +0.000 A 
ATOM     18  C   UNL     1      46.467   3.573   6.949  0.00  0.00    +0.000 A 
ATOM     19  C   UNL     1      45.602   3.935   7.978  0.00  0.00    +0.000 A 
ATOM     20  C   UNL     1      45.169   2.954   8.865  0.00  0.00    +0.000 A 
ATOM     21  N   UNL     1      45.537   1.651   8.740  0.00  0.00    +0.000 NA
ENDBRANCH  14  20
ENDBRANCH   1  14
TORSDOF 3
ENDMDL
MODEL 5
REMARK VINA RESULT:    -6.447      4.147      5.979
REMARK INTER + INTRA:          -7.858
REMARK INTER:                  -7.596
REMARK INTRA:                  -0.262
REMARK UNBOUND:                -0.280
REMARK  Name = 
REMARK  4 active torsions:
REMARK  status: ('A' for Active; 'I' for Inactive)
REMARK    1  A    between atoms: C_1  and  C_2
REMARK    2  A    between atoms: C_6  and  C_7
REMARK    3  A    between atoms: C_7  and  N_8
REMARK    4  A    between atoms: C_12  and  C_13
REMARK                            x       y       z     vdW  Elec       q    Type
REMARK                         _______ _______ _______ _____ _____    ______ ____
ROOT
ATOM      1  N   UNL     1      47.209   5.295  14.920  0.00  0.00    +0.000 N 
ATOM      2  C   UNL     1      46.423   4.912  13.820  0.00  0.00    +0.000 A 
ATOM      3  C   UNL     1      46.048   5.871  12.865  0.00  0.00    +0.000 A 
ATOM      4  N   UNL     1      45.325   5.600  11.745  0.00  0.00    +0.000 NA
ATOM      5  C   UNL     1      45.010   4.286  11.590  0.00  0.00    +0.000 A 
ATOM      6  C   UNL     1      45.390   3.321  12.507  0.00  0.00    +0.000 A 
ATOM      7  N   UNL     1      46.086   3.618  13.637  0.00  0.00    +0.000 NA
ATOM      8  H   UNL     1      48.171   5.400  14.592  0.00  0.00    +0.000 HD
ENDROOT
BRANCH   5   9
ATOM      9  C   UNL     1      44.226   3.888  10.387  0.00  0.00    +0.000 C 
ATOM     10  N   UNL     1      44.087   4.844   9.417  0.00  0.00    +0.000 N 
ATOM     11  O   UNL     1      43.723   2.780  10.274  0.00  0.00    +0.000 OA
ATOM     12  H   UNL     1      44.503   5.759   9.540  0.00  0.00    +0.000 HD
ATOM     13  H   UNL     1      43.560   4.631   8.583  0.00  0.00    +0.000 HD
ENDBRANCH   5   9
BRANCH   1  14
ATOM     14  C   UNL     1      47.179   4.329  16.022  0.00  0.00    +0.000 C 
BRANCH  14  20
ATOM     15  C   UNL     1      51.056   1.676  17.347  0.00  0.00    +0.000 C 
ATOM     16  C   UNL     1      50.378   3.012  17.354  0.00  0.00    +0.000 A 
ATOM     17  C   UNL     1      50.942   4.095  18.019  0.00  0.00    +0.000 A 
ATOM     18  C   UNL     1      50.264   5.309  18.012  0.00  0.00    +0.000 A 
ATOM     19  C   UNL     1      49.040   5.407  17.355  0.00  0.00    +0.000 A 
ATOM     20  C   UNL     1      48.526   4.278  16.724  0.00  0.00    +0.000 A 
ATOM     21  N   UNL     1      49.194   3.094  16.702  0.00  0.00    +0.000 NA
ENDBRANCH  14  20
ENDBRANCH   1  14
TORSDOF 3
ENDMDL
MODEL 6
REMARK VINA RESULT:    -6.209      4.361      7.579
REMARK INTER + INTRA:          -7.578
REMARK INTER:                  -7.310
REMARK INTRA:                  -0.268
REMARK UNBOUND:                -0.280
REMARK  Name = 
REMARK  4 active torsions:
REMARK  status: ('A' for Active; 'I' for Inactive)
REMARK    1  A    between atoms: C_1  and  C_2
REMARK    2  A    between atoms: C_6  and  C_7
REMARK    3  A    between atoms: C_7  and  N_8
REMARK    4  A    between atoms: C_12  and  C_13
REMARK                            x       y       z     vdW  Elec       q    Type
REMARK                         _______ _______ _______ _____ _____    ______ ____
ROOT
ATOM      1  N   UNL     1      46.110   5.531  13.766  0.00  0.00    +0.000 N 
ATOM      2  C   UNL     1      46.971   5.069  14.776  0.00  0.00    +0.000 A 
ATOM      3  C   UNL     1      48.107   5.820  15.117  0.00  0.00    +0.000 A 
ATOM      4  N   UNL     1      48.983   5.486  16.104  0.00  0.00    +0.000 NA
ATOM      5  C   UNL     1      48.651   4.356  16.784  0.00  0.00    +0.000 A 
ATOM      6  C   UNL     1      47.522   3.614  16.478  0.00  0.00    +0.000 A 
ATOM      7  N   UNL     1      46.677   3.948  15.467  0.00  0.00    +0.000 NA
ATOM      8  H   UNL     1      45.541   6.282  14.163  0.00  0.00    +0.000 HD
ENDROOT
BRANCH   5   9
ATOM      9  C   UNL     1      49.544   3.911  17.890  0.00  0.00    +0.000 C 
ATOM     10  N   UNL     1      48.935   3.670  19.092  0.00  0.00    +0.000 N 
ATOM     11  O   UNL     1      50.750   3.781  17.743  0.00  0.00    +0.000 OA
ATOM     12  H   UNL     1      47.935   3.796  19.193  0.00  0.00    +0.000 HD
ATOM     13  H   UNL     1      49.493   3.371  19.880  0.00  0.00    +0.000 HD
ENDBRANCH   5   9
BRANCH   1  14
ATOM     14  C   UNL     1      45.227   4.490  13.233  0.00  0.00    +0.000 C 
BRANCH  14  20
ATOM     15  C   UNL     1      44.664   1.959   9.098  0.00  0.00    +0.000 C 
ATOM     16  C   UNL     1      44.998   3.271   9.740  0.00  0.00    +0.000 A 
ATOM     17  C   UNL     1      45.378   4.365   8.971  0.00  0.00    +0.000 A 
ATOM     18  C   UNL     1      45.697   5.556   9.616  0.00  0.00    +0.000 A 
ATOM     19  C   UNL     1      45.642   5.618  11.006  0.00  0.00    +0.000 A 
ATOM     20  C   UNL     1      45.270   4.479  11.714  0.00  0.00    +0.000 A 
ATOM     21  N   UNL     1      44.930   3.318  11.092  0.00  0.00    +0.000 NA
ENDBRANCH  14  20
ENDBRANCH   1  14
TORSDOF 3
ENDMDL
MODEL 7
REMARK VINA RESULT:    -5.959      4.332      6.133
REMARK INTER + INTRA:          -7.284
REMARK INTER:                  -7.063
REMARK INTRA:                  -0.221
REMARK UNBOUND:                -0.280
REMARK  Name = 
REMARK  4 active torsions:
REMARK  status: ('A' for Active; 'I' for Inactive)
REMARK    1  A    between atoms: C_1  and  C_2
REMARK    2  A    between atoms: C_6  and  C_7
REMARK    3  A    between atoms: C_7  and  N_8
REMARK    4  A    between atoms: C_12  and  C_13
REMARK                            x       y       z     vdW  Elec       q    Type
REMARK                         _______ _______ _______ _____ _____    ______ ____
ROOT
ATOM      1  N   UNL     1      47.216   5.146  15.137  0.00  0.00    +0.000 N 
ATOM      2  C   UNL     1      46.483   4.889  13.965  0.00  0.00    +0.000 A 
ATOM      3  C   UNL     1      46.141   5.952  13.113  0.00  0.00    +0.000 A 
ATOM      4  N   UNL     1      45.470   5.810  11.937  0.00  0.00    +0.000 NA
ATOM      5  C   UNL     1      45.176   4.522  11.617  0.00  0.00    +0.000 A 
ATOM      6  C   UNL     1      45.525   3.458  12.431  0.00  0.00    +0.000 A 
ATOM      7  N   UNL     1      46.168   3.624  13.618  0.00  0.00    +0.000 NA
ATOM      8  H   UNL     1      48.190   5.293  14.866  0.00  0.00    +0.000 HD
ENDROOT
BRANCH   5   9
ATOM      9  C   UNL     1      44.449   4.262  10.342  0.00  0.00    +0.000 C 
ATOM     10  N   UNL     1      44.921   4.920   9.237  0.00  0.00    +0.000 N 
ATOM     11  O   UNL     1      43.481   3.519  10.282  0.00  0.00    +0.000 OA
ATOM     12  H   UNL     1      45.718   5.540   9.315  0.00  0.00    +0.000 HD
ATOM     13  H   UNL     1      44.464   4.786   8.347  0.00  0.00    +0.000 HD
ENDBRANCH   5   9
BRANCH   1  14
ATOM     14  C   UNL     1      47.148   4.057  16.116  0.00  0.00    +0.000 C 
BRANCH  14  20
ATOM     15  C   UNL     1      47.407   6.238  20.475  0.00  0.00    +0.000 C 
ATOM     16  C   UNL     1      48.104   5.427  19.425  0.00  0.00    +0.000 A 
ATOM     17  C   UNL     1      49.440   5.072  19.568  0.00  0.00    +0.000 A 
ATOM     18  C   UNL     1      50.047   4.336  18.555  0.00  0.00    +0.000 A 
ATOM     19  C   UNL     1      49.311   3.986  17.427  0.00  0.00    +0.000 A 
ATOM     20  C   UNL     1      47.981   4.389  17.342  0.00  0.00    +0.000 A 
ATOM     21  N   UNL     1      47.371   5.085  18.338  0.00  0.00    +0.000 NA
ENDBRANCH  14  20
ENDBRANCH   1  14
TORSDOF 3
ENDMDL
MODEL 8
REMARK VINA RESULT:    -5.908      3.705      6.848
REMARK INTER + INTRA:          -7.224
REMARK INTER:                  -7.010
REMARK INTRA:                  -0.214
REMARK UNBOUND:                -0.280
REMARK  Name = 
REMARK  4 active torsions:
REMARK  status: ('A' for Active; 'I' for Inactive)
REMARK    1  A    between atoms: C_1  and  C_2
REMARK    2  A    between atoms: C_6  and  C_7
REMARK    3  A    between atoms: C_7  and  N_8
REMARK    4  A    between atoms: C_12  and  C_13
REMARK                            x       y       z     vdW  Elec       q    Type
REMARK                         _______ _______ _______ _____ _____    ______ ____
ROOT
ATOM      1  N   UNL     1      45.464   3.977  13.310  0.00  0.00    +0.000 N 
ATOM      2  C   UNL     1      46.448   4.797  13.888  0.00  0.00    +0.000 A 
ATOM      3  C   UNL     1      47.122   4.366  15.042  0.00  0.00    +0.000 A 
ATOM      4  N   UNL     1      48.117   5.063  15.657  0.00  0.00    +0.000 NA
ATOM      5  C   UNL     1      48.447   6.227  15.037  0.00  0.00    +0.000 A 
ATOM      6  C   UNL     1      47.810   6.658  13.885  0.00  0.00    +0.000 A 
ATOM      7  N   UNL     1      46.797   5.962  13.303  0.00  0.00    +0.000 NA
ATOM      8  H   UNL     1      45.943   3.233  12.798  0.00  0.00    +0.000 HD
ENDROOT
BRANCH   5   9
ATOM      9  C   UNL     1      49.532   7.058  15.631  0.00  0.00    +0.000 C 
ATOM     10  N   UNL     1      50.626   7.274  14.836  0.00  0.00    +0.000 N 
ATOM     11  O   UNL     1      49.461   7.511  16.763  0.00  0.00    +0.000 OA
ATOM     12  H   UNL     1      50.666   6.878  13.905  0.00  0.00    +0.000 HD
ATOM     13  H   UNL     1      51.394   7.825  15.189  0.00  0.00    +0.000 HD
ENDBRANCH   5   9
BRANCH   1  14
ATOM     14  C   UNL     1      44.573   4.693  12.394  0.00  0.00    +0.000 C 
BRANCH  14  20
ATOM     15  C   UNL     1      44.851   1.421   8.783  0.00  0.00    +0.000 C 
ATOM     16  C   UNL     1      45.070   2.836   9.225  0.00  0.00    +0.000 A 
ATOM     17  C   UNL     1      45.631   3.773   8.364  0.00  0.00    +0.000 A 
ATOM     18  C   UNL     1      45.832   5.069   8.829  0.00  0.00    +0.000 A 
ATOM     19  C   UNL     1      45.482   5.390  10.137  0.00  0.00    +0.000 A 
ATOM     20  C   UNL     1      44.941   4.397  10.949  0.00  0.00    +0.000 A 
ATOM     21  N   UNL     1      44.715   3.135  10.497  0.00  0.00    +0.000 NA
ENDBRANCH  14  20
ENDBRANCH   1  14
TORSDOF 3
ENDMDL
MODEL 9
REMARK VINA RESULT:    -5.895      5.455      8.519
REMARK INTER + INTRA:          -7.208
REMARK INTER:                  -6.941
REMARK INTRA:                  -0.267
REMARK UNBOUND:                -0.280
REMARK  Name = 
REMARK  4 active torsions:
REMARK  status: ('A' for Active; 'I' for Inactive)
REMARK    1  A    between atoms: C_1  and  C_2
REMARK    2  A    between atoms: C_6  and  C_7
REMARK    3  A    between atoms: C_7  and  N_8
REMARK    4  A    between atoms: C_12  and  C_13
REMARK                            x       y       z     vdW  Elec       q    Type
REMARK                         _______ _______ _______ _____ _____    ______ ____
ROOT
ATOM      1  N   UNL     1      47.006   3.894  14.654  0.00  0.00    +0.000 N 
ATOM      2  C   UNL     1      47.562   4.158  15.917  0.00  0.00    +0.000 A 
ATOM      3  C   UNL     1      47.277   3.304  16.994  0.00  0.00    +0.000 A 
ATOM      4  N   UNL     1      47.795   3.444  18.245  0.00  0.00    +0.000 NA
ATOM      5  C   UNL     1      48.663   4.482  18.375  0.00  0.00    +0.000 A 
ATOM      6  C   UNL     1      48.976   5.322  17.320  0.00  0.00    +0.000 A 
ATOM      7  N   UNL     1      48.424   5.183  16.085  0.00  0.00    +0.000 NA
ATOM      8  H   UNL     1      47.536   3.127  14.236  0.00  0.00    +0.000 HD
ENDROOT
BRANCH   5   9
ATOM      9  C   UNL     1      49.289   4.713  19.708  0.00  0.00    +0.000 C 
ATOM     10  N   UNL     1      48.673   4.111  20.772  0.00  0.00    +0.000 N 
ATOM     11  O   UNL     1      50.285   5.406  19.849  0.00  0.00    +0.000 OA
ATOM     12  H   UNL     1      47.842   3.550  20.631  0.00  0.00    +0.000 HD
ATOM     13  H   UNL     1      49.051   4.238  21.700  0.00  0.00    +0.000 HD
ENDBRANCH   5   9
BRANCH   1  14
ATOM     14  C   UNL     1      47.037   5.048  13.751  0.00  0.00    +0.000 C 
BRANCH  14  20
ATOM     15  C   UNL     1      43.336   2.465  11.892  0.00  0.00    +0.000 C 
ATOM     16  C   UNL     1      44.217   3.672  11.777  0.00  0.00    +0.000 A 
ATOM     17  C   UNL     1      44.094   4.546  10.703  0.00  0.00    +0.000 A 
ATOM     18  C   UNL     1      44.949   5.642  10.633  0.00  0.00    +0.000 A 
ATOM     19  C   UNL     1      45.907   5.827  11.625  0.00  0.00    +0.000 A 
ATOM     20  C   UNL     1      45.986   4.904  12.663  0.00  0.00    +0.000 A 
ATOM     21  N   UNL     1      45.137   3.845  12.756  0.00  0.00    +0.000 NA
ENDBRANCH  14  20
ENDBRANCH   1  14
TORSDOF 3
ENDMDL
