MODEL 1
REMARK VINA RESULT:    -7.385      0.000      0.000
REMARK INTER + INTRA:         -10.342
REMARK INTER:                  -9.543
REMARK INTRA:                  -0.799
REMARK UNBOUND:                -0.799
REMARK  Name = 
REMARK  5 active torsions:
REMARK  status: ('A' for Active; 'I' for Inactive)
REMARK    1  A    between atoms: C_2  and  C_5
REMARK    2  A    between atoms: C_9  and  N_10
REMARK    3  A    between atoms: N_10  and  C_11
REMARK    4  A    between atoms: C_11  and  C_12
REMARK    5  A    between atoms: C_17  and  N_18
REMARK                            x       y       z     vdW  Elec       q    Type
REMARK                         _______ _______ _______ _____ _____    ______ ____
ROOT
ATOM      1  C   UNL     1      44.864   6.281  11.288  0.00  0.00    +0.000 C 
ENDROOT
BRANCH   1   2
ATOM      2  C   UNL     1      45.770   5.953  12.459  0.00  0.00    +0.000 A 
ATOM      3  C   UNL     1      45.462   4.851  13.292  0.00  0.00    +0.000 A 
ATOM      4  C   UNL     1      46.313   4.467  14.313  0.00  0.00    +0.000 A 
ATOM      5  C   UNL     1      47.458   5.201  14.486  0.00  0.00    +0.000 A 
ATOM      6  N   UNL     1      47.770   6.280  13.739  0.00  0.00    +0.000 NA
ATOM      7  C   UNL     1      46.941   6.692  12.743  0.00  0.00    +0.000 A 
BRANCH   7   8
ATOM      8  N   UNL     1      47.344   7.850  12.098  0.00  0.00    +0.000 N 
ATOM      9  C   UNL     1      48.585   7.802  11.313  0.00  0.00    +0.000 C 
ATOM     10  C   UNL     1      49.482   9.006  11.618  0.00  0.00    +0.000 C 
ATOM     11  C   UNL     1      48.723  10.314  11.453  0.00  0.00    +0.000 C 
ATOM     12  C   UNL     1      47.504  10.309  12.355  0.00  0.00    +0.000 C 
ATOM     13  C   UNL     1      46.604   9.104  12.099  0.00  0.00    +0.000 C 
ENDBRANCH   7   8
ENDBRANCH   1   2
BRANCH   1  14
ATOM     14  N   UNL     1      45.381   5.891   9.989  0.00  0.00    +0.000 N 
ATOM     15  H   UNL     1      45.274   6.552   9.224  0.00  0.00    +0.000 HD
BRANCH  14  20
ATOM     16  C   UNL     1      46.021   3.122   7.863  0.00  0.00    +0.000 A 
ATOM     17  C   UNL     1      45.281   2.077   8.410  0.00  0.00    +0.000 A 
ATOM     18  C   UNL     1      44.511   2.329   9.538  0.00  0.00    +0.000 A 
ATOM     19  C   UNL     1      44.515   3.605  10.095  0.00  0.00    +0.000 A 
ATOM     20  C   UNL     1      45.258   4.615   9.497  0.00  0.00    +0.000 A 
ATOM     21  N   UNL     1      45.993   4.379   8.395  0.00  0.00    +0.000 NA
BRANCH  16  23
ATOM     22  F   UNL     1      46.704   1.655   6.074  0.00  0.00    +0.000 F 
ATOM     23  C   UNL     1      46.913   2.872   6.658  0.00  0.00    +0.000 C 
ATOM     24  F   UNL     1      48.243   2.901   6.960  0.00  0.00    +0.000 F 
ATOM     25  F   UNL     1      46.733   3.785   5.659  0.00  0.00    +0.000 F 
ENDBRANCH  16  23
ENDBRANCH  14  20
ENDBRANCH   1  14
TORSDOF 5
ENDMDL
MODEL 2
REMARK VINA RESULT:    -7.137      4.975      7.594
REMARK INTER + INTRA:         -10.022
REMARK INTER:                  -9.384
REMARK INTRA:                  -0.638
REMARK UNBOUND:                -0.799
REMARK  Name = 
REMARK  5 active torsions:
REMARK  status: ('A' for Active; 'I' for Inactive)
REMARK    1  A    between atoms: C_2  and  C_5
REMARK    2  A    between atoms: C_9  and  N_10
REMARK    3  A    between atoms: N_10  and  C_11
REMARK    4  A    between atoms: C_11  and  C_12
REMARK    5  A    between atoms: C_17  and  N_18
REMARK                            x       y       z     vdW  Elec       q    Type
REMARK                         _______ _______ _______ _____ _____    ______ ____
ROOT
ATOM      1  C   UNL     1      46.054   3.501  12.168  0.00  0.00    +0.000 C 
ENDROOT
BRANCH   1   2
ATOM      2  C   UNL     1      44.697   4.155  11.989  0.00  0.00    +0.000 A 
ATOM      3  C   UNL     1      44.010   4.655  13.120  0.00  0.00    +0.000 A 
ATOM      4  C   UNL     1      42.814   5.339  12.985  0.00  0.00    +0.000 A 
ATOM      5  C   UNL     1      42.324   5.502  11.715  0.00  0.00    +0.000 A 
ATOM      6  N   UNL     1      42.929   5.008  10.614  0.00  0.00    +0.000 NA
ATOM      7  C   UNL     1      44.094   4.314  10.721  0.00  0.00    +0.000 A 
BRANCH   7   8
ATOM      8  N   UNL     1      44.573   3.805   9.526  0.00  0.00    +0.000 N 
ATOM      9  C   UNL     1      44.390   2.369   9.268  0.00  0.00    +0.000 C 
ATOM     10  C   UNL     1      45.684   1.727   8.757  0.00  0.00    +0.000 C 
ATOM     11  C   UNL     1      46.237   2.483   7.558  0.00  0.00    +0.000 C 
ATOM     12  C   UNL     1      46.469   3.932   7.935  0.00  0.00    +0.000 C 
ATOM     13  C   UNL     1      45.206   4.594   8.479  0.00  0.00    +0.000 C 
ENDBRANCH   7   8
ENDBRANCH   1   2
BRANCH   1  14
ATOM     14  N   UNL     1      46.419   3.221  13.545  0.00  0.00    +0.000 N 
ATOM     15  H   UNL     1      45.755   2.695  14.109  0.00  0.00    +0.000 HD
BRANCH  14  20
ATOM     16  C   UNL     1      48.037   4.486  16.439  0.00  0.00    +0.000 A 
ATOM     17  C   UNL     1      48.452   5.766  16.082  0.00  0.00    +0.000 A 
ATOM     18  C   UNL     1      48.149   6.231  14.808  0.00  0.00    +0.000 A 
ATOM     19  C   UNL     1      47.458   5.403  13.927  0.00  0.00    +0.000 A 
ATOM     20  C   UNL     1      47.053   4.141  14.344  0.00  0.00    +0.000 A 
ATOM     21  N   UNL     1      47.332   3.693  15.581  0.00  0.00    +0.000 NA
BRANCH  16  23
ATOM     22  F   UNL     1      48.139   4.795  18.830  0.00  0.00    +0.000 F 
ATOM     23  C   UNL     1      48.393   3.926  17.807  0.00  0.00    +0.000 C 
ATOM     24  F   UNL     1      49.714   3.606  17.928  0.00  0.00    +0.000 F 
ATOM     25  F   UNL     1      47.701   2.792  18.119  0.00  0.00    +0.000 F 
ENDBRANCH  16  23
ENDBRANCH  14  20
ENDBRANCH   1  14
TORSDOF 5
ENDMDL
MODEL 3
REMARK VINA RESULT:    -6.944      2.199      3.442
REMARK INTER + INTRA:          -9.772
REMARK INTER:                  -8.848
REMARK INTRA:                  -0.924
REMARK UNBOUND:                -0.799
REMARK  Name = 
REMARK  5 active torsions:
REMARK  status: ('A' for Active; 'I' for Inactive)
REMARK    1  A    between atoms: C_2  and  C_5
REMARK    2  A    between atoms: C_9  and  N_10
REMARK    3  A    between atoms: N_10  and  C_11
REMARK    4  A    between atoms: C_11  and  C_12
REMARK    5  A    between atoms: C_17  and  N_18
REMARK                            x       y       z     vdW  Elec       q    Type
REMARK                         _______ _______ _______ _____ _____    ______ ____
ROOT
ATOM      1  C   UNL     1      46.975   4.218  13.880  0.00  0.00    +0.000 C 
ENDROOT
BRANCH   1   2
ATOM      2  C   UNL     1      47.484   4.810  15.180  0.00  0.00    +0.000 A 
ATOM      3  C   UNL     1      47.311   4.092  16.388  0.00  0.00    +0.000 A 
ATOM      4  C   UNL     1      47.843   4.558  17.578  0.00  0.00    +0.000 A 
ATOM      5  C   UNL     1      48.532   5.742  17.537  0.00  0.00    +0.000 A 
ATOM      6  N   UNL     1      48.687   6.476  16.415  0.00  0.00    +0.000 NA
ATOM      7  C   UNL     1      48.156   6.052  15.237  0.00  0.00    +0.000 A 
BRANCH   7   8
ATOM      8  N   UNL     1      48.328   6.929  14.178  0.00  0.00    +0.000 N 
ATOM      9  C   UNL     1      47.124   7.462  13.526  0.00  0.00    +0.000 C 
ATOM     10  C   UNL     1      47.235   7.376  12.000  0.00  0.00    +0.000 C 
ATOM     11  C   UNL     1      48.519   8.025  11.504  0.00  0.00    +0.000 C 
ATOM     12  C   UNL     1      49.710   7.362  12.168  0.00  0.00    +0.000 C 
ATOM     13  C   UNL     1      49.616   7.402  13.690  0.00  0.00    +0.000 C 
ENDBRANCH   7   8
ENDBRANCH   1   2
BRANCH   1  14
ATOM     14  N   UNL     1      45.541   4.002  13.828  0.00  0.00    +0.000 N 
ATOM     15  H   UNL     1      45.194   3.088  14.110  0.00  0.00    +0.000 HD
BRANCH  14  20
ATOM     16  C   UNL     1      44.521   4.599  10.482  0.00  0.00    +0.000 A 
ATOM     17  C   UNL     1      43.286   5.232  10.596  0.00  0.00    +0.000 A 
ATOM     18  C   UNL     1      42.787   5.489  11.866  0.00  0.00    +0.000 A 
ATOM     19  C   UNL     1      43.522   5.094  12.981  0.00  0.00    +0.000 A 
ATOM     20  C   UNL     1      44.757   4.482  12.808  0.00  0.00    +0.000 A 
ATOM     21  N   UNL     1      45.252   4.245  11.579  0.00  0.00    +0.000 NA
BRANCH  16  23
ATOM     22  F   UNL     1      45.650   3.019   9.049  0.00  0.00    +0.000 F 
ATOM     23  C   UNL     1      45.077   4.258   9.108  0.00  0.00    +0.000 C 
ATOM     24  F   UNL     1      46.047   5.122   8.693  0.00  0.00    +0.000 F 
ATOM     25  F   UNL     1      44.125   4.261   8.130  0.00  0.00    +0.000 F 
ENDBRANCH  16  23
ENDBRANCH  14  20
ENDBRANCH   1  14
TORSDOF 5
ENDMDL
MODEL 4
REMARK VINA RESULT:    -6.794      1.364      2.793
REMARK INTER + INTRA:          -9.578
REMARK INTER:                  -8.855
REMARK INTRA:                  -0.723
REMARK UNBOUND:                -0.799
REMARK  Name = 
REMARK  5 active torsions:
REMARK  status: ('A' for Active; 'I' for Inactive)
REMARK    1  A    between atoms: C_2  and  C_5
REMARK    2  A    between atoms: C_9  and  N_10
REMARK    3  A    between atoms: N_10  and  C_11
REMARK    4  A    between atoms: C_11  and  C_12
REMARK    5  A    between atoms: C_17  and  N_18
REMARK                            x       y       z     vdW  Elec       q    Type
REMARK                         _______ _______ _______ _____ _____    ______ ____
ROOT
ATOM      1  C   UNL     1      45.438   6.119  11.132  0.00  0.00    +0.000 C 
ENDROOT
BRANCH   1   2
ATOM      2  C   UNL     1      45.291   7.605  11.399  0.00  0.00    +0.000 A 
ATOM      3  C   UNL     1      44.110   8.272  10.994  0.00  0.00    +0.000 A 
ATOM      4  C   UNL     1      43.902   9.605  11.302  0.00  0.00    +0.000 A 
ATOM      5  C   UNL     1      44.888  10.249  12.004  0.00  0.00    +0.000 A 
ATOM      6  N   UNL     1      46.044   9.661  12.375  0.00  0.00    +0.000 NA
ATOM      7  C   UNL     1      46.283   8.358  12.067  0.00  0.00    +0.000 A 
BRANCH   7   8
ATOM      8  N   UNL     1      47.533   7.895  12.445  0.00  0.00    +0.000 N 
ATOM      9  C   UNL     1      47.666   7.288  13.777  0.00  0.00    +0.000 C 
ATOM     10  C   UNL     1      48.891   7.834  14.517  0.00  0.00    +0.000 C 
ATOM     11  C   UNL     1      50.150   7.700  13.671  0.00  0.00    +0.000 C 
ATOM     12  C   UNL     1      49.952   8.421  12.352  0.00  0.00    +0.000 C 
ATOM     13  C   UNL     1      48.720   7.922  11.603  0.00  0.00    +0.000 C 
ENDBRANCH   7   8
ENDBRANCH   1   2
BRANCH   1  14
ATOM     14  N   UNL     1      45.314   5.734   9.738  0.00  0.00    +0.000 N 
ATOM     15  H   UNL     1      44.719   6.306   9.145  0.00  0.00    +0.000 HD
BRANCH  14  20
ATOM     16  C   UNL     1      46.033   2.827   7.835  0.00  0.00    +0.000 A 
ATOM     17  C   UNL     1      45.295   1.814   8.442  0.00  0.00    +0.000 A 
ATOM     18  C   UNL     1      44.498   2.137   9.533  0.00  0.00    +0.000 A 
ATOM     19  C   UNL     1      44.474   3.450   9.995  0.00  0.00    +0.000 A 
ATOM     20  C   UNL     1      45.217   4.423   9.339  0.00  0.00    +0.000 A 
ATOM     21  N   UNL     1      45.978   4.118   8.272  0.00  0.00    +0.000 NA
BRANCH  16  23
ATOM     22  F   UNL     1      48.246   2.891   6.876  0.00  0.00    +0.000 F 
ATOM     23  C   UNL     1      46.953   2.501   6.669  0.00  0.00    +0.000 C 
ATOM     24  F   UNL     1      46.578   3.106   5.505  0.00  0.00    +0.000 F 
ATOM     25  F   UNL     1      47.020   1.165   6.396  0.00  0.00    +0.000 F 
ENDBRANCH  16  23
ENDBRANCH  14  20
ENDBRANCH   1  14
TORSDOF 5
ENDMDL
MODEL 5
REMARK VINA RESULT:    -6.752      3.999      5.754
REMARK INTER + INTRA:          -9.524
REMARK INTER:                  -8.573
REMARK INTRA:                  -0.951
REMARK UNBOUND:                -0.799
REMARK  Name = 
REMARK  5 active torsions:
REMARK  status: ('A' for Active; 'I' for Inactive)
REMARK    1  A    between atoms: C_2  and  C_5
REMARK    2  A    between atoms: C_9  and  N_10
REMARK    3  A    between atoms: N_10  and  C_11
REMARK    4  A    between atoms: C_11  and  C_12
REMARK    5  A    between atoms: C_17  and  N_18
REMARK                            x       y       z     vdW  Elec       q    Type
REMARK                         _______ _______ _______ _____ _____    ______ ____
ROOT
ATOM      1  C   UNL     1      47.497   4.269  16.345  0.00  0.00    +0.000 C 
ENDROOT
BRANCH   1   2
ATOM      2  C   UNL     1      48.857   3.867  16.883  0.00  0.00    +0.000 A 
ATOM      3  C   UNL     1      49.211   2.497  16.928  0.00  0.00    +0.000 A 
ATOM      4  C   UNL     1      50.475   2.099  17.326  0.00  0.00    +0.000 A 
ATOM      5  C   UNL     1      51.361   3.083  17.680  0.00  0.00    +0.000 A 
ATOM      6  N   UNL     1      51.052   4.396  17.688  0.00  0.00    +0.000 NA
ATOM      7  C   UNL     1      49.810   4.813  17.322  0.00  0.00    +0.000 A 
BRANCH   7   8
ATOM      8  N   UNL     1      49.602   6.178  17.438  0.00  0.00    +0.000 N 
ATOM      9  C   UNL     1      49.158   6.696  18.740  0.00  0.00    +0.000 C 
ATOM     10  C   UNL     1      47.990   7.674  18.579  0.00  0.00    +0.000 C 
ATOM     11  C   UNL     1      48.326   8.774  17.582  0.00  0.00    +0.000 C 
ATOM     12  C   UNL     1      48.695   8.153  16.249  0.00  0.00    +0.000 C 
ATOM     13  C   UNL     1      49.836   7.149  16.379  0.00  0.00    +0.000 C 
ENDBRANCH   7   8
ENDBRANCH   1   2
BRANCH   1  14
ATOM     14  N   UNL     1      47.092   3.579  15.134  0.00  0.00    +0.000 N 
ATOM     15  H   UNL     1      47.630   2.762  14.857  0.00  0.00    +0.000 HD
BRANCH  14  20
ATOM     16  C   UNL     1      45.211   4.176  12.185  0.00  0.00    +0.000 A 
ATOM     17  C   UNL     1      45.594   5.449  11.772  0.00  0.00    +0.000 A 
ATOM     18  C   UNL     1      46.552   6.127  12.515  0.00  0.00    +0.000 A 
ATOM     19  C   UNL     1      47.085   5.526  13.652  0.00  0.00    +0.000 A 
ATOM     20  C   UNL     1      46.678   4.246  14.007  0.00  0.00    +0.000 A 
ATOM     21  N   UNL     1      45.762   3.579  13.281  0.00  0.00    +0.000 NA
BRANCH  16  23
ATOM     22  F   UNL     1      44.623   2.631  10.427  0.00  0.00    +0.000 F 
ATOM     23  C   UNL     1      44.130   3.424  11.424  0.00  0.00    +0.000 C 
ATOM     24  F   UNL     1      43.230   4.248  10.815  0.00  0.00    +0.000 F 
ATOM     25  F   UNL     1      43.399   2.588  12.218  0.00  0.00    +0.000 F 
ENDBRANCH  16  23
ENDBRANCH  14  20
ENDBRANCH   1  14
TORSDOF 5
ENDMDL
MODEL 6
REMARK VINA RESULT:    -6.727      4.289      7.611
REMARK INTER + INTRA:          -9.492
REMARK INTER:                  -8.540
REMARK INTRA:                  -0.952
REMARK UNBOUND:                -0.799
REMARK  Name = 
REMARK  5 active torsions:
REMARK  status: ('A' for Active; 'I' for Inactive)
REMARK    1  A    between atoms: C_2  and  C_5
REMARK    2  A    between atoms: C_9  and  N_10
REMARK    3  A    between atoms: N_10  and  C_11
REMARK    4  A    between atoms: C_11  and  C_12
REMARK    5  A    between atoms: C_17  and  N_18
REMARK                            x       y       z     vdW  Elec       q    Type
REMARK                         _______ _______ _______ _____ _____    ______ ____
ROOT
ATOM      1  C   UNL     1      46.592   5.963  13.254  0.00  0.00    +0.000 C 
ENDROOT
BRANCH   1   2
ATOM      2  C   UNL     1      45.809   7.109  12.642  0.00  0.00    +0.000 A 
ATOM      3  C   UNL     1      46.242   8.440  12.854  0.00  0.00    +0.000 A 
ATOM      4  C   UNL     1      45.608   9.505  12.236  0.00  0.00    +0.000 A 
ATOM      5  C   UNL     1      44.544   9.215  11.422  0.00  0.00    +0.000 A 
ATOM      6  N   UNL     1      44.076   7.965  11.224  0.00  0.00    +0.000 NA
ATOM      7  C   UNL     1      44.668   6.904  11.835  0.00  0.00    +0.000 A 
BRANCH   7   8
ATOM      8  N   UNL     1      44.050   5.686  11.601  0.00  0.00    +0.000 N 
ATOM      9  C   UNL     1      43.108   5.188  12.614  0.00  0.00    +0.000 C 
ATOM     10  C   UNL     1      43.368   3.714  12.938  0.00  0.00    +0.000 C 
ATOM     11  C   UNL     1      43.387   2.867  11.673  0.00  0.00    +0.000 C 
ATOM     12  C   UNL     1      44.438   3.403  10.721  0.00  0.00    +0.000 C 
ATOM     13  C   UNL     1      44.226   4.879  10.402  0.00  0.00    +0.000 C 
ENDBRANCH   7   8
ENDBRANCH   1   2
BRANCH   1  14
ATOM     14  N   UNL     1      47.909   6.320  13.750  0.00  0.00    +0.000 N 
ATOM     15  H   UNL     1      48.703   6.140  13.141  0.00  0.00    +0.000 HD
BRANCH  14  20
ATOM     16  C   UNL     1      48.402   4.535  16.776  0.00  0.00    +0.000 A 
ATOM     17  C   UNL     1      49.082   5.423  17.605  0.00  0.00    +0.000 A 
ATOM     18  C   UNL     1      49.366   6.695  17.124  0.00  0.00    +0.000 A 
ATOM     19  C   UNL     1      48.980   7.036  15.830  0.00  0.00    +0.000 A 
ATOM     20  C   UNL     1      48.288   6.115  15.054  0.00  0.00    +0.000 A 
ATOM     21  N   UNL     1      47.998   4.887  15.522  0.00  0.00    +0.000 NA
BRANCH  16  23
ATOM     22  F   UNL     1      48.585   2.158  16.400  0.00  0.00    +0.000 F 
ATOM     23  C   UNL     1      48.118   3.119  17.252  0.00  0.00    +0.000 C 
ATOM     24  F   UNL     1      46.786   2.857  17.391  0.00  0.00    +0.000 F 
ATOM     25  F   UNL     1      48.686   2.835  18.460  0.00  0.00    +0.000 F 
ENDBRANCH  16  23
ENDBRANCH  14  20
ENDBRANCH   1  14
TORSDOF 5
ENDMDL
MODEL 7
REMARK VINA RESULT:    -6.650      4.478      7.691
REMARK INTER + INTRA:          -9.393
REMARK INTER:                  -8.360
REMARK INTRA:                  -1.033
REMARK UNBOUND:                -0.799
REMARK  Name = 
REMARK  5 active torsions:
REMARK  status: ('A' for Active; 'I' for Inactive)
REMARK    1  A    between atoms: C_2  and  C_5
REMARK    2  A    between atoms: C_9  and  N_10
REMARK    3  A    between atoms: N_10  and  C_11
REMARK    4  A    between atoms: C_11  and  C_12
REMARK    5  A    between atoms: C_17  and  N_18
REMARK                            x       y       z     vdW  Elec       q    Type
REMARK                         _______ _______ _______ _____ _____    ______ ____
ROOT
ATOM      1  C   UNL     1      47.105   5.092  13.594  0.00  0.00    +0.000 C 
ENDROOT
BRANCH   1   2
ATOM      2  C   UNL     1      46.566   6.432  13.130  0.00  0.00    +0.000 A 
ATOM      3  C   UNL     1      47.206   7.623  13.549  0.00  0.00    +0.000 A 
ATOM      4  C   UNL     1      46.799   8.858  13.073  0.00  0.00    +0.000 A 
ATOM      5  C   UNL     1      45.750   8.876  12.191  0.00  0.00    +0.000 A 
ATOM      6  N   UNL     1      45.088   7.768  11.797  0.00  0.00    +0.000 NA
ATOM      7  C   UNL     1      45.454   6.545  12.265  0.00  0.00    +0.000 A 
BRANCH   7   8
ATOM      8  N   UNL     1      44.653   5.500  11.836  0.00  0.00    +0.000 N 
ATOM      9  C   UNL     1      43.498   5.133  12.669  0.00  0.00    +0.000 C 
ATOM     10  C   UNL     1      43.421   3.617  12.874  0.00  0.00    +0.000 C 
ATOM     11  C   UNL     1      43.455   2.879  11.543  0.00  0.00    +0.000 C 
ATOM     12  C   UNL     1      44.714   3.256  10.788  0.00  0.00    +0.000 C 
ATOM     13  C   UNL     1      44.839   4.764  10.594  0.00  0.00    +0.000 C 
ENDBRANCH   7   8
ENDBRANCH   1   2
BRANCH   1  14
ATOM     14  N   UNL     1      46.601   4.644  14.880  0.00  0.00    +0.000 N 
ATOM     15  H   UNL     1      45.740   5.066  15.219  0.00  0.00    +0.000 HD
BRANCH  14  20
ATOM     16  C   UNL     1      49.411   5.023  17.014  0.00  0.00    +0.000 A 
ATOM     17  C   UNL     1      49.171   4.152  18.073  0.00  0.00    +0.000 A 
ATOM     18  C   UNL     1      48.015   3.383  18.051  0.00  0.00    +0.000 A 
ATOM     19  C   UNL     1      47.127   3.517  16.987  0.00  0.00    +0.000 A 
ATOM     20  C   UNL     1      47.426   4.389  15.948  0.00  0.00    +0.000 A 
ATOM     21  N   UNL     1      48.553   5.125  15.958  0.00  0.00    +0.000 NA
BRANCH  16  23
ATOM     22  F   UNL     1      51.815   5.219  17.081  0.00  0.00    +0.000 F 
ATOM     23  C   UNL     1      50.641   5.916  17.028  0.00  0.00    +0.000 C 
ATOM     24  F   UNL     1      50.678   6.761  18.099  0.00  0.00    +0.000 F 
ATOM     25  F   UNL     1      50.743   6.707  15.920  0.00  0.00    +0.000 F 
ENDBRANCH  16  23
ENDBRANCH  14  20
ENDBRANCH   1  14
TORSDOF 5
ENDMDL
MODEL 8
REMARK VINA RESULT:    -6.514      4.296      6.670
REMARK INTER + INTRA:          -9.216
REMARK INTER:                  -8.039
REMARK INTRA:                  -1.177
REMARK UNBOUND:                -0.799
REMARK  Name = 
REMARK  5 active torsions:
REMARK  status: ('A' for Active; 'I' for Inactive)
REMARK    1  A    between atoms: C_2  and  C_5
REMARK    2  A    between atoms: C_9  and  N_10
REMARK    3  A    between atoms: N_10  and  C_11
REMARK    4  A    between atoms: C_11  and  C_12
REMARK    5  A    between atoms: C_17  and  N_18
REMARK                            x       y       z     vdW  Elec       q    Type
REMARK                         _______ _______ _______ _____ _____    ______ ____
ROOT
ATOM      1  C   UNL     1      46.811   4.143  13.282  0.00  0.00    +0.000 C 
ENDROOT
BRANCH   1   2
ATOM      2  C   UNL     1      45.491   4.301  12.551  0.00  0.00    +0.000 A 
ATOM      3  C   UNL     1      44.638   3.182  12.403  0.00  0.00    +0.000 A 
ATOM      4  C   UNL     1      43.387   3.308  11.824  0.00  0.00    +0.000 A 
ATOM      5  C   UNL     1      43.018   4.556  11.395  0.00  0.00    +0.000 A 
ATOM      6  N   UNL     1      43.815   5.641  11.482  0.00  0.00    +0.000 NA
ATOM      7  C   UNL     1      45.057   5.540  12.028  0.00  0.00    +0.000 A 
BRANCH   7   8
ATOM      8  N   UNL     1      45.798   6.710  11.996  0.00  0.00    +0.000 N 
ATOM      9  C   UNL     1      47.021   6.726  11.182  0.00  0.00    +0.000 C 
ATOM     10  C   UNL     1      48.195   7.337  11.955  0.00  0.00    +0.000 C 
ATOM     11  C   UNL     1      47.833   8.704  12.516  0.00  0.00    +0.000 C 
ATOM     12  C   UNL     1      46.610   8.580  13.403  0.00  0.00    +0.000 C 
ATOM     13  C   UNL     1      45.431   7.946  12.672  0.00  0.00    +0.000 C 
ENDBRANCH   7   8
ENDBRANCH   1   2
BRANCH   1  14
ATOM     14  N   UNL     1      46.698   3.665  14.648  0.00  0.00    +0.000 N 
ATOM     15  H   UNL     1      45.790   3.320  14.951  0.00  0.00    +0.000 HD
BRANCH  14  20
ATOM     16  C   UNL     1      48.716   6.064  16.310  0.00  0.00    +0.000 A 
ATOM     17  C   UNL     1      48.546   5.793  17.665  0.00  0.00    +0.000 A 
ATOM     18  C   UNL     1      47.727   4.732  18.032  0.00  0.00    +0.000 A 
ATOM     19  C   UNL     1      47.092   3.987  17.042  0.00  0.00    +0.000 A 
ATOM     20  C   UNL     1      47.312   4.292  15.704  0.00  0.00    +0.000 A 
ATOM     21  N   UNL     1      48.117   5.309  15.345  0.00  0.00    +0.000 NA
BRANCH  16  23
ATOM     22  F   UNL     1      50.585   7.529  16.738  0.00  0.00    +0.000 F 
ATOM     23  C   UNL     1      49.566   7.247  15.873  0.00  0.00    +0.000 C 
ATOM     24  F   UNL     1      48.856   8.406  15.765  0.00  0.00    +0.000 F 
ATOM     25  F   UNL     1      50.165   7.057  14.661  0.00  0.00    +0.000 F 
ENDBRANCH  16  23
ENDBRANCH  14  20
ENDBRANCH   1  14
TORSDOF 5
ENDMDL
MODEL 9
REMARK VINA RESULT:    -6.393      4.327      6.418
REMARK INTER + INTRA:          -9.060
REMARK INTER:                  -7.740
REMARK INTRA:                  -1.320
REMARK UNBOUND:                -0.799
REMARK  Name = 
REMARK  5 active torsions:
REMARK  status: ('A' for Active; 'I' for Inactive)
REMARK    1  A    between atoms: C_2  and  C_5
REMARK    2  A    between atoms: C_9  and  N_10
REMARK    3  A    between atoms: N_10  and  C_11
REMARK    4  A    between atoms: C_11  and  C_12
REMARK    5  A    between atoms: C_17  and  N_18
REMARK                            x       y       z     vdW  Elec       q    Type
REMARK                         _______ _______ _______ _____ _____    ______ ____
ROOT
ATOM      1  C   UNL     1      47.414   4.169  16.551  0.00  0.00    +0.000 C 
ENDROOT
BRANCH   1   2
ATOM      2  C   UNL     1      48.804   3.751  16.990  0.00  0.00    +0.000 A 
ATOM      3  C   UNL     1      49.184   2.391  16.900  0.00  0.00    +0.000 A 
ATOM      4  C   UNL     1      50.472   1.986  17.205  0.00  0.00    +0.000 A 
ATOM      5  C   UNL     1      51.356   2.956  17.602  0.00  0.00    +0.000 A 
ATOM      6  N   UNL     1      51.025   4.256  17.737  0.00  0.00    +0.000 NA
ATOM      7  C   UNL     1      49.761   4.677  17.465  0.00  0.00    +0.000 A 
BRANCH   7   8
ATOM      8  N   UNL     1      49.535   6.022  17.708  0.00  0.00    +0.000 N 
ATOM      9  C   UNL     1      48.988   6.400  19.018  0.00  0.00    +0.000 C 
ATOM     10  C   UNL     1      47.829   7.392  18.871  0.00  0.00    +0.000 C 
ATOM     11  C   UNL     1      48.234   8.590  18.024  0.00  0.00    +0.000 C 
ATOM     12  C   UNL     1      48.710   8.113  16.667  0.00  0.00    +0.000 C 
ATOM     13  C   UNL     1      49.844   7.099  16.778  0.00  0.00    +0.000 C 
ENDBRANCH   7   8
ENDBRANCH   1   2
BRANCH   1  14
ATOM     14  N   UNL     1      47.026   3.706  15.231  0.00  0.00    +0.000 N 
ATOM     15  H   UNL     1      47.481   2.869  14.875  0.00  0.00    +0.000 HD
BRANCH  14  20
ATOM     16  C   UNL     1      47.647   6.382  12.985  0.00  0.00    +0.000 A 
ATOM     17  C   UNL     1      46.604   6.322  12.065  0.00  0.00    +0.000 A 
ATOM     18  C   UNL     1      45.631   5.344  12.228  0.00  0.00    +0.000 A 
ATOM     19  C   UNL     1      45.737   4.447  13.288  0.00  0.00    +0.000 A 
ATOM     20  C   UNL     1      46.790   4.565  14.186  0.00  0.00    +0.000 A 
ATOM     21  N   UNL     1      47.726   5.521  14.040  0.00  0.00    +0.000 NA
BRANCH  16  23
ATOM     22  F   UNL     1      48.422   8.648  13.276  0.00  0.00    +0.000 F 
ATOM     23  C   UNL     1      48.756   7.408  12.810  0.00  0.00    +0.000 C 
ATOM     24  F   UNL     1      49.111   7.598  11.507  0.00  0.00    +0.000 F 
ATOM     25  F   UNL     1      49.904   7.074  13.469  0.00  0.00    +0.000 F 
ENDBRANCH  16  23
ENDBRANCH  14  20
ENDBRANCH   1  14
TORSDOF 5
ENDMDL
