MODEL 1
REMARK VINA RESULT:    -7.546      0.000      0.000
REMARK INTER + INTRA:         -10.596
REMARK INTER:                  -9.973
REMARK INTRA:                  -0.624
REMARK UNBOUND:                -0.624
REMARK  Name = 
REMARK  6 active torsions:
REMARK  status: ('A' for Active; 'I' for Inactive)
REMARK    1  A    between atoms: N_1  and  C_2
REMARK    2  A    between atoms: C_2  and  C_3
REMARK    3  A    between atoms: C_6  and  O_7
REMARK    4  A    between atoms: O_7  and  C_8
REMARK    5  A    between atoms: C_8  and  C_9
REMARK    6  A    between atoms: C_12  and  C_13
REMARK                            x       y       z     vdW  Elec       q    Type
REMARK                         _______ _______ _______ _____ _____    ______ ____
ROOT
ATOM      1  O   UNL     1      43.641   4.243   9.908  0.00  0.00    +0.000 OA
ENDROOT
BRANCH   1   5
ATOM      2  C   UNL     1      46.556   2.312   7.607  0.00  0.00    +0.000 A 
ATOM      3  C   UNL     1      45.764   1.553   8.479  0.00  0.00    +0.000 A 
ATOM      4  C   UNL     1      44.779   2.157   9.267  0.00  0.00    +0.000 A 
ATOM      5  C   UNL     1      44.567   3.532   9.194  0.00  0.00    +0.000 A 
ATOM      6  C   UNL     1      45.351   4.296   8.324  0.00  0.00    +0.000 A 
ATOM      7  C   UNL     1      46.337   3.693   7.536  0.00  0.00    +0.000 A 
BRANCH   2   8
ATOM      8  C   UNL     1      47.644   1.660   6.791  0.00  0.00    +0.000 C 
BRANCH   8   9
ATOM      9  N   UNL     1      48.634   2.624   6.327  0.00  0.00    +0.000 NA
ATOM     10  H   UNL     1      49.527   2.420   6.770  0.00  0.00    +0.000 HD
ATOM     11  H   UNL     1      48.362   3.553   6.645  0.00  0.00    +0.000 HD
ENDBRANCH   8   9
ENDBRANCH   2   8
ENDBRANCH   1   5
BRANCH   1  12
ATOM     12  C   UNL     1      43.604   4.012  11.319  0.00  0.00    +0.000 C 
BRANCH  12  13
ATOM     13  C   UNL     1      44.729   4.745  12.021  0.00  0.00    +0.000 A 
ATOM     14  C   UNL     1      45.089   6.037  11.647  0.00  0.00    +0.000 A 
ATOM     15  C   UNL     1      46.158   6.655  12.291  0.00  0.00    +0.000 A 
ATOM     16  C   UNL     1      46.855   5.969  13.289  0.00  0.00    +0.000 A 
ATOM     17  C   UNL     1      46.444   4.682  13.588  0.00  0.00    +0.000 A 
ATOM     18  N   UNL     1      45.408   4.058  12.976  0.00  0.00    +0.000 NA
BRANCH  16  19
ATOM     19  C   UNL     1      48.010   6.573  14.023  0.00  0.00    +0.000 C 
ATOM     20  F   UNL     1      48.339   5.906  15.166  0.00  0.00    +0.000 F 
ATOM     21  F   UNL     1      49.147   6.606  13.274  0.00  0.00    +0.000 F 
ATOM     22  F   UNL     1      47.775   7.860  14.401  0.00  0.00    +0.000 F 
ENDBRANCH  16  19
ENDBRANCH  12  13
ENDBRANCH   1  12
TORSDOF 6
ENDMDL
MODEL 2
REMARK VINA RESULT:    -7.454      3.796      6.619
REMARK INTER + INTRA:         -10.474
REMARK INTER:                  -9.896
REMARK INTRA:                  -0.578
REMARK UNBOUND:                -0.624
REMARK  Name = 
REMARK  6 active torsions:
REMARK  status: ('A' for Active; 'I' for Inactive)
REMARK    1  A    between atoms: N_1  and  C_2
REMARK    2  A    between atoms: C_2  and  C_3
REMARK    3  A    between atoms: C_6  and  O_7
REMARK    4  A    between atoms: O_7  and  C_8
REMARK    5  A    between atoms: C_8  and  C_9
REMARK    6  A    between atoms: C_12  and  C_13
REMARK                            x       y       z     vdW  Elec       q    Type
REMARK                         _______ _______ _______ _____ _____    ______ ____
ROOT
ATOM      1  O   UNL     1      44.170   4.362  11.697  0.00  0.00    +0.000 OA
ENDROOT
BRANCH   1   5
ATOM      2  C   UNL     1      47.428   6.307  13.464  0.00  0.00    +0.000 A 
ATOM      3  C   UNL     1      46.720   6.956  12.444  0.00  0.00    +0.000 A 
ATOM      4  C   UNL     1      45.625   6.342  11.825  0.00  0.00    +0.000 A 
ATOM      5  C   UNL     1      45.218   5.069  12.219  0.00  0.00    +0.000 A 
ATOM      6  C   UNL     1      45.918   4.417  13.238  0.00  0.00    +0.000 A 
ATOM      7  C   UNL     1      47.013   5.029  13.857  0.00  0.00    +0.000 A 
BRANCH   2   8
ATOM      8  C   UNL     1      48.632   6.957  14.098  0.00  0.00    +0.000 C 
BRANCH   8   9
ATOM      9  N   UNL     1      49.784   6.968  13.204  0.00  0.00    +0.000 NA
ATOM     10  H   UNL     1      50.394   6.188  13.441  0.00  0.00    +0.000 HD
ATOM     11  H   UNL     1      50.324   7.815  13.375  0.00  0.00    +0.000 HD
ENDBRANCH   8   9
ENDBRANCH   2   8
ENDBRANCH   1   5
BRANCH   1  12
ATOM     12  C   UNL     1      43.807   4.656  10.345  0.00  0.00    +0.000 C 
BRANCH  12  13
ATOM     13  C   UNL     1      44.667   3.880   9.369  0.00  0.00    +0.000 A 
ATOM     14  C   UNL     1      44.799   2.497   9.468  0.00  0.00    +0.000 A 
ATOM     15  C   UNL     1      45.634   1.831   8.576  0.00  0.00    +0.000 A 
ATOM     16  C   UNL     1      46.333   2.558   7.608  0.00  0.00    +0.000 A 
ATOM     17  C   UNL     1      46.160   3.930   7.589  0.00  0.00    +0.000 A 
ATOM     18  N   UNL     1      45.353   4.602   8.445  0.00  0.00    +0.000 NA
BRANCH  16  19
ATOM     19  C   UNL     1      47.245   1.906   6.616  0.00  0.00    +0.000 C 
ATOM     20  F   UNL     1      47.060   0.560   6.508  0.00  0.00    +0.000 F 
ATOM     21  F   UNL     1      47.091   2.403   5.358  0.00  0.00    +0.000 F 
ATOM     22  F   UNL     1      48.560   2.075   6.925  0.00  0.00    +0.000 F 
ENDBRANCH  16  19
ENDBRANCH  12  13
ENDBRANCH   1  12
TORSDOF 6
ENDMDL
MODEL 3
REMARK VINA RESULT:    -6.855      1.156      1.595
REMARK INTER + INTRA:          -9.683
REMARK INTER:                  -9.088
REMARK INTRA:                  -0.595
REMARK UNBOUND:                -0.624
REMARK  Name = 
REMARK  6 active torsions:
REMARK  status: ('A' for Active; 'I' for Inactive)
REMARK    1  A    between atoms: N_1  and  C_2
REMARK    2  A    between atoms: C_2  and  C_3
REMARK    3  A    between atoms: C_6  and  O_7
REMARK    4  A    between atoms: O_7  and  C_8
REMARK    5  A    between atoms: C_8  and  C_9
REMARK    6  A    between atoms: C_12  and  C_13
REMARK                            x       y       z     vdW  Elec       q    Type
REMARK                         _______ _______ _______ _____ _____    ______ ____
ROOT
ATOM      1  O   UNL     1      43.692   3.949   9.821  0.00  0.00    +0.000 OA
ENDROOT
BRANCH   1   5
ATOM      2  C   UNL     1      46.738   2.362   7.429  0.00  0.00    +0.000 A 
ATOM      3  C   UNL     1      46.034   1.509   8.290  0.00  0.00    +0.000 A 
ATOM      4  C   UNL     1      45.010   1.997   9.108  0.00  0.00    +0.000 A 
ATOM      5  C   UNL     1      44.669   3.348   9.076  0.00  0.00    +0.000 A 
ATOM      6  C   UNL     1      45.364   4.204   8.217  0.00  0.00    +0.000 A 
ATOM      7  C   UNL     1      46.389   3.718   7.400  0.00  0.00    +0.000 A 
BRANCH   2   8
ATOM      8  C   UNL     1      47.869   1.837   6.581  0.00  0.00    +0.000 C 
BRANCH   8   9
ATOM      9  N   UNL     1      48.207   2.746   5.493  0.00  0.00    +0.000 NA
ATOM     10  H   UNL     1      47.475   3.448   5.409  0.00  0.00    +0.000 HD
ATOM     11  H   UNL     1      48.206   2.225   4.617  0.00  0.00    +0.000 HD
ENDBRANCH   8   9
ENDBRANCH   2   8
ENDBRANCH   1   5
BRANCH   1  12
ATOM     12  C   UNL     1      44.008   5.227  10.382  0.00  0.00    +0.000 C 
BRANCH  12  13
ATOM     13  C   UNL     1      44.860   5.080  11.626  0.00  0.00    +0.000 A 
ATOM     14  C   UNL     1      46.041   5.803  11.778  0.00  0.00    +0.000 A 
ATOM     15  C   UNL     1      46.814   5.604  12.919  0.00  0.00    +0.000 A 
ATOM     16  C   UNL     1      46.402   4.678  13.881  0.00  0.00    +0.000 A 
ATOM     17  C   UNL     1      45.226   3.989  13.644  0.00  0.00    +0.000 A 
ATOM     18  N   UNL     1      44.456   4.164  12.544  0.00  0.00    +0.000 NA
BRANCH  16  19
ATOM     19  C   UNL     1      47.183   4.416  15.131  0.00  0.00    +0.000 C 
ATOM     20  F   UNL     1      47.866   3.236  15.109  0.00  0.00    +0.000 F 
ATOM     21  F   UNL     1      48.115   5.378  15.377  0.00  0.00    +0.000 F 
ATOM     22  F   UNL     1      46.395   4.367  16.239  0.00  0.00    +0.000 F 
ENDBRANCH  16  19
ENDBRANCH  12  13
ENDBRANCH   1  12
TORSDOF 6
ENDMDL
MODEL 4
REMARK VINA RESULT:    -6.045      4.635      7.979
REMARK INTER + INTRA:          -8.612
REMARK INTER:                  -8.267
REMARK INTRA:                  -0.345
REMARK UNBOUND:                -0.624
REMARK  Name = 
REMARK  6 active torsions:
REMARK  status: ('A' for Active; 'I' for Inactive)
REMARK    1  A    between atoms: N_1  and  C_2
REMARK    2  A    between atoms: C_2  and  C_3
REMARK    3  A    between atoms: C_6  and  O_7
REMARK    4  A    between atoms: O_7  and  C_8
REMARK    5  A    between atoms: C_8  and  C_9
REMARK    6  A    between atoms: C_12  and  C_13
REMARK                            x       y       z     vdW  Elec       q    Type
REMARK                         _______ _______ _______ _____ _____    ______ ____
ROOT
ATOM      1  O   UNL     1      47.238   3.765  14.732  0.00  0.00    +0.000 OA
ENDROOT
BRANCH   1   5
ATOM      2  C   UNL     1      48.672   4.454  18.604  0.00  0.00    +0.000 A 
ATOM      3  C   UNL     1      48.201   3.177  18.270  0.00  0.00    +0.000 A 
ATOM      4  C   UNL     1      47.712   2.902  16.988  0.00  0.00    +0.000 A 
ATOM      5  C   UNL     1      47.689   3.901  16.017  0.00  0.00    +0.000 A 
ATOM      6  C   UNL     1      48.160   5.176  16.342  0.00  0.00    +0.000 A 
ATOM      7  C   UNL     1      48.648   5.453  17.623  0.00  0.00    +0.000 A 
BRANCH   2   8
ATOM      8  C   UNL     1      49.159   4.753  20.000  0.00  0.00    +0.000 C 
BRANCH   8   9
ATOM      9  N   UNL     1      48.441   3.983  21.008  0.00  0.00    +0.000 NA
ATOM     10  H   UNL     1      48.987   3.973  21.867  0.00  0.00    +0.000 HD
ATOM     11  H   UNL     1      48.378   3.014  20.698  0.00  0.00    +0.000 HD
ENDBRANCH   8   9
ENDBRANCH   2   8
ENDBRANCH   1   5
BRANCH   1  12
ATOM     12  C   UNL     1      46.244   4.698  14.299  0.00  0.00    +0.000 C 
BRANCH  12  13
ATOM     13  C   UNL     1      45.882   4.472  12.845  0.00  0.00    +0.000 A 
ATOM     14  C   UNL     1      45.947   5.509  11.918  0.00  0.00    +0.000 A 
ATOM     15  C   UNL     1      45.563   5.266  10.602  0.00  0.00    +0.000 A 
ATOM     16  C   UNL     1      45.110   3.996  10.237  0.00  0.00    +0.000 A 
ATOM     17  C   UNL     1      45.059   3.026  11.223  0.00  0.00    +0.000 A 
ATOM     18  N   UNL     1      45.426   3.237  12.510  0.00  0.00    +0.000 NA
BRANCH  16  19
ATOM     19  C   UNL     1      44.684   3.664   8.841  0.00  0.00    +0.000 C 
ATOM     20  F   UNL     1      44.175   2.406   8.710  0.00  0.00    +0.000 F 
ATOM     21  F   UNL     1      43.719   4.504   8.375  0.00  0.00    +0.000 F 
ATOM     22  F   UNL     1      45.709   3.744   7.949  0.00  0.00    +0.000 F 
ENDBRANCH  16  19
ENDBRANCH  12  13
ENDBRANCH   1  12
TORSDOF 6
ENDMDL
MODEL 5
REMARK VINA RESULT:    -5.876      3.772      6.345
REMARK INTER + INTRA:          -8.390
REMARK INTER:                  -7.973
REMARK INTRA:                  -0.417
REMARK UNBOUND:                -0.624
REMARK  Name = 
REMARK  6 active torsions:
REMARK  status: ('A' for Active; 'I' for Inactive)
REMARK    1  A    between atoms: N_1  and  C_2
REMARK    2  A    between atoms: C_2  and  C_3
REMARK    3  A    between atoms: C_6  and  O_7
REMARK    4  A    between atoms: O_7  and  C_8
REMARK    5  A    between atoms: C_8  and  C_9
REMARK    6  A    between atoms: C_12  and  C_13
REMARK                            x       y       z     vdW  Elec       q    Type
REMARK                         _______ _______ _______ _____ _____    ______ ____
ROOT
ATOM      1  O   UNL     1      44.616   5.305  12.979  0.00  0.00    +0.000 OA
ENDROOT
BRANCH   1   5
ATOM      2  C   UNL     1      47.852   7.938  12.631  0.00  0.00    +0.000 A 
ATOM      3  C   UNL     1      48.102   6.567  12.782  0.00  0.00    +0.000 A 
ATOM      4  C   UNL     1      47.051   5.652  12.903  0.00  0.00    +0.000 A 
ATOM      5  C   UNL     1      45.730   6.093  12.871  0.00  0.00    +0.000 A 
ATOM      6  C   UNL     1      45.472   7.458  12.719  0.00  0.00    +0.000 A 
ATOM      7  C   UNL     1      46.522   8.374  12.599  0.00  0.00    +0.000 A 
BRANCH   2   8
ATOM      8  C   UNL     1      48.990   8.923  12.544  0.00  0.00    +0.000 C 
BRANCH   8   9
ATOM      9  N   UNL     1      50.060   8.449  11.675  0.00  0.00    +0.000 NA
ATOM     10  H   UNL     1      49.941   8.857  10.750  0.00  0.00    +0.000 HD
ATOM     11  H   UNL     1      49.965   7.441  11.557  0.00  0.00    +0.000 HD
ENDBRANCH   8   9
ENDBRANCH   2   8
ENDBRANCH   1   5
BRANCH   1  12
ATOM     12  C   UNL     1      43.743   5.271  11.846  0.00  0.00    +0.000 C 
BRANCH  12  13
ATOM     13  C   UNL     1      44.384   4.537  10.686  0.00  0.00    +0.000 A 
ATOM     14  C   UNL     1      44.240   3.160  10.538  0.00  0.00    +0.000 A 
ATOM     15  C   UNL     1      44.883   2.522   9.480  0.00  0.00    +0.000 A 
ATOM     16  C   UNL     1      45.667   3.267   8.596  0.00  0.00    +0.000 A 
ATOM     17  C   UNL     1      45.772   4.627   8.824  0.00  0.00    +0.000 A 
ATOM     18  N   UNL     1      45.157   5.273   9.845  0.00  0.00    +0.000 NA
BRANCH  16  19
ATOM     19  C   UNL     1      46.383   2.646   7.438  0.00  0.00    +0.000 C 
ATOM     20  F   UNL     1      45.875   3.009   6.226  0.00  0.00    +0.000 F 
ATOM     21  F   UNL     1      47.703   2.979   7.400  0.00  0.00    +0.000 F 
ATOM     22  F   UNL     1      46.342   1.286   7.465  0.00  0.00    +0.000 F 
ENDBRANCH  16  19
ENDBRANCH  12  13
ENDBRANCH   1  12
TORSDOF 6
ENDMDL
MODEL 6
REMARK VINA RESULT:    -5.693      3.051      4.326
REMARK INTER + INTRA:          -8.147
REMARK INTER:                  -7.686
REMARK INTRA:                  -0.461
REMARK UNBOUND:                -0.624
REMARK  Name = 
REMARK  6 active torsions:
REMARK  status: ('A' for Active; 'I' for Inactive)
REMARK    1  A    between atoms: N_1  and  C_2
REMARK    2  A    between atoms: C_2  and  C_3
REMARK    3  A    between atoms: C_6  and  O_7
REMARK    4  A    between atoms: O_7  and  C_8
REMARK    5  A    between atoms: C_8  and  C_9
REMARK    6  A    between atoms: C_12  and  C_13
REMARK                            x       y       z     vdW  Elec       q    Type
REMARK                         _______ _______ _______ _____ _____    ______ ____
ROOT
ATOM      1  O   UNL     1      45.763   5.851  13.196  0.00  0.00    +0.000 OA
ENDROOT
BRANCH   1   5
ATOM      2  C   UNL     1      45.127   4.184   9.409  0.00  0.00    +0.000 A 
ATOM      3  C   UNL     1      44.748   3.457  10.545  0.00  0.00    +0.000 A 
ATOM      4  C   UNL     1      44.943   3.975  11.830  0.00  0.00    +0.000 A 
ATOM      5  C   UNL     1      45.518   5.232  12.000  0.00  0.00    +0.000 A 
ATOM      6  C   UNL     1      45.896   5.965  10.871  0.00  0.00    +0.000 A 
ATOM      7  C   UNL     1      45.703   5.448   9.586  0.00  0.00    +0.000 A 
BRANCH   2   8
ATOM      8  C   UNL     1      44.952   3.602   8.029  0.00  0.00    +0.000 C 
BRANCH   8   9
ATOM      9  N   UNL     1      46.089   3.890   7.163  0.00  0.00    +0.000 NA
ATOM     10  H   UNL     1      46.744   4.485   7.665  0.00  0.00    +0.000 HD
ATOM     11  H   UNL     1      45.763   4.432   6.364  0.00  0.00    +0.000 HD
ENDBRANCH   8   9
ENDBRANCH   2   8
ENDBRANCH   1   5
BRANCH   1  12
ATOM     12  C   UNL     1      47.127   6.177  13.482  0.00  0.00    +0.000 C 
BRANCH  12  13
ATOM     13  C   UNL     1      47.621   5.429  14.703  0.00  0.00    +0.000 A 
ATOM     14  C   UNL     1      47.063   4.208  15.074  0.00  0.00    +0.000 A 
ATOM     15  C   UNL     1      47.520   3.578  16.229  0.00  0.00    +0.000 A 
ATOM     16  C   UNL     1      48.516   4.183  17.000  0.00  0.00    +0.000 A 
ATOM     17  C   UNL     1      49.003   5.405  16.571  0.00  0.00    +0.000 A 
ATOM     18  N   UNL     1      48.577   6.039  15.452  0.00  0.00    +0.000 NA
BRANCH  16  19
ATOM     19  C   UNL     1      49.054   3.561  18.250  0.00  0.00    +0.000 C 
ATOM     20  F   UNL     1      49.446   4.471  19.186  0.00  0.00    +0.000 F 
ATOM     21  F   UNL     1      48.143   2.761  18.870  0.00  0.00    +0.000 F 
ATOM     22  F   UNL     1      50.142   2.777  18.018  0.00  0.00    +0.000 F 
ENDBRANCH  16  19
ENDBRANCH  12  13
ENDBRANCH   1  12
TORSDOF 6
ENDMDL
MODEL 7
REMARK VINA RESULT:    -5.552      4.469      8.165
REMARK INTER + INTRA:          -7.960
REMARK INTER:                  -7.547
REMARK INTRA:                  -0.413
REMARK UNBOUND:                -0.624
REMARK  Name = 
REMARK  6 active torsions:
REMARK  status: ('A' for Active; 'I' for Inactive)
REMARK    1  A    between atoms: N_1  and  C_2
REMARK    2  A    between atoms: C_2  and  C_3
REMARK    3  A    between atoms: C_6  and  O_7
REMARK    4  A    between atoms: O_7  and  C_8
REMARK    5  A    between atoms: C_8  and  C_9
REMARK    6  A    between atoms: C_12  and  C_13
REMARK                            x       y       z     vdW  Elec       q    Type
REMARK                         _______ _______ _______ _____ _____    ______ ____
ROOT
ATOM      1  O   UNL     1      48.649   5.877  14.724  0.00  0.00    +0.000 OA
ENDROOT
BRANCH   1   5
ATOM      2  C   UNL     1      48.337   5.530  18.884  0.00  0.00    +0.000 A 
ATOM      3  C   UNL     1      48.800   6.733  18.333  0.00  0.00    +0.000 A 
ATOM      4  C   UNL     1      48.921   6.892  16.949  0.00  0.00    +0.000 A 
ATOM      5  C   UNL     1      48.577   5.851  16.090  0.00  0.00    +0.000 A 
ATOM      6  C   UNL     1      48.112   4.649  16.631  0.00  0.00    +0.000 A 
ATOM      7  C   UNL     1      47.991   4.488  18.015  0.00  0.00    +0.000 A 
BRANCH   2   8
ATOM      8  C   UNL     1      48.249   5.352  20.378  0.00  0.00    +0.000 C 
BRANCH   8   9
ATOM      9  N   UNL     1      48.389   3.956  20.773  0.00  0.00    +0.000 NA
ATOM     10  H   UNL     1      49.368   3.765  20.973  0.00  0.00    +0.000 HD
ATOM     11  H   UNL     1      48.138   3.364  19.982  0.00  0.00    +0.000 HD
ENDBRANCH   8   9
ENDBRANCH   2   8
ENDBRANCH   1   5
BRANCH   1  12
ATOM     12  C   UNL     1      47.785   6.800  14.054  0.00  0.00    +0.000 C 
BRANCH  12  13
ATOM     13  C   UNL     1      46.852   6.081  13.102  0.00  0.00    +0.000 A 
ATOM     14  C   UNL     1      46.746   6.469  11.768  0.00  0.00    +0.000 A 
ATOM     15  C   UNL     1      45.843   5.807  10.940  0.00  0.00    +0.000 A 
ATOM     16  C   UNL     1      45.054   4.777  11.460  0.00  0.00    +0.000 A 
ATOM     17  C   UNL     1      45.209   4.466  12.799  0.00  0.00    +0.000 A 
ATOM     18  N   UNL     1      46.079   5.094  13.626  0.00  0.00    +0.000 NA
BRANCH  16  19
ATOM     19  C   UNL     1      44.066   4.022  10.627  0.00  0.00    +0.000 C 
ATOM     20  F   UNL     1      43.583   4.739   9.572  0.00  0.00    +0.000 F 
ATOM     21  F   UNL     1      44.592   2.886  10.093  0.00  0.00    +0.000 F 
ATOM     22  F   UNL     1      42.974   3.629  11.338  0.00  0.00    +0.000 F 
ENDBRANCH  16  19
ENDBRANCH  12  13
ENDBRANCH   1  12
TORSDOF 6
ENDMDL
MODEL 8
REMARK VINA RESULT:    -5.354      5.044      7.783
REMARK INTER + INTRA:          -7.700
REMARK INTER:                  -7.238
REMARK INTRA:                  -0.462
REMARK UNBOUND:                -0.624
REMARK  Name = 
REMARK  6 active torsions:
REMARK  status: ('A' for Active; 'I' for Inactive)
REMARK    1  A    between atoms: N_1  and  C_2
REMARK    2  A    between atoms: C_2  and  C_3
REMARK    3  A    between atoms: C_6  and  O_7
REMARK    4  A    between atoms: O_7  and  C_8
REMARK    5  A    between atoms: C_8  and  C_9
REMARK    6  A    between atoms: C_12  and  C_13
REMARK                            x       y       z     vdW  Elec       q    Type
REMARK                         _______ _______ _______ _____ _____    ______ ____
ROOT
ATOM      1  O   UNL     1      48.647   4.665  16.808  0.00  0.00    +0.000 OA
ENDROOT
BRANCH   1   5
ATOM      2  C   UNL     1      51.952   2.268  17.733  0.00  0.00    +0.000 A 
ATOM      3  C   UNL     1      52.060   3.659  17.868  0.00  0.00    +0.000 A 
ATOM      4  C   UNL     1      50.981   4.498  17.569  0.00  0.00    +0.000 A 
ATOM      5  C   UNL     1      49.773   3.959  17.132  0.00  0.00    +0.000 A 
ATOM      6  C   UNL     1      49.656   2.573  16.998  0.00  0.00    +0.000 A 
ATOM      7  C   UNL     1      50.734   1.732  17.295  0.00  0.00    +0.000 A 
BRANCH   2   8
ATOM      8  C   UNL     1      53.131   1.373  18.017  0.00  0.00    +0.000 C 
BRANCH   8   9
ATOM      9  N   UNL     1      53.166   0.213  17.135  0.00  0.00    +0.000 NA
ATOM     10  H   UNL     1      53.007  -0.627  17.687  0.00  0.00    +0.000 HD
ATOM     11  H   UNL     1      54.103   0.126  16.744  0.00  0.00    +0.000 HD
ENDBRANCH   8   9
ENDBRANCH   2   8
ENDBRANCH   1   5
BRANCH   1  12
ATOM     12  C   UNL     1      47.582   3.930  16.198  0.00  0.00    +0.000 C 
BRANCH  12  13
ATOM     13  C   UNL     1      47.142   4.581  14.903  0.00  0.00    +0.000 A 
ATOM     14  C   UNL     1      47.778   5.722  14.420  0.00  0.00    +0.000 A 
ATOM     15  C   UNL     1      47.312   6.311  13.247  0.00  0.00    +0.000 A 
ATOM     16  C   UNL     1      46.213   5.758  12.585  0.00  0.00    +0.000 A 
ATOM     17  C   UNL     1      45.629   4.635  13.141  0.00  0.00    +0.000 A 
ATOM     18  N   UNL     1      46.062   4.042  14.280  0.00  0.00    +0.000 NA
BRANCH  16  19
ATOM     19  C   UNL     1      45.662   6.338  11.320  0.00  0.00    +0.000 C 
ATOM     20  F   UNL     1      45.571   7.699  11.338  0.00  0.00    +0.000 F 
ATOM     21  F   UNL     1      46.420   6.033  10.230  0.00  0.00    +0.000 F 
ATOM     22  F   UNL     1      44.408   5.887  11.040  0.00  0.00    +0.000 F 
ENDBRANCH  16  19
ENDBRANCH  12  13
ENDBRANCH   1  12
TORSDOF 6
ENDMDL
MODEL 9
REMARK VINA RESULT:    -5.346      4.641      6.389
REMARK INTER + INTRA:          -7.689
REMARK INTER:                  -7.299
REMARK INTRA:                  -0.390
REMARK UNBOUND:                -0.624
REMARK  Name = 
REMARK  6 active torsions:
REMARK  status: ('A' for Active; 'I' for Inactive)
REMARK    1  A    between atoms: N_1  and  C_2
REMARK    2  A    between atoms: C_2  and  C_3
REMARK    3  A    between atoms: C_6  and  O_7
REMARK    4  A    between atoms: O_7  and  C_8
REMARK    5  A    between atoms: C_8  and  C_9
REMARK    6  A    between atoms: C_12  and  C_13
REMARK                            x       y       z     vdW  Elec       q    Type
REMARK                         _______ _______ _______ _____ _____    ______ ____
ROOT
ATOM      1  O   UNL     1      47.499   4.982  15.097  0.00  0.00    +0.000 OA
ENDROOT
BRANCH   1   5
ATOM      2  C   UNL     1      45.101   4.486  11.702  0.00  0.00    +0.000 A 
ATOM      3  C   UNL     1      45.602   3.351  12.354  0.00  0.00    +0.000 A 
ATOM      4  C   UNL     1      46.408   3.470  13.491  0.00  0.00    +0.000 A 
ATOM      5  C   UNL     1      46.725   4.729  13.998  0.00  0.00    +0.000 A 
ATOM      6  C   UNL     1      46.227   5.865  13.356  0.00  0.00    +0.000 A 
ATOM      7  C   UNL     1      45.422   5.748  12.218  0.00  0.00    +0.000 A 
BRANCH   2   8
ATOM      8  C   UNL     1      44.268   4.351  10.453  0.00  0.00    +0.000 C 
BRANCH   8   9
ATOM      9  N   UNL     1      43.318   5.447  10.306  0.00  0.00    +0.000 NA
ATOM     10  H   UNL     1      42.802   5.324   9.438  0.00  0.00    +0.000 HD
ATOM     11  H   UNL     1      43.835   6.320  10.211  0.00  0.00    +0.000 HD
ENDBRANCH   8   9
ENDBRANCH   2   8
ENDBRANCH   1   5
BRANCH   1  12
ATOM     12  C   UNL     1      47.448   4.019  16.154  0.00  0.00    +0.000 C 
BRANCH  12  13
ATOM     13  C   UNL     1      48.839   3.665  16.638  0.00  0.00    +0.000 A 
ATOM     14  C   UNL     1      49.215   2.339  16.838  0.00  0.00    +0.000 A 
ATOM     15  C   UNL     1      50.490   2.063  17.325  0.00  0.00    +0.000 A 
ATOM     16  C   UNL     1      51.363   3.116  17.614  0.00  0.00    +0.000 A 
ATOM     17  C   UNL     1      50.905   4.404  17.403  0.00  0.00    +0.000 A 
ATOM     18  N   UNL     1      49.670   4.699  16.931  0.00  0.00    +0.000 NA
BRANCH  16  19
ATOM     19  C   UNL     1      52.747   2.892  18.137  0.00  0.00    +0.000 C 
ATOM     20  F   UNL     1      53.271   1.681  17.791  0.00  0.00    +0.000 F 
ATOM     21  F   UNL     1      53.634   3.820  17.684  0.00  0.00    +0.000 F 
ATOM     22  F   UNL     1      52.809   2.947  19.495  0.00  0.00    +0.000 F 
ENDBRANCH  16  19
ENDBRANCH  12  13
ENDBRANCH   1  12
TORSDOF 6
ENDMDL
