MODEL 1
REMARK VINA RESULT:    -8.521      0.000      0.000
REMARK INTER + INTRA:         -13.690
REMARK INTER:                 -12.506
REMARK INTRA:                  -1.184
REMARK UNBOUND:                -1.184
REMARK  Name = 
REMARK  11 active torsions:
REMARK  status: ('A' for Active; 'I' for Inactive)
REMARK    1  A    between atoms: C_1  and  C_2
REMARK    2  A    between atoms: C_5  and  O_6
REMARK    3  A    between atoms: O_6  and  C_7
REMARK    4  A    between atoms: C_9  and  N_10
REMARK    5  A    between atoms: N_10  and  C_11
REMARK    6  A    between atoms: C_11  and  C_12
REMARK    7  A    between atoms: C_12  and  C_13
REMARK    8  A    between atoms: C_12  and  C_14
REMARK    9  A    between atoms: C_12  and  C_15
REMARK   10  A    between atoms: C_18  and  C_19
REMARK   11  A    between atoms: C_25  and  C_26
REMARK                            x       y       z     vdW  Elec       q    Type
REMARK                         _______ _______ _______ _____ _____    ______ ____
ROOT
ATOM      1  C   UNL     1      48.280   6.124  14.672  0.00  0.00    +0.000 A 
ATOM      2  C   UNL     1      47.078   5.695  14.112  0.00  0.00    +0.000 A 
ATOM      3  C   UNL     1      46.673   6.108  12.840  0.00  0.00    +0.000 A 
ATOM      4  C   UNL     1      47.551   6.914  12.101  0.00  0.00    +0.000 A 
ATOM      5  C   UNL     1      48.788   7.328  12.631  0.00  0.00    +0.000 A 
ATOM      6  C   UNL     1      49.145   6.919  13.925  0.00  0.00    +0.000 A 
ENDROOT
BRANCH   5   7
ATOM      7  C   UNL     1      49.724   8.197  11.830  0.00  0.00    +0.000 C 
ATOM      8  F   UNL     1      49.113   9.258  11.235  0.00  0.00    +0.000 F 
ATOM      9  F   UNL     1      50.720   8.727  12.595  0.00  0.00    +0.000 F 
ATOM     10  F   UNL     1      50.347   7.516  10.829  0.00  0.00    +0.000 F 
ENDBRANCH   5   7
BRANCH   3  11
ATOM     11  N   UNL     1      45.493   5.662  12.227  0.00  0.00    +0.000 N 
ATOM     12  H   UNL     1      44.694   6.223  12.508  0.00  0.00    +0.000 HD
BRANCH  11  13
ATOM     13  C   UNL     1      45.243   4.217  12.129  0.00  0.00    +0.000 C 
BRANCH  13  14
ATOM     14  C   UNL     1      44.242   3.819  11.001  0.00  0.00    +0.000 C 
ATOM     15  C   UNL     1      43.362   2.652  11.513  0.00  0.00    +0.000 C 
ATOM     16  C   UNL     1      43.308   5.000  10.661  0.00  0.00    +0.000 C 
BRANCH  14  17
ATOM     17  C   UNL     1      45.050   3.438   9.731  0.00  0.00    +0.000 A 
ATOM     18  C   UNL     1      45.605   4.401   8.871  0.00  0.00    +0.000 A 
ATOM     19  C   UNL     1      46.329   4.030   7.730  0.00  0.00    +0.000 A 
ATOM     20  C   UNL     1      46.527   2.684   7.421  0.00  0.00    +0.000 A 
ATOM     21  C   UNL     1      45.973   1.707   8.249  0.00  0.00    +0.000 A 
ATOM     22  C   UNL     1      45.248   2.083   9.390  0.00  0.00    +0.000 A 
BRANCH  20  23
ATOM     23  C   UNL     1      47.307   2.351   6.199  0.00  0.00    +0.000 C 
ATOM     24  N   UNL     1      47.062   3.089   5.073  0.00  0.00    +0.000 N 
ATOM     25  O   UNL     1      48.111   1.430   6.180  0.00  0.00    +0.000 OA
ATOM     26  H   UNL     1      46.253   3.682   4.977  0.00  0.00    +0.000 HD
ATOM     27  H   UNL     1      47.517   2.771   4.225  0.00  0.00    +0.000 HD
ENDBRANCH  20  23
ENDBRANCH  14  17
ENDBRANCH  13  14
ENDBRANCH  11  13
ENDBRANCH   3  11
BRANCH   1  28
ATOM     28  O   UNL     1      48.685   5.791  15.944  0.00  0.00    +0.000 OA
BRANCH  28  33
ATOM     29  C   UNL     1      48.771   2.265  16.622  0.00  0.00    +0.000 C 
ATOM     30  C   UNL     1      48.800   3.627  17.289  0.00  0.00    +0.000 C 
ATOM     31  N   UNL     1      47.895   3.672  18.462  0.00  0.00    +0.000 NA
ATOM     32  C   UNL     1      47.491   5.040  18.084  0.00  0.00    +0.000 C 
ATOM     33  C   UNL     1      47.945   4.747  16.632  0.00  0.00    +0.000 C 
ATOM     34  H   UNL     1      48.363   3.599  19.365  0.00  0.00    +0.000 HD
ENDBRANCH  28  33
ENDBRANCH   1  28
TORSDOF 8
ENDMDL
MODEL 2
REMARK VINA RESULT:    -8.091      3.093      4.474
REMARK INTER + INTRA:         -13.060
REMARK INTER:                 -11.898
REMARK INTRA:                  -1.162
REMARK UNBOUND:                -1.184
REMARK  Name = 
REMARK  11 active torsions:
REMARK  status: ('A' for Active; 'I' for Inactive)
REMARK    1  A    between atoms: C_1  and  C_2
REMARK    2  A    between atoms: C_5  and  O_6
REMARK    3  A    between atoms: O_6  and  C_7
REMARK    4  A    between atoms: C_9  and  N_10
REMARK    5  A    between atoms: N_10  and  C_11
REMARK    6  A    between atoms: C_11  and  C_12
REMARK    7  A    between atoms: C_12  and  C_13
REMARK    8  A    between atoms: C_12  and  C_14
REMARK    9  A    between atoms: C_12  and  C_15
REMARK   10  A    between atoms: C_18  and  C_19
REMARK   11  A    between atoms: C_25  and  C_26
REMARK                            x       y       z     vdW  Elec       q    Type
REMARK                         _______ _______ _______ _____ _____    ______ ____
ROOT
ATOM      1  C   UNL     1      48.186   6.210  15.030  0.00  0.00    +0.000 A 
ATOM      2  C   UNL     1      47.378   5.702  14.013  0.00  0.00    +0.000 A 
ATOM      3  C   UNL     1      46.799   4.434  14.101  0.00  0.00    +0.000 A 
ATOM      4  C   UNL     1      46.992   3.705  15.283  0.00  0.00    +0.000 A 
ATOM      5  C   UNL     1      47.771   4.213  16.339  0.00  0.00    +0.000 A 
ATOM      6  C   UNL     1      48.363   5.477  16.200  0.00  0.00    +0.000 A 
ENDROOT
BRANCH   5   7
ATOM      7  C   UNL     1      47.975   3.420  17.605  0.00  0.00    +0.000 C 
ATOM      8  F   UNL     1      49.169   2.768  17.657  0.00  0.00    +0.000 F 
ATOM      9  F   UNL     1      47.935   4.205  18.719  0.00  0.00    +0.000 F 
ATOM     10  F   UNL     1      47.021   2.466  17.787  0.00  0.00    +0.000 F 
ENDBRANCH   5   7
BRANCH   3  11
ATOM     11  N   UNL     1      45.945   3.910  13.119  0.00  0.00    +0.000 N 
ATOM     12  H   UNL     1      46.385   3.145  12.615  0.00  0.00    +0.000 HD
BRANCH  11  13
ATOM     13  C   UNL     1      45.156   4.835  12.293  0.00  0.00    +0.000 C 
BRANCH  13  14
ATOM     14  C   UNL     1      44.180   4.130  11.303  0.00  0.00    +0.000 C 
ATOM     15  C   UNL     1      43.596   2.874  11.996  0.00  0.00    +0.000 C 
ATOM     16  C   UNL     1      43.001   5.061  10.946  0.00  0.00    +0.000 C 
BRANCH  14  17
ATOM     17  C   UNL     1      44.954   3.782  10.003  0.00  0.00    +0.000 A 
ATOM     18  C   UNL     1      45.531   4.765   9.181  0.00  0.00    +0.000 A 
ATOM     19  C   UNL     1      46.225   4.424   8.013  0.00  0.00    +0.000 A 
ATOM     20  C   UNL     1      46.369   3.088   7.636  0.00  0.00    +0.000 A 
ATOM     21  C   UNL     1      45.793   2.093   8.426  0.00  0.00    +0.000 A 
ATOM     22  C   UNL     1      45.099   2.439   9.595  0.00  0.00    +0.000 A 
BRANCH  20  23
ATOM     23  C   UNL     1      47.120   2.788   6.387  0.00  0.00    +0.000 C 
ATOM     24  N   UNL     1      48.460   2.534   6.501  0.00  0.00    +0.000 N 
ATOM     25  O   UNL     1      46.577   2.803   5.292  0.00  0.00    +0.000 OA
ATOM     26  H   UNL     1      48.984   2.747   7.335  0.00  0.00    +0.000 HD
ATOM     27  H   UNL     1      48.971   2.448   5.630  0.00  0.00    +0.000 HD
ENDBRANCH  20  23
ENDBRANCH  14  17
ENDBRANCH  13  14
ENDBRANCH  11  13
ENDBRANCH   3  11
BRANCH   1  28
ATOM     28  O   UNL     1      48.825   7.426  14.955  0.00  0.00    +0.000 OA
BRANCH  28  33
ATOM     29  C   UNL     1      49.396   7.758  11.425  0.00  0.00    +0.000 C 
ATOM     30  C   UNL     1      49.592   8.462  12.754  0.00  0.00    +0.000 C 
ATOM     31  N   UNL     1      50.958   9.025  12.870  0.00  0.00    +0.000 NA
ATOM     32  C   UNL     1      50.997   8.612  14.286  0.00  0.00    +0.000 C 
ATOM     33  C   UNL     1      49.897   7.562  13.984  0.00  0.00    +0.000 C 
ATOM     34  H   UNL     1      51.018  10.031  12.717  0.00  0.00    +0.000 HD
ENDBRANCH  28  33
ENDBRANCH   1  28
TORSDOF 8
ENDMDL
MODEL 3
REMARK VINA RESULT:    -8.062      3.216      4.294
REMARK INTER + INTRA:         -13.017
REMARK INTER:                 -11.910
REMARK INTRA:                  -1.107
REMARK UNBOUND:                -1.184
REMARK  Name = 
REMARK  11 active torsions:
REMARK  status: ('A' for Active; 'I' for Inactive)
REMARK    1  A    between atoms: C_1  and  C_2
REMARK    2  A    between atoms: C_5  and  O_6
REMARK    3  A    between atoms: O_6  and  C_7
REMARK    4  A    between atoms: C_9  and  N_10
REMARK    5  A    between atoms: N_10  and  C_11
REMARK    6  A    between atoms: C_11  and  C_12
REMARK    7  A    between atoms: C_12  and  C_13
REMARK    8  A    between atoms: C_12  and  C_14
REMARK    9  A    between atoms: C_12  and  C_15
REMARK   10  A    between atoms: C_18  and  C_19
REMARK   11  A    between atoms: C_25  and  C_26
REMARK                            x       y       z     vdW  Elec       q    Type
REMARK                         _______ _______ _______ _____ _____    ______ ____
ROOT
ATOM      1  C   UNL     1      48.251   6.231  14.839  0.00  0.00    +0.000 A 
ATOM      2  C   UNL     1      47.393   5.711  13.870  0.00  0.00    +0.000 A 
ATOM      3  C   UNL     1      46.743   4.488  14.047  0.00  0.00    +0.000 A 
ATOM      4  C   UNL     1      46.918   3.822  15.269  0.00  0.00    +0.000 A 
ATOM      5  C   UNL     1      47.749   4.346  16.277  0.00  0.00    +0.000 A 
ATOM      6  C   UNL     1      48.410   5.562  16.049  0.00  0.00    +0.000 A 
ENDROOT
BRANCH   5   7
ATOM      7  C   UNL     1      47.933   3.622  17.586  0.00  0.00    +0.000 C 
ATOM      8  F   UNL     1      47.881   4.437  18.676  0.00  0.00    +0.000 F 
ATOM      9  F   UNL     1      46.978   2.671  17.792  0.00  0.00    +0.000 F 
ATOM     10  F   UNL     1      49.126   2.972  17.664  0.00  0.00    +0.000 F 
ENDBRANCH   5   7
BRANCH   3  11
ATOM     11  N   UNL     1      45.840   3.957  13.115  0.00  0.00    +0.000 N 
ATOM     12  H   UNL     1      46.183   3.085  12.721  0.00  0.00    +0.000 HD
BRANCH  11  13
ATOM     13  C   UNL     1      45.183   4.863  12.162  0.00  0.00    +0.000 C 
BRANCH  13  14
ATOM     14  C   UNL     1      44.183   4.157  11.197  0.00  0.00    +0.000 C 
ATOM     15  C   UNL     1      43.509   2.986  11.955  0.00  0.00    +0.000 C 
ATOM     16  C   UNL     1      43.072   5.133  10.755  0.00  0.00    +0.000 C 
BRANCH  14  17
ATOM     17  C   UNL     1      44.958   3.679   9.939  0.00  0.00    +0.000 A 
ATOM     18  C   UNL     1      45.557   4.573   9.036  0.00  0.00    +0.000 A 
ATOM     19  C   UNL     1      46.251   4.116   7.908  0.00  0.00    +0.000 A 
ATOM     20  C   UNL     1      46.373   2.749   7.655  0.00  0.00    +0.000 A 
ATOM     21  C   UNL     1      45.775   1.839   8.527  0.00  0.00    +0.000 A 
ATOM     22  C   UNL     1      45.080   2.302   9.655  0.00  0.00    +0.000 A 
BRANCH  20  23
ATOM     23  C   UNL     1      47.124   2.323   6.444  0.00  0.00    +0.000 C 
ATOM     24  N   UNL     1      47.044   3.124   5.337  0.00  0.00    +0.000 N 
ATOM     25  O   UNL     1      47.760   1.279   6.415  0.00  0.00    +0.000 OA
ATOM     26  H   UNL     1      46.351   3.849   5.240  0.00  0.00    +0.000 HD
ATOM     27  H   UNL     1      47.466   2.757   4.491  0.00  0.00    +0.000 HD
ENDBRANCH  20  23
ENDBRANCH  14  17
ENDBRANCH  13  14
ENDBRANCH  11  13
ENDBRANCH   3  11
BRANCH   1  28
ATOM     28  O   UNL     1      48.958   7.400  14.678  0.00  0.00    +0.000 OA
BRANCH  28  33
ATOM     29  C   UNL     1      47.894   9.431  17.442  0.00  0.00    +0.000 C 
ATOM     30  C   UNL     1      48.788   9.427  16.216  0.00  0.00    +0.000 C 
ATOM     31  N   UNL     1      48.646  10.683  15.442  0.00  0.00    +0.000 NA
ATOM     32  C   UNL     1      48.714   9.905  14.190  0.00  0.00    +0.000 C 
ATOM     33  C   UNL     1      48.271   8.645  14.976  0.00  0.00    +0.000 C 
ATOM     34  H   UNL     1      49.405  11.352  15.571  0.00  0.00    +0.000 HD
ENDBRANCH  28  33
ENDBRANCH   1  28
TORSDOF 8
ENDMDL
MODEL 4
REMARK VINA RESULT:    -7.559      1.389      2.075
REMARK INTER + INTRA:         -12.279
REMARK INTER:                 -11.159
REMARK INTRA:                  -1.120
REMARK UNBOUND:                -1.184
REMARK  Name = 
REMARK  11 active torsions:
REMARK  status: ('A' for Active; 'I' for Inactive)
REMARK    1  A    between atoms: C_1  and  C_2
REMARK    2  A    between atoms: C_5  and  O_6
REMARK    3  A    between atoms: O_6  and  C_7
REMARK    4  A    between atoms: C_9  and  N_10
REMARK    5  A    between atoms: N_10  and  C_11
REMARK    6  A    between atoms: C_11  and  C_12
REMARK    7  A    between atoms: C_12  and  C_13
REMARK    8  A    between atoms: C_12  and  C_14
REMARK    9  A    between atoms: C_12  and  C_15
REMARK   10  A    between atoms: C_18  and  C_19
REMARK   11  A    between atoms: C_25  and  C_26
REMARK                            x       y       z     vdW  Elec       q    Type
REMARK                         _______ _______ _______ _____ _____    ______ ____
ROOT
ATOM      1  C   UNL     1      48.101   4.744  16.175  0.00  0.00    +0.000 A 
ATOM      2  C   UNL     1      47.116   4.168  15.373  0.00  0.00    +0.000 A 
ATOM      3  C   UNL     1      46.655   4.795  14.213  0.00  0.00    +0.000 A 
ATOM      4  C   UNL     1      47.267   5.998  13.830  0.00  0.00    +0.000 A 
ATOM      5  C   UNL     1      48.289   6.579  14.603  0.00  0.00    +0.000 A 
ATOM      6  C   UNL     1      48.703   5.934  15.778  0.00  0.00    +0.000 A 
ENDROOT
BRANCH   5   7
ATOM      7  C   UNL     1      48.939   7.873  14.184  0.00  0.00    +0.000 C 
ATOM      8  F   UNL     1      49.128   7.982  12.840  0.00  0.00    +0.000 F 
ATOM      9  F   UNL     1      48.202   8.962  14.542  0.00  0.00    +0.000 F 
ATOM     10  F   UNL     1      50.165   8.052  14.748  0.00  0.00    +0.000 F 
ENDBRANCH   5   7
BRANCH   3  11
ATOM     11  N   UNL     1      45.700   4.225  13.360  0.00  0.00    +0.000 N 
ATOM     12  H   UNL     1      45.898   3.244  13.182  0.00  0.00    +0.000 HD
BRANCH  11  13
ATOM     13  C   UNL     1      45.234   4.993  12.196  0.00  0.00    +0.000 C 
BRANCH  13  14
ATOM     14  C   UNL     1      44.241   4.218  11.277  0.00  0.00    +0.000 C 
ATOM     15  C   UNL     1      43.654   3.030  12.077  0.00  0.00    +0.000 C 
ATOM     16  C   UNL     1      43.068   5.129  10.855  0.00  0.00    +0.000 C 
BRANCH  14  17
ATOM     17  C   UNL     1      44.999   3.757  10.003  0.00  0.00    +0.000 A 
ATOM     18  C   UNL     1      45.598   4.662   9.110  0.00  0.00    +0.000 A 
ATOM     19  C   UNL     1      46.276   4.219   7.967  0.00  0.00    +0.000 A 
ATOM     20  C   UNL     1      46.382   2.856   7.687  0.00  0.00    +0.000 A 
ATOM     21  C   UNL     1      45.784   1.936   8.549  0.00  0.00    +0.000 A 
ATOM     22  C   UNL     1      45.106   2.384   9.692  0.00  0.00    +0.000 A 
BRANCH  20  23
ATOM     23  C   UNL     1      47.117   2.446   6.461  0.00  0.00    +0.000 C 
ATOM     24  N   UNL     1      46.931   3.197   5.332  0.00  0.00    +0.000 N 
ATOM     25  O   UNL     1      47.832   1.454   6.441  0.00  0.00    +0.000 OA
ATOM     26  H   UNL     1      46.180   3.862   5.240  0.00  0.00    +0.000 HD
ATOM     27  H   UNL     1      47.347   2.833   4.482  0.00  0.00    +0.000 HD
ENDBRANCH  20  23
ENDBRANCH  14  17
ENDBRANCH  13  14
ENDBRANCH  11  13
ENDBRANCH   3  11
BRANCH   1  28
ATOM     28  O   UNL     1      48.537   4.190  17.355  0.00  0.00    +0.000 OA
BRANCH  28  33
ATOM     29  C   UNL     1      47.178   7.211  18.742  0.00  0.00    +0.000 C 
ATOM     30  C   UNL     1      47.345   5.727  19.006  0.00  0.00    +0.000 C 
ATOM     31  N   UNL     1      47.788   5.473  20.397  0.00  0.00    +0.000 NA
ATOM     32  C   UNL     1      48.685   4.410  19.906  0.00  0.00    +0.000 C 
ATOM     33  C   UNL     1      48.662   5.071  18.504  0.00  0.00    +0.000 C 
ATOM     34  H   UNL     1      47.053   5.154  21.027  0.00  0.00    +0.000 HD
ENDBRANCH  28  33
ENDBRANCH   1  28
TORSDOF 8
ENDMDL
MODEL 5
REMARK VINA RESULT:    -7.362      3.064      5.160
REMARK INTER + INTRA:         -11.990
REMARK INTER:                 -11.115
REMARK INTRA:                  -0.874
REMARK UNBOUND:                -1.184
REMARK  Name = 
REMARK  11 active torsions:
REMARK  status: ('A' for Active; 'I' for Inactive)
REMARK    1  A    between atoms: C_1  and  C_2
REMARK    2  A    between atoms: C_5  and  O_6
REMARK    3  A    between atoms: O_6  and  C_7
REMARK    4  A    between atoms: C_9  and  N_10
REMARK    5  A    between atoms: N_10  and  C_11
REMARK    6  A    between atoms: C_11  and  C_12
REMARK    7  A    between atoms: C_12  and  C_13
REMARK    8  A    between atoms: C_12  and  C_14
REMARK    9  A    between atoms: C_12  and  C_15
REMARK   10  A    between atoms: C_18  and  C_19
REMARK   11  A    between atoms: C_25  and  C_26
REMARK                            x       y       z     vdW  Elec       q    Type
REMARK                         _______ _______ _______ _____ _____    ______ ____
ROOT
ATOM      1  C   UNL     1      45.439   9.015  12.319  0.00  0.00    +0.000 A 
ATOM      2  C   UNL     1      45.323   7.739  11.767  0.00  0.00    +0.000 A 
ATOM      3  C   UNL     1      46.239   6.727  12.061  0.00  0.00    +0.000 A 
ATOM      4  C   UNL     1      47.249   7.006  12.993  0.00  0.00    +0.000 A 
ATOM      5  C   UNL     1      47.363   8.273  13.593  0.00  0.00    +0.000 A 
ATOM      6  C   UNL     1      46.442   9.274  13.248  0.00  0.00    +0.000 A 
ENDROOT
BRANCH   5   7
ATOM      7  C   UNL     1      48.453   8.565  14.592  0.00  0.00    +0.000 C 
ATOM      8  F   UNL     1      48.278   9.734  15.269  0.00  0.00    +0.000 F 
ATOM      9  F   UNL     1      48.551   7.598  15.548  0.00  0.00    +0.000 F 
ATOM     10  F   UNL     1      49.684   8.647  14.018  0.00  0.00    +0.000 F 
ENDBRANCH   5   7
BRANCH   3  11
ATOM     11  N   UNL     1      46.128   5.422  11.559  0.00  0.00    +0.000 N 
ATOM     12  H   UNL     1      46.221   5.403  10.547  0.00  0.00    +0.000 HD
BRANCH  11  13
ATOM     13  C   UNL     1      45.098   4.531  12.112  0.00  0.00    +0.000 C 
BRANCH  13  14
ATOM     14  C   UNL     1      44.116   3.953  11.047  0.00  0.00    +0.000 C 
ATOM     15  C   UNL     1      43.349   2.765  11.678  0.00  0.00    +0.000 C 
ATOM     16  C   UNL     1      43.077   5.017  10.632  0.00  0.00    +0.000 C 
BRANCH  14  17
ATOM     17  C   UNL     1      44.931   3.534   9.795  0.00  0.00    +0.000 A 
ATOM     18  C   UNL     1      45.406   4.465   8.855  0.00  0.00    +0.000 A 
ATOM     19  C   UNL     1      46.139   4.060   7.732  0.00  0.00    +0.000 A 
ATOM     20  C   UNL     1      46.426   2.710   7.520  0.00  0.00    +0.000 A 
ATOM     21  C   UNL     1      45.953   1.763   8.429  0.00  0.00    +0.000 A 
ATOM     22  C   UNL     1      45.219   2.174   9.552  0.00  0.00    +0.000 A 
BRANCH  20  23
ATOM     23  C   UNL     1      47.211   2.341   6.312  0.00  0.00    +0.000 C 
ATOM     24  N   UNL     1      47.138   3.177   5.231  0.00  0.00    +0.000 N 
ATOM     25  O   UNL     1      47.868   1.311   6.262  0.00  0.00    +0.000 OA
ATOM     26  H   UNL     1      46.433   3.892   5.144  0.00  0.00    +0.000 HD
ATOM     27  H   UNL     1      47.585   2.848   4.383  0.00  0.00    +0.000 HD
ENDBRANCH  20  23
ENDBRANCH  14  17
ENDBRANCH  13  14
ENDBRANCH  11  13
ENDBRANCH   3  11
BRANCH   1  28
ATOM     28  O   UNL     1      44.595  10.055  12.008  0.00  0.00    +0.000 OA
BRANCH  28  33
ATOM     29  C   UNL     1      41.137  10.007  11.037  0.00  0.00    +0.000 C 
ATOM     30  C   UNL     1      42.442  10.752  10.831  0.00  0.00    +0.000 C 
ATOM     31  N   UNL     1      42.679  11.037   9.396  0.00  0.00    +0.000 NA
ATOM     32  C   UNL     1      44.109  10.730   9.582  0.00  0.00    +0.000 C 
ATOM     33  C   UNL     1      43.743   9.902  10.841  0.00  0.00    +0.000 C 
ATOM     34  H   UNL     1      42.481  11.997   9.114  0.00  0.00    +0.000 HD
ENDBRANCH  28  33
ENDBRANCH   1  28
TORSDOF 8
ENDMDL
MODEL 6
REMARK VINA RESULT:    -7.315      2.860      8.016
REMARK INTER + INTRA:         -11.920
REMARK INTER:                 -11.217
REMARK INTRA:                  -0.703
REMARK UNBOUND:                -1.184
REMARK  Name = 
REMARK  11 active torsions:
REMARK  status: ('A' for Active; 'I' for Inactive)
REMARK    1  A    between atoms: C_1  and  C_2
REMARK    2  A    between atoms: C_5  and  O_6
REMARK    3  A    between atoms: O_6  and  C_7
REMARK    4  A    between atoms: C_9  and  N_10
REMARK    5  A    between atoms: N_10  and  C_11
REMARK    6  A    between atoms: C_11  and  C_12
REMARK    7  A    between atoms: C_12  and  C_13
REMARK    8  A    between atoms: C_12  and  C_14
REMARK    9  A    between atoms: C_12  and  C_15
REMARK   10  A    between atoms: C_18  and  C_19
REMARK   11  A    between atoms: C_25  and  C_26
REMARK                            x       y       z     vdW  Elec       q    Type
REMARK                         _______ _______ _______ _____ _____    ______ ____
ROOT
ATOM      1  C   UNL     1      44.795   5.690  12.290  0.00  0.00    +0.000 A 
ATOM      2  C   UNL     1      45.146   4.904  13.387  0.00  0.00    +0.000 A 
ATOM      3  C   UNL     1      46.381   5.043  14.024  0.00  0.00    +0.000 A 
ATOM      4  C   UNL     1      47.241   6.056  13.575  0.00  0.00    +0.000 A 
ATOM      5  C   UNL     1      46.892   6.888  12.495  0.00  0.00    +0.000 A 
ATOM      6  C   UNL     1      45.656   6.696  11.860  0.00  0.00    +0.000 A 
ENDROOT
BRANCH   5   7
ATOM      7  C   UNL     1      47.824   7.973  12.018  0.00  0.00    +0.000 C 
ATOM      8  F   UNL     1      47.183   9.073  11.535  0.00  0.00    +0.000 F 
ATOM      9  F   UNL     1      48.640   8.428  13.010  0.00  0.00    +0.000 F 
ATOM     10  F   UNL     1      48.650   7.555  11.019  0.00  0.00    +0.000 F 
ENDBRANCH   5   7
BRANCH   3  11
ATOM     11  N   UNL     1      46.749   4.301  15.156  0.00  0.00    +0.000 N 
ATOM     12  H   UNL     1      45.937   4.033  15.705  0.00  0.00    +0.000 HD
BRANCH  11  13
ATOM     13  C   UNL     1      47.922   4.724  15.935  0.00  0.00    +0.000 C 
BRANCH  13  14
ATOM     14  C   UNL     1      48.037   4.044  17.333  0.00  0.00    +0.000 C 
ATOM     15  C   UNL     1      47.711   5.097  18.421  0.00  0.00    +0.000 C 
ATOM     16  C   UNL     1      47.012   2.896  17.466  0.00  0.00    +0.000 C 
BRANCH  14  17
ATOM     17  C   UNL     1      49.466   3.459  17.486  0.00  0.00    +0.000 A 
ATOM     18  C   UNL     1      49.810   2.174  17.031  0.00  0.00    +0.000 A 
ATOM     19  C   UNL     1      51.108   1.669  17.182  0.00  0.00    +0.000 A 
ATOM     20  C   UNL     1      52.104   2.438  17.785  0.00  0.00    +0.000 A 
ATOM     21  C   UNL     1      51.786   3.711  18.260  0.00  0.00    +0.000 A 
ATOM     22  C   UNL     1      50.485   4.212  18.107  0.00  0.00    +0.000 A 
BRANCH  20  23
ATOM     23  C   UNL     1      53.464   1.850  17.914  0.00  0.00    +0.000 C 
ATOM     24  N   UNL     1      53.584   0.685  18.621  0.00  0.00    +0.000 N 
ATOM     25  O   UNL     1      54.449   2.400  17.444  0.00  0.00    +0.000 OA
ATOM     26  H   UNL     1      52.853   0.334  19.219  0.00  0.00    +0.000 HD
ATOM     27  H   UNL     1      54.530   0.366  18.795  0.00  0.00    +0.000 HD
ENDBRANCH  20  23
ENDBRANCH  14  17
ENDBRANCH  13  14
ENDBRANCH  11  13
ENDBRANCH   3  11
BRANCH   1  28
ATOM     28  O   UNL     1      43.617   5.543  11.597  0.00  0.00    +0.000 OA
BRANCH  28  33
ATOM     29  C   UNL     1      44.887   4.005   8.610  0.00  0.00    +0.000 C 
ATOM     30  C   UNL     1      44.762   3.815  10.110  0.00  0.00    +0.000 C 
ATOM     31  N   UNL     1      44.325   2.439  10.445  0.00  0.00    +0.000 NA
ATOM     32  C   UNL     1      43.460   2.985  11.508  0.00  0.00    +0.000 C 
ATOM     33  C   UNL     1      43.465   4.352  10.778  0.00  0.00    +0.000 C 
ATOM     34  H   UNL     1      45.069   1.824  10.774  0.00  0.00    +0.000 HD
ENDBRANCH  28  33
ENDBRANCH   1  28
TORSDOF 8
ENDMDL
MODEL 7
REMARK VINA RESULT:    -7.106      4.206      8.488
REMARK INTER + INTRA:         -11.614
REMARK INTER:                 -10.600
REMARK INTRA:                  -1.014
REMARK UNBOUND:                -1.184
REMARK  Name = 
REMARK  11 active torsions:
REMARK  status: ('A' for Active; 'I' for Inactive)
REMARK    1  A    between atoms: C_1  and  C_2
REMARK    2  A    between atoms: C_5  and  O_6
REMARK    3  A    between atoms: O_6  and  C_7
REMARK    4  A    between atoms: C_9  and  N_10
REMARK    5  A    between atoms: N_10  and  C_11
REMARK    6  A    between atoms: C_11  and  C_12
REMARK    7  A    between atoms: C_12  and  C_13
REMARK    8  A    between atoms: C_12  and  C_14
REMARK    9  A    between atoms: C_12  and  C_15
REMARK   10  A    between atoms: C_18  and  C_19
REMARK   11  A    between atoms: C_25  and  C_26
REMARK                            x       y       z     vdW  Elec       q    Type
REMARK                         _______ _______ _______ _____ _____    ______ ____
ROOT
ATOM      1  C   UNL     1      46.458   6.327  12.098  0.00  0.00    +0.000 A 
ATOM      2  C   UNL     1      46.887   5.795  13.313  0.00  0.00    +0.000 A 
ATOM      3  C   UNL     1      46.451   4.547  13.763  0.00  0.00    +0.000 A 
ATOM      4  C   UNL     1      45.618   3.799  12.918  0.00  0.00    +0.000 A 
ATOM      5  C   UNL     1      45.202   4.298  11.669  0.00  0.00    +0.000 A 
ATOM      6  C   UNL     1      45.636   5.570  11.267  0.00  0.00    +0.000 A 
ENDROOT
BRANCH   5   7
ATOM      7  C   UNL     1      44.304   3.489  10.769  0.00  0.00    +0.000 C 
ATOM      8  F   UNL     1      43.741   4.213   9.762  0.00  0.00    +0.000 F 
ATOM      9  F   UNL     1      44.968   2.466  10.159  0.00  0.00    +0.000 F 
ATOM     10  F   UNL     1      43.269   2.913  11.438  0.00  0.00    +0.000 F 
ENDBRANCH   5   7
BRANCH   3  11
ATOM     11  N   UNL     1      46.896   3.962  14.957  0.00  0.00    +0.000 N 
ATOM     12  H   UNL     1      46.141   3.482  15.440  0.00  0.00    +0.000 HD
BRANCH  11  13
ATOM     13  C   UNL     1      47.815   4.716  15.821  0.00  0.00    +0.000 C 
BRANCH  13  14
ATOM     14  C   UNL     1      47.957   4.136  17.261  0.00  0.00    +0.000 C 
ATOM     15  C   UNL     1      47.615   5.253  18.278  0.00  0.00    +0.000 C 
ATOM     16  C   UNL     1      46.960   2.977  17.481  0.00  0.00    +0.000 C 
BRANCH  14  17
ATOM     17  C   UNL     1      49.401   3.595  17.440  0.00  0.00    +0.000 A 
ATOM     18  C   UNL     1      49.757   2.273  17.123  0.00  0.00    +0.000 A 
ATOM     19  C   UNL     1      51.068   1.809  17.294  0.00  0.00    +0.000 A 
ATOM     20  C   UNL     1      52.064   2.658  17.780  0.00  0.00    +0.000 A 
ATOM     21  C   UNL     1      51.734   3.970  18.118  0.00  0.00    +0.000 A 
ATOM     22  C   UNL     1      50.420   4.430  17.946  0.00  0.00    +0.000 A 
BRANCH  20  23
ATOM     23  C   UNL     1      53.438   2.110  17.938  0.00  0.00    +0.000 C 
ATOM     24  N   UNL     1      53.568   0.902  18.568  0.00  0.00    +0.000 N 
ATOM     25  O   UNL     1      54.423   2.726  17.557  0.00  0.00    +0.000 OA
ATOM     26  H   UNL     1      52.823   0.485  19.102  0.00  0.00    +0.000 HD
ATOM     27  H   UNL     1      54.516   0.605  18.768  0.00  0.00    +0.000 HD
ENDBRANCH  20  23
ENDBRANCH  14  17
ENDBRANCH  13  14
ENDBRANCH  11  13
ENDBRANCH   3  11
BRANCH   1  28
ATOM     28  O   UNL     1      46.814   7.577  11.649  0.00  0.00    +0.000 OA
BRANCH  28  33
ATOM     29  C   UNL     1      48.153  10.706  12.798  0.00  0.00    +0.000 C 
ATOM     30  C   UNL     1      47.008  10.094  12.011  0.00  0.00    +0.000 C 
ATOM     31  N   UNL     1      45.707  10.685  12.405  0.00  0.00    +0.000 NA
ATOM     32  C   UNL     1      45.086   9.350  12.313  0.00  0.00    +0.000 C 
ATOM     33  C   UNL     1      46.487   8.712  12.495  0.00  0.00    +0.000 C 
ATOM     34  H   UNL     1      45.337  11.374  11.751  0.00  0.00    +0.000 HD
ENDBRANCH  28  33
ENDBRANCH   1  28
TORSDOF 8
ENDMDL
MODEL 8
REMARK VINA RESULT:    -7.006      4.081      5.887
REMARK INTER + INTRA:         -11.466
REMARK INTER:                  -9.860
REMARK INTRA:                  -1.606
REMARK UNBOUND:                -1.184
REMARK  Name = 
REMARK  11 active torsions:
REMARK  status: ('A' for Active; 'I' for Inactive)
REMARK    1  A    between atoms: C_1  and  C_2
REMARK    2  A    between atoms: C_5  and  O_6
REMARK    3  A    between atoms: O_6  and  C_7
REMARK    4  A    between atoms: C_9  and  N_10
REMARK    5  A    between atoms: N_10  and  C_11
REMARK    6  A    between atoms: C_11  and  C_12
REMARK    7  A    between atoms: C_12  and  C_13
REMARK    8  A    between atoms: C_12  and  C_14
REMARK    9  A    between atoms: C_12  and  C_15
REMARK   10  A    between atoms: C_18  and  C_19
REMARK   11  A    between atoms: C_25  and  C_26
REMARK                            x       y       z     vdW  Elec       q    Type
REMARK                         _______ _______ _______ _____ _____    ______ ____
ROOT
ATOM      1  C   UNL     1      51.141   5.330  17.356  0.00  0.00    +0.000 A 
ATOM      2  C   UNL     1      51.030   6.344  16.405  0.00  0.00    +0.000 A 
ATOM      3  C   UNL     1      49.804   6.673  15.822  0.00  0.00    +0.000 A 
ATOM      4  C   UNL     1      48.661   5.999  16.275  0.00  0.00    +0.000 A 
ATOM      5  C   UNL     1      48.742   4.998  17.261  0.00  0.00    +0.000 A 
ATOM      6  C   UNL     1      49.996   4.675  17.800  0.00  0.00    +0.000 A 
ENDROOT
BRANCH   5   7
ATOM      7  C   UNL     1      47.507   4.278  17.740  0.00  0.00    +0.000 C 
ATOM      8  F   UNL     1      46.725   3.801  16.732  0.00  0.00    +0.000 F 
ATOM      9  F   UNL     1      47.806   3.198  18.516  0.00  0.00    +0.000 F 
ATOM     10  F   UNL     1      46.698   5.068  18.498  0.00  0.00    +0.000 F 
ENDBRANCH   5   7
BRANCH   3  11
ATOM     11  N   UNL     1      49.649   7.715  14.897  0.00  0.00    +0.000 N 
ATOM     12  H   UNL     1      50.176   8.539  15.174  0.00  0.00    +0.000 HD
BRANCH  11  13
ATOM     13  C   UNL     1      48.315   7.981  14.340  0.00  0.00    +0.000 C 
BRANCH  13  14
ATOM     14  C   UNL     1      48.218   7.785  12.796  0.00  0.00    +0.000 C 
ATOM     15  C   UNL     1      47.852   9.144  12.150  0.00  0.00    +0.000 C 
ATOM     16  C   UNL     1      49.579   7.340  12.218  0.00  0.00    +0.000 C 
BRANCH  14  17
ATOM     17  C   UNL     1      47.164   6.686  12.499  0.00  0.00    +0.000 A 
ATOM     18  C   UNL     1      46.314   6.736  11.380  0.00  0.00    +0.000 A 
ATOM     19  C   UNL     1      45.370   5.731  11.135  0.00  0.00    +0.000 A 
ATOM     20  C   UNL     1      45.254   4.639  11.997  0.00  0.00    +0.000 A 
ATOM     21  C   UNL     1      46.074   4.572  13.124  0.00  0.00    +0.000 A 
ATOM     22  C   UNL     1      47.017   5.582  13.366  0.00  0.00    +0.000 A 
BRANCH  20  23
ATOM     23  C   UNL     1      44.236   3.601  11.683  0.00  0.00    +0.000 C 
ATOM     24  N   UNL     1      44.163   2.516  12.514  0.00  0.00    +0.000 N 
ATOM     25  O   UNL     1      43.515   3.685  10.700  0.00  0.00    +0.000 OA
ATOM     26  H   UNL     1      44.886   2.292  13.179  0.00  0.00    +0.000 HD
ATOM     27  H   UNL     1      43.547   1.769  12.216  0.00  0.00    +0.000 HD
ENDBRANCH  20  23
ENDBRANCH  14  17
ENDBRANCH  13  14
ENDBRANCH  11  13
ENDBRANCH   3  11
BRANCH   1  28
ATOM     28  O   UNL     1      52.337   4.935  17.907  0.00  0.00    +0.000 OA
BRANCH  28  33
ATOM     29  C   UNL     1      51.877   1.385  17.607  0.00  0.00    +0.000 C 
ATOM     30  C   UNL     1      52.891   2.446  17.993  0.00  0.00    +0.000 C 
ATOM     31  N   UNL     1      53.591   2.091  19.250  0.00  0.00    +0.000 NA
ATOM     32  C   UNL     1      53.530   3.504  19.670  0.00  0.00    +0.000 C 
ATOM     33  C   UNL     1      52.340   3.716  18.699  0.00  0.00    +0.000 C 
ATOM     34  H   UNL     1      54.534   1.724  19.124  0.00  0.00    +0.000 HD
ENDBRANCH  28  33
ENDBRANCH   1  28
TORSDOF 8
ENDMDL
MODEL 9
REMARK VINA RESULT:    -6.993      4.123      5.806
REMARK INTER + INTRA:         -11.447
REMARK INTER:                  -9.712
REMARK INTRA:                  -1.736
REMARK UNBOUND:                -1.184
REMARK  Name = 
REMARK  11 active torsions:
REMARK  status: ('A' for Active; 'I' for Inactive)
REMARK    1  A    between atoms: C_1  and  C_2
REMARK    2  A    between atoms: C_5  and  O_6
REMARK    3  A    between atoms: O_6  and  C_7
REMARK    4  A    between atoms: C_9  and  N_10
REMARK    5  A    between atoms: N_10  and  C_11
REMARK    6  A    between atoms: C_11  and  C_12
REMARK    7  A    between atoms: C_12  and  C_13
REMARK    8  A    between atoms: C_12  and  C_14
REMARK    9  A    between atoms: C_12  and  C_15
REMARK   10  A    between atoms: C_18  and  C_19
REMARK   11  A    between atoms: C_25  and  C_26
REMARK                            x       y       z     vdW  Elec       q    Type
REMARK                         _______ _______ _______ _____ _____    ______ ____
ROOT
ATOM      1  C   UNL     1      50.000   5.688  17.560  0.00  0.00    +0.000 A 
ATOM      2  C   UNL     1      49.988   6.421  16.374  0.00  0.00    +0.000 A 
ATOM      3  C   UNL     1      49.228   7.585  16.239  0.00  0.00    +0.000 A 
ATOM      4  C   UNL     1      48.526   8.045  17.363  0.00  0.00    +0.000 A 
ATOM      5  C   UNL     1      48.554   7.343  18.582  0.00  0.00    +0.000 A 
ATOM      6  C   UNL     1      49.304   6.160  18.669  0.00  0.00    +0.000 A 
ENDROOT
BRANCH   5   7
ATOM      7  C   UNL     1      47.795   7.843  19.785  0.00  0.00    +0.000 C 
ATOM      8  F   UNL     1      46.832   8.758  19.483  0.00  0.00    +0.000 F 
ATOM      9  F   UNL     1      47.154   6.839  20.448  0.00  0.00    +0.000 F 
ATOM     10  F   UNL     1      48.601   8.441  20.704  0.00  0.00    +0.000 F 
ENDBRANCH   5   7
BRANCH   3  11
ATOM     11  N   UNL     1      49.226   8.371  15.078  0.00  0.00    +0.000 N 
ATOM     12  H   UNL     1      49.735   9.240  15.217  0.00  0.00    +0.000 HD
BRANCH  11  13
ATOM     13  C   UNL     1      47.988   8.486  14.296  0.00  0.00    +0.000 C 
BRANCH  13  14
ATOM     14  C   UNL     1      48.114   7.986  12.824  0.00  0.00    +0.000 C 
ATOM     15  C   UNL     1      47.756   9.156  11.875  0.00  0.00    +0.000 C 
ATOM     16  C   UNL     1      49.565   7.559  12.517  0.00  0.00    +0.000 C 
BRANCH  14  17
ATOM     17  C   UNL     1      47.180   6.761  12.632  0.00  0.00    +0.000 A 
ATOM     18  C   UNL     1      46.360   6.605  11.501  0.00  0.00    +0.000 A 
ATOM     19  C   UNL     1      45.526   5.490  11.352  0.00  0.00    +0.000 A 
ATOM     20  C   UNL     1      45.493   4.493  12.327  0.00  0.00    +0.000 A 
ATOM     21  C   UNL     1      46.284   4.630  13.468  0.00  0.00    +0.000 A 
ATOM     22  C   UNL     1      47.118   5.749  13.613  0.00  0.00    +0.000 A 
BRANCH  20  23
ATOM     23  C   UNL     1      44.590   3.330  12.112  0.00  0.00    +0.000 C 
ATOM     24  N   UNL     1      44.692   2.663  10.922  0.00  0.00    +0.000 N 
ATOM     25  O   UNL     1      43.758   3.000  12.944  0.00  0.00    +0.000 OA
ATOM     26  H   UNL     1      45.183   3.041  10.127  0.00  0.00    +0.000 HD
ATOM     27  H   UNL     1      43.991   1.951  10.749  0.00  0.00    +0.000 HD
ENDBRANCH  20  23
ENDBRANCH  14  17
ENDBRANCH  13  14
ENDBRANCH  11  13
ENDBRANCH   3  11
BRANCH   1  28
ATOM     28  O   UNL     1      50.685   4.505  17.714  0.00  0.00    +0.000 OA
BRANCH  28  33
ATOM     29  C   UNL     1      47.369   3.279  17.075  0.00  0.00    +0.000 C 
ATOM     30  C   UNL     1      48.807   3.187  16.598  0.00  0.00    +0.000 C 
ATOM     31  N   UNL     1      49.205   1.780  16.355  0.00  0.00    +0.000 NA
ATOM     32  C   UNL     1      50.529   2.066  16.939  0.00  0.00    +0.000 C 
ATOM     33  C   UNL     1      49.912   3.275  17.688  0.00  0.00    +0.000 C 
ATOM     34  H   UNL     1      49.221   1.506  15.373  0.00  0.00    +0.000 HD
ENDBRANCH  28  33
ENDBRANCH   1  28
TORSDOF 8
ENDMDL
