MODEL 1
REMARK VINA RESULT:    -8.236      0.000      0.000
REMARK INTER + INTRA:         -10.666
REMARK INTER:                 -10.162
REMARK INTRA:                  -0.505
REMARK UNBOUND:                -0.505
REMARK  Name = 
REMARK  7 active torsions:
REMARK  status: ('A' for Active; 'I' for Inactive)
REMARK    1  A    between atoms: C_1  and  C_2
REMARK    2  A    between atoms: C_2  and  C_3
REMARK    3  A    between atoms: C_2  and  C_4
REMARK    4  A    between atoms: C_2  and  C_5
REMARK    5  A    between atoms: N_7  and  C_8
REMARK    6  A    between atoms: C_8  and  C_9
REMARK    7  A    between atoms: C_12  and  C_13
REMARK                            x       y       z     vdW  Elec       q    Type
REMARK                         _______ _______ _______ _____ _____    ______ ____
ROOT
ATOM      1  C   UNL     1      46.207   7.226  12.173  0.00  0.00    +0.000 A 
ATOM      2  C   UNL     1      45.227   6.979  11.224  0.00  0.00    +0.000 A 
ATOM      3  N   UNL     1      44.912   5.643  11.235  0.00  0.00    +0.000 N 
ATOM      4  C   UNL     1      45.631   5.000  12.219  0.00  0.00    +0.000 A 
ATOM      5  C   UNL     1      45.619   3.656  12.631  0.00  0.00    +0.000 A 
ATOM      6  C   UNL     1      46.480   3.267  13.659  0.00  0.00    +0.000 A 
ATOM      7  C   UNL     1      47.330   4.189  14.255  0.00  0.00    +0.000 A 
ATOM      8  C   UNL     1      47.329   5.526  13.844  0.00  0.00    +0.000 A 
ATOM      9  C   UNL     1      46.461   5.957  12.812  0.00  0.00    +0.000 A 
ENDROOT
BRANCH   1  11
ATOM     10  C   UNL     1      47.121   8.784  13.970  0.00  0.00    +0.000 C 
ATOM     11  C   UNL     1      46.876   8.576  12.455  0.00  0.00    +0.000 C 
ATOM     12  C   UNL     1      45.976   9.735  11.978  0.00  0.00    +0.000 C 
ATOM     13  C   UNL     1      48.248   8.676  11.759  0.00  0.00    +0.000 C 
ENDBRANCH   1  11
BRANCH   3  14
ATOM     14  C   UNL     1      44.003   5.005  10.287  0.00  0.00    +0.000 C 
BRANCH  14  15
ATOM     15  C   UNL     1      44.761   4.144   9.310  0.00  0.00    +0.000 A 
ATOM     16  C   UNL     1      44.672   2.753   9.375  0.00  0.00    +0.000 A 
ATOM     17  C   UNL     1      45.492   1.980   8.552  0.00  0.00    +0.000 A 
ATOM     18  C   UNL     1      46.382   2.614   7.689  0.00  0.00    +0.000 A 
ATOM     19  C   UNL     1      46.367   4.001   7.644  0.00  0.00    +0.000 A 
ATOM     20  N   UNL     1      45.573   4.775   8.423  0.00  0.00    +0.000 NA
BRANCH  18  21
ATOM     21  C   UNL     1      47.372   1.856   6.889  0.00  0.00    +0.000 C 
ATOM     22  N   UNL     1      47.222   0.608   6.573  0.00  0.00    +0.000 NA
ATOM     23  N   UNL     1      48.522   2.456   6.469  0.00  0.00    +0.000 N 
ATOM     24  H   UNL     1      46.326   0.238   6.896  0.00  0.00    +0.000 HD
ATOM     25  H   UNL     1      48.955   3.100   7.124  0.00  0.00    +0.000 HD
ATOM     26  H   UNL     1      49.185   1.764   6.130  0.00  0.00    +0.000 HD
ENDBRANCH  18  21
ENDBRANCH  14  15
ENDBRANCH   3  14
TORSDOF 4
ENDMDL
MODEL 2
REMARK VINA RESULT:    -7.442      1.037      3.023
REMARK INTER + INTRA:          -9.687
REMARK INTER:                  -9.449
REMARK INTRA:                  -0.238
REMARK UNBOUND:                -0.505
REMARK  Name = 
REMARK  7 active torsions:
REMARK  status: ('A' for Active; 'I' for Inactive)
REMARK    1  A    between atoms: C_1  and  C_2
REMARK    2  A    between atoms: C_2  and  C_3
REMARK    3  A    between atoms: C_2  and  C_4
REMARK    4  A    between atoms: C_2  and  C_5
REMARK    5  A    between atoms: N_7  and  C_8
REMARK    6  A    between atoms: C_8  and  C_9
REMARK    7  A    between atoms: C_12  and  C_13
REMARK                            x       y       z     vdW  Elec       q    Type
REMARK                         _______ _______ _______ _____ _____    ______ ____
ROOT
ATOM      1  C   UNL     1      46.436   6.651  12.539  0.00  0.00    +0.000 A 
ATOM      2  C   UNL     1      45.904   5.528  11.924  0.00  0.00    +0.000 A 
ATOM      3  N   UNL     1      44.784   5.886  11.218  0.00  0.00    +0.000 N 
ATOM      4  C   UNL     1      44.588   7.248  11.306  0.00  0.00    +0.000 A 
ATOM      5  C   UNL     1      43.608   8.071  10.725  0.00  0.00    +0.000 A 
ATOM      6  C   UNL     1      43.637   9.438  11.005  0.00  0.00    +0.000 A 
ATOM      7  C   UNL     1      44.611   9.968  11.841  0.00  0.00    +0.000 A 
ATOM      8  C   UNL     1      45.587   9.142  12.409  0.00  0.00    +0.000 A 
ATOM      9  C   UNL     1      45.594   7.752  12.138  0.00  0.00    +0.000 A 
ENDROOT
BRANCH   1  11
ATOM     10  C   UNL     1      48.981   6.683  12.654  0.00  0.00    +0.000 C 
ATOM     11  C   UNL     1      47.660   6.686  13.461  0.00  0.00    +0.000 C 
ATOM     12  C   UNL     1      47.684   5.443  14.375  0.00  0.00    +0.000 C 
ATOM     13  C   UNL     1      47.667   7.959  14.331  0.00  0.00    +0.000 C 
ENDBRANCH   1  11
BRANCH   3  14
ATOM     14  C   UNL     1      43.901   4.940  10.542  0.00  0.00    +0.000 C 
BRANCH  14  15
ATOM     15  C   UNL     1      44.666   4.098   9.554  0.00  0.00    +0.000 A 
ATOM     16  C   UNL     1      44.633   2.706   9.636  0.00  0.00    +0.000 A 
ATOM     17  C   UNL     1      45.462   1.956   8.800  0.00  0.00    +0.000 A 
ATOM     18  C   UNL     1      46.304   2.614   7.908  0.00  0.00    +0.000 A 
ATOM     19  C   UNL     1      46.233   3.999   7.848  0.00  0.00    +0.000 A 
ATOM     20  N   UNL     1      45.429   4.750   8.640  0.00  0.00    +0.000 NA
BRANCH  18  21
ATOM     21  C   UNL     1      47.302   1.886   7.090  0.00  0.00    +0.000 C 
ATOM     22  N   UNL     1      47.259   0.606   6.893  0.00  0.00    +0.000 NA
ATOM     23  N   UNL     1      48.346   2.554   6.524  0.00  0.00    +0.000 N 
ATOM     24  H   UNL     1      46.434   0.181   7.323  0.00  0.00    +0.000 HD
ATOM     25  H   UNL     1      48.759   3.295   7.082  0.00  0.00    +0.000 HD
ATOM     26  H   UNL     1      49.050   1.902   6.186  0.00  0.00    +0.000 HD
ENDBRANCH  18  21
ENDBRANCH  14  15
ENDBRANCH   3  14
TORSDOF 4
ENDMDL
MODEL 3
REMARK VINA RESULT:    -6.479      1.460      2.379
REMARK INTER + INTRA:          -8.498
REMARK INTER:                  -8.178
REMARK INTRA:                  -0.321
REMARK UNBOUND:                -0.505
REMARK  Name = 
REMARK  7 active torsions:
REMARK  status: ('A' for Active; 'I' for Inactive)
REMARK    1  A    between atoms: C_1  and  C_2
REMARK    2  A    between atoms: C_2  and  C_3
REMARK    3  A    between atoms: C_2  and  C_4
REMARK    4  A    between atoms: C_2  and  C_5
REMARK    5  A    between atoms: N_7  and  C_8
REMARK    6  A    between atoms: C_8  and  C_9
REMARK    7  A    between atoms: C_12  and  C_13
REMARK                            x       y       z     vdW  Elec       q    Type
REMARK                         _______ _______ _______ _____ _____    ______ ____
ROOT
ATOM      1  C   UNL     1      44.298   8.051  11.220  0.00  0.00    +0.000 A 
ATOM      2  C   UNL     1      43.569   6.916  10.904  0.00  0.00    +0.000 A 
ATOM      3  N   UNL     1      44.280   5.802  11.272  0.00  0.00    +0.000 N 
ATOM      4  C   UNL     1      45.457   6.179  11.884  0.00  0.00    +0.000 A 
ATOM      5  C   UNL     1      46.479   5.403  12.457  0.00  0.00    +0.000 A 
ATOM      6  C   UNL     1      47.586   6.058  12.999  0.00  0.00    +0.000 A 
ATOM      7  C   UNL     1      47.674   7.442  12.967  0.00  0.00    +0.000 A 
ATOM      8  C   UNL     1      46.648   8.207  12.402  0.00  0.00    +0.000 A 
ATOM      9  C   UNL     1      45.506   7.577  11.853  0.00  0.00    +0.000 A 
ENDROOT
BRANCH   1  11
ATOM     10  C   UNL     1      42.368   9.624  10.677  0.00  0.00    +0.000 C 
ATOM     11  C   UNL     1      43.890   9.501  10.935  0.00  0.00    +0.000 C 
ATOM     12  C   UNL     1      44.607  10.026   9.673  0.00  0.00    +0.000 C 
ATOM     13  C   UNL     1      44.220  10.419  12.128  0.00  0.00    +0.000 C 
ENDBRANCH   1  11
BRANCH   3  14
ATOM     14  C   UNL     1      43.870   4.431  10.984  0.00  0.00    +0.000 C 
BRANCH  14  15
ATOM     15  C   UNL     1      44.618   3.883   9.796  0.00  0.00    +0.000 A 
ATOM     16  C   UNL     1      44.814   2.509   9.657  0.00  0.00    +0.000 A 
ATOM     17  C   UNL     1      45.630   2.039   8.626  0.00  0.00    +0.000 A 
ATOM     18  C   UNL     1      46.231   2.953   7.765  0.00  0.00    +0.000 A 
ATOM     19  C   UNL     1      45.937   4.299   7.936  0.00  0.00    +0.000 A 
ATOM     20  N   UNL     1      45.140   4.780   8.921  0.00  0.00    +0.000 NA
BRANCH  18  21
ATOM     21  C   UNL     1      47.212   2.532   6.736  0.00  0.00    +0.000 C 
ATOM     22  N   UNL     1      48.041   1.552   6.908  0.00  0.00    +0.000 NA
ATOM     23  N   UNL     1      47.296   3.201   5.552  0.00  0.00    +0.000 N 
ATOM     24  H   UNL     1      47.898   1.082   7.805  0.00  0.00    +0.000 HD
ATOM     25  H   UNL     1      47.181   4.209   5.598  0.00  0.00    +0.000 HD
ATOM     26  H   UNL     1      48.143   2.942   5.053  0.00  0.00    +0.000 HD
ENDBRANCH  18  21
ENDBRANCH  14  15
ENDBRANCH   3  14
TORSDOF 4
ENDMDL
MODEL 4
REMARK VINA RESULT:    -6.252      4.378      6.952
REMARK INTER + INTRA:          -8.219
REMARK INTER:                  -7.661
REMARK INTRA:                  -0.558
REMARK UNBOUND:                -0.505
REMARK  Name = 
REMARK  7 active torsions:
REMARK  status: ('A' for Active; 'I' for Inactive)
REMARK    1  A    between atoms: C_1  and  C_2
REMARK    2  A    between atoms: C_2  and  C_3
REMARK    3  A    between atoms: C_2  and  C_4
REMARK    4  A    between atoms: C_2  and  C_5
REMARK    5  A    between atoms: N_7  and  C_8
REMARK    6  A    between atoms: C_8  and  C_9
REMARK    7  A    between atoms: C_12  and  C_13
REMARK                            x       y       z     vdW  Elec       q    Type
REMARK                         _______ _______ _______ _____ _____    ______ ____
ROOT
ATOM      1  C   UNL     1      48.219   6.684  13.522  0.00  0.00    +0.000 A 
ATOM      2  C   UNL     1      48.226   6.036  14.747  0.00  0.00    +0.000 A 
ATOM      3  N   UNL     1      47.199   5.128  14.787  0.00  0.00    +0.000 N 
ATOM      4  C   UNL     1      46.533   5.120  13.580  0.00  0.00    +0.000 A 
ATOM      5  C   UNL     1      45.451   4.339  13.137  0.00  0.00    +0.000 A 
ATOM      6  C   UNL     1      44.956   4.559  11.850  0.00  0.00    +0.000 A 
ATOM      7  C   UNL     1      45.519   5.528  11.032  0.00  0.00    +0.000 A 
ATOM      8  C   UNL     1      46.601   6.295  11.479  0.00  0.00    +0.000 A 
ATOM      9  C   UNL     1      47.135   6.092  12.774  0.00  0.00    +0.000 A 
ENDROOT
BRANCH   1  11
ATOM     10  C   UNL     1      50.282   8.050  14.128  0.00  0.00    +0.000 C 
ATOM     11  C   UNL     1      49.167   7.804  13.082  0.00  0.00    +0.000 C 
ATOM     12  C   UNL     1      48.397   9.131  12.919  0.00  0.00    +0.000 C 
ATOM     13  C   UNL     1      49.866   7.454  11.753  0.00  0.00    +0.000 C 
ENDBRANCH   1  11
BRANCH   3  14
ATOM     14  C   UNL     1      46.833   4.350  15.968  0.00  0.00    +0.000 C 
BRANCH  14  15
ATOM     15  C   UNL     1      48.033   3.639  16.538  0.00  0.00    +0.000 A 
ATOM     16  C   UNL     1      48.728   4.181  17.620  0.00  0.00    +0.000 A 
ATOM     17  C   UNL     1      49.915   3.578  18.036  0.00  0.00    +0.000 A 
ATOM     18  C   UNL     1      50.381   2.453  17.360  0.00  0.00    +0.000 A 
ATOM     19  C   UNL     1      49.600   1.943  16.332  0.00  0.00    +0.000 A 
ATOM     20  N   UNL     1      48.438   2.503  15.916  0.00  0.00    +0.000 NA
BRANCH  18  21
ATOM     21  C   UNL     1      51.698   1.845  17.663  0.00  0.00    +0.000 C 
ATOM     22  N   UNL     1      52.059   0.682  17.222  0.00  0.00    +0.000 NA
ATOM     23  N   UNL     1      52.588   2.497  18.462  0.00  0.00    +0.000 N 
ATOM     24  H   UNL     1      51.354   0.270  16.608  0.00  0.00    +0.000 HD
ATOM     25  H   UNL     1      52.196   3.001  19.252  0.00  0.00    +0.000 HD
ATOM     26  H   UNL     1      53.337   1.872  18.750  0.00  0.00    +0.000 HD
ENDBRANCH  18  21
ENDBRANCH  14  15
ENDBRANCH   3  14
TORSDOF 4
ENDMDL
MODEL 5
REMARK VINA RESULT:    -6.098      2.745      6.499
REMARK INTER + INTRA:          -8.029
REMARK INTER:                  -7.449
REMARK INTRA:                  -0.579
REMARK UNBOUND:                -0.505
REMARK  Name = 
REMARK  7 active torsions:
REMARK  status: ('A' for Active; 'I' for Inactive)
REMARK    1  A    between atoms: C_1  and  C_2
REMARK    2  A    between atoms: C_2  and  C_3
REMARK    3  A    between atoms: C_2  and  C_4
REMARK    4  A    between atoms: C_2  and  C_5
REMARK    5  A    between atoms: N_7  and  C_8
REMARK    6  A    between atoms: C_8  and  C_9
REMARK    7  A    between atoms: C_12  and  C_13
REMARK                            x       y       z     vdW  Elec       q    Type
REMARK                         _______ _______ _______ _____ _____    ______ ____
ROOT
ATOM      1  C   UNL     1      45.424   4.287   9.375  0.00  0.00    +0.000 A 
ATOM      2  C   UNL     1      45.892   5.582   9.533  0.00  0.00    +0.000 A 
ATOM      3  N   UNL     1      45.463   6.075  10.740  0.00  0.00    +0.000 N 
ATOM      4  C   UNL     1      44.758   5.105  11.419  0.00  0.00    +0.000 A 
ATOM      5  C   UNL     1      44.165   5.128  12.693  0.00  0.00    +0.000 A 
ATOM      6  C   UNL     1      43.484   3.990  13.130  0.00  0.00    +0.000 A 
ATOM      7  C   UNL     1      43.393   2.867  12.321  0.00  0.00    +0.000 A 
ATOM      8  C   UNL     1      43.993   2.850  11.057  0.00  0.00    +0.000 A 
ATOM      9  C   UNL     1      44.700   3.982  10.587  0.00  0.00    +0.000 A 
ENDROOT
BRANCH   1  11
ATOM     10  C   UNL     1      46.017   1.948   8.559  0.00  0.00    +0.000 C 
ATOM     11  C   UNL     1      45.633   3.390   8.150  0.00  0.00    +0.000 C 
ATOM     12  C   UNL     1      46.780   3.934   7.272  0.00  0.00    +0.000 C 
ATOM     13  C   UNL     1      44.347   3.291   7.305  0.00  0.00    +0.000 C 
ENDBRANCH   1  11
BRANCH   3  14
ATOM     14  C   UNL     1      45.670   7.449  11.188  0.00  0.00    +0.000 C 
BRANCH  14  15
ATOM     15  C   UNL     1      46.893   7.554  12.061  0.00  0.00    +0.000 A 
ATOM     16  C   UNL     1      48.163   7.330  11.528  0.00  0.00    +0.000 A 
ATOM     17  C   UNL     1      49.263   7.293  12.387  0.00  0.00    +0.000 A 
ATOM     18  C   UNL     1      49.067   7.476  13.753  0.00  0.00    +0.000 A 
ATOM     19  C   UNL     1      47.780   7.752  14.194  0.00  0.00    +0.000 A 
ATOM     20  N   UNL     1      46.697   7.805  13.381  0.00  0.00    +0.000 NA
BRANCH  18  21
ATOM     21  C   UNL     1      50.168   7.317  14.732  0.00  0.00    +0.000 C 
ATOM     22  N   UNL     1      51.389   7.677  14.490  0.00  0.00    +0.000 NA
ATOM     23  N   UNL     1      49.932   6.742  15.945  0.00  0.00    +0.000 N 
ATOM     24  H   UNL     1      51.481   8.125  13.575  0.00  0.00    +0.000 HD
ATOM     25  H   UNL     1      49.283   5.961  15.951  0.00  0.00    +0.000 HD
ATOM     26  H   UNL     1      50.807   6.506  16.407  0.00  0.00    +0.000 HD
ENDBRANCH  18  21
ENDBRANCH  14  15
ENDBRANCH   3  14
TORSDOF 4
ENDMDL
MODEL 6
REMARK VINA RESULT:    -6.044      3.565      7.617
REMARK INTER + INTRA:          -7.962
REMARK INTER:                  -7.743
REMARK INTRA:                  -0.219
REMARK UNBOUND:                -0.505
REMARK  Name = 
REMARK  7 active torsions:
REMARK  status: ('A' for Active; 'I' for Inactive)
REMARK    1  A    between atoms: C_1  and  C_2
REMARK    2  A    between atoms: C_2  and  C_3
REMARK    3  A    between atoms: C_2  and  C_4
REMARK    4  A    between atoms: C_2  and  C_5
REMARK    5  A    between atoms: N_7  and  C_8
REMARK    6  A    between atoms: C_8  and  C_9
REMARK    7  A    between atoms: C_12  and  C_13
REMARK                            x       y       z     vdW  Elec       q    Type
REMARK                         _______ _______ _______ _____ _____    ______ ____
ROOT
ATOM      1  C   UNL     1      45.039   5.611  12.023  0.00  0.00    +0.000 A 
ATOM      2  C   UNL     1      46.164   5.191  12.715  0.00  0.00    +0.000 A 
ATOM      3  N   UNL     1      46.940   6.280  13.024  0.00  0.00    +0.000 N 
ATOM      4  C   UNL     1      46.320   7.434  12.594  0.00  0.00    +0.000 A 
ATOM      5  C   UNL     1      46.706   8.780  12.719  0.00  0.00    +0.000 A 
ATOM      6  C   UNL     1      45.882   9.761  12.164  0.00  0.00    +0.000 A 
ATOM      7  C   UNL     1      44.713   9.412  11.502  0.00  0.00    +0.000 A 
ATOM      8  C   UNL     1      44.333   8.069  11.391  0.00  0.00    +0.000 A 
ATOM      9  C   UNL     1      45.139   7.049  11.950  0.00  0.00    +0.000 A 
ENDROOT
BRANCH   1  11
ATOM     10  C   UNL     1      42.527   5.261  11.778  0.00  0.00    +0.000 C 
ATOM     11  C   UNL     1      43.938   4.712  11.450  0.00  0.00    +0.000 C 
ATOM     12  C   UNL     1      44.025   3.296  12.059  0.00  0.00    +0.000 C 
ATOM     13  C   UNL     1      44.038   4.614   9.915  0.00  0.00    +0.000 C 
ENDBRANCH   1  11
BRANCH   3  14
ATOM     14  C   UNL     1      48.258   6.201  13.647  0.00  0.00    +0.000 C 
BRANCH  14  15
ATOM     15  C   UNL     1      48.144   5.816  15.100  0.00  0.00    +0.000 A 
ATOM     16  C   UNL     1      48.689   6.632  16.092  0.00  0.00    +0.000 A 
ATOM     17  C   UNL     1      48.694   6.183  17.413  0.00  0.00    +0.000 A 
ATOM     18  C   UNL     1      48.162   4.931  17.709  0.00  0.00    +0.000 A 
ATOM     19  C   UNL     1      47.588   4.207  16.673  0.00  0.00    +0.000 A 
ATOM     20  N   UNL     1      47.558   4.625  15.385  0.00  0.00    +0.000 NA
BRANCH  18  21
ATOM     21  C   UNL     1      48.257   4.339  19.065  0.00  0.00    +0.000 C 
ATOM     22  N   UNL     1      48.528   3.090  19.274  0.00  0.00    +0.000 NA
ATOM     23  N   UNL     1      48.028   5.106  20.167  0.00  0.00    +0.000 N 
ATOM     24  H   UNL     1      48.717   2.588  18.403  0.00  0.00    +0.000 HD
ATOM     25  H   UNL     1      47.284   5.791  20.089  0.00  0.00    +0.000 HD
ATOM     26  H   UNL     1      47.916   4.522  20.993  0.00  0.00    +0.000 HD
ENDBRANCH  18  21
ENDBRANCH  14  15
ENDBRANCH   3  14
TORSDOF 4
ENDMDL
MODEL 7
REMARK VINA RESULT:    -5.772      3.893      6.898
REMARK INTER + INTRA:          -7.626
REMARK INTER:                  -6.889
REMARK INTRA:                  -0.737
REMARK UNBOUND:                -0.505
REMARK  Name = 
REMARK  7 active torsions:
REMARK  status: ('A' for Active; 'I' for Inactive)
REMARK    1  A    between atoms: C_1  and  C_2
REMARK    2  A    between atoms: C_2  and  C_3
REMARK    3  A    between atoms: C_2  and  C_4
REMARK    4  A    between atoms: C_2  and  C_5
REMARK    5  A    between atoms: N_7  and  C_8
REMARK    6  A    between atoms: C_8  and  C_9
REMARK    7  A    between atoms: C_12  and  C_13
REMARK                            x       y       z     vdW  Elec       q    Type
REMARK                         _______ _______ _______ _____ _____    ______ ____
ROOT
ATOM      1  C   UNL     1      48.632   6.476  17.527  0.00  0.00    +0.000 A 
ATOM      2  C   UNL     1      48.801   6.043  16.222  0.00  0.00    +0.000 A 
ATOM      3  N   UNL     1      48.830   7.129  15.384  0.00  0.00    +0.000 N 
ATOM      4  C   UNL     1      48.738   8.292  16.119  0.00  0.00    +0.000 A 
ATOM      5  C   UNL     1      48.765   9.636  15.711  0.00  0.00    +0.000 A 
ATOM      6  C   UNL     1      48.630  10.629  16.684  0.00  0.00    +0.000 A 
ATOM      7  C   UNL     1      48.469  10.291  18.021  0.00  0.00    +0.000 A 
ATOM      8  C   UNL     1      48.452   8.949  18.418  0.00  0.00    +0.000 A 
ATOM      9  C   UNL     1      48.597   7.918  17.460  0.00  0.00    +0.000 A 
ENDROOT
BRANCH   1  11
ATOM     10  C   UNL     1      47.212   5.909  19.566  0.00  0.00    +0.000 C 
ATOM     11  C   UNL     1      48.500   5.587  18.769  0.00  0.00    +0.000 C 
ATOM     12  C   UNL     1      49.692   5.811  19.723  0.00  0.00    +0.000 C 
ATOM     13  C   UNL     1      48.429   4.096  18.383  0.00  0.00    +0.000 C 
ENDBRANCH   1  11
BRANCH   3  14
ATOM     14  C   UNL     1      48.877   7.043  13.927  0.00  0.00    +0.000 C 
BRANCH  14  15
ATOM     15  C   UNL     1      47.510   6.759  13.359  0.00  0.00    +0.000 A 
ATOM     16  C   UNL     1      46.627   7.805  13.089  0.00  0.00    +0.000 A 
ATOM     17  C   UNL     1      45.320   7.506  12.699  0.00  0.00    +0.000 A 
ATOM     18  C   UNL     1      44.929   6.174  12.592  0.00  0.00    +0.000 A 
ATOM     19  C   UNL     1      45.886   5.195  12.822  0.00  0.00    +0.000 A 
ATOM     20  N   UNL     1      47.164   5.458  13.190  0.00  0.00    +0.000 NA
BRANCH  18  21
ATOM     21  C   UNL     1      43.525   5.789  12.314  0.00  0.00    +0.000 C 
ATOM     22  N   UNL     1      42.719   5.346  13.226  0.00  0.00    +0.000 NA
ATOM     23  N   UNL     1      43.031   5.862  11.047  0.00  0.00    +0.000 N 
ATOM     24  H   UNL     1      43.151   5.348  14.153  0.00  0.00    +0.000 HD
ATOM     25  H   UNL     1      43.667   5.597  10.302  0.00  0.00    +0.000 HD
ATOM     26  H   UNL     1      42.144   5.368  10.979  0.00  0.00    +0.000 HD
ENDBRANCH  18  21
ENDBRANCH  14  15
ENDBRANCH   3  14
TORSDOF 4
ENDMDL
MODEL 8
REMARK VINA RESULT:    -5.756      2.798      5.187
REMARK INTER + INTRA:          -7.607
REMARK INTER:                  -6.981
REMARK INTRA:                  -0.626
REMARK UNBOUND:                -0.505
REMARK  Name = 
REMARK  7 active torsions:
REMARK  status: ('A' for Active; 'I' for Inactive)
REMARK    1  A    between atoms: C_1  and  C_2
REMARK    2  A    between atoms: C_2  and  C_3
REMARK    3  A    between atoms: C_2  and  C_4
REMARK    4  A    between atoms: C_2  and  C_5
REMARK    5  A    between atoms: N_7  and  C_8
REMARK    6  A    between atoms: C_8  and  C_9
REMARK    7  A    between atoms: C_12  and  C_13
REMARK                            x       y       z     vdW  Elec       q    Type
REMARK                         _______ _______ _______ _____ _____    ______ ____
ROOT
ATOM      1  C   UNL     1      49.261   7.546  15.085  0.00  0.00    +0.000 A 
ATOM      2  C   UNL     1      47.905   7.420  14.824  0.00  0.00    +0.000 A 
ATOM      3  N   UNL     1      47.667   7.720  13.506  0.00  0.00    +0.000 N 
ATOM      4  C   UNL     1      48.857   7.994  12.865  0.00  0.00    +0.000 A 
ATOM      5  C   UNL     1      49.120   8.311  11.522  0.00  0.00    +0.000 A 
ATOM      6  C   UNL     1      50.440   8.563  11.144  0.00  0.00    +0.000 A 
ATOM      7  C   UNL     1      51.465   8.506  12.078  0.00  0.00    +0.000 A 
ATOM      8  C   UNL     1      51.194   8.182  13.412  0.00  0.00    +0.000 A 
ATOM      9  C   UNL     1      49.869   7.910  13.827  0.00  0.00    +0.000 A 
ENDROOT
BRANCH   1  11
ATOM     10  C   UNL     1      50.555   8.669  16.970  0.00  0.00    +0.000 C 
ATOM     11  C   UNL     1      49.946   7.347  16.442  0.00  0.00    +0.000 C 
ATOM     12  C   UNL     1      51.101   6.332  16.320  0.00  0.00    +0.000 C 
ATOM     13  C   UNL     1      48.945   6.856  17.506  0.00  0.00    +0.000 C 
ENDBRANCH   1  11
BRANCH   3  14
ATOM     14  C   UNL     1      46.338   7.806  12.909  0.00  0.00    +0.000 C 
BRANCH  14  15
ATOM     15  C   UNL     1      45.901   6.467  12.372  0.00  0.00    +0.000 A 
ATOM     16  C   UNL     1      45.901   6.223  10.998  0.00  0.00    +0.000 A 
ATOM     17  C   UNL     1      45.359   5.029  10.521  0.00  0.00    +0.000 A 
ATOM     18  C   UNL     1      44.828   4.112  11.425  0.00  0.00    +0.000 A 
ATOM     19  C   UNL     1      44.920   4.406  12.778  0.00  0.00    +0.000 A 
ATOM     20  N   UNL     1      45.452   5.552  13.269  0.00  0.00    +0.000 NA
BRANCH  18  21
ATOM     21  C   UNL     1      44.119   2.890  10.978  0.00  0.00    +0.000 C 
ATOM     22  N   UNL     1      43.063   2.427  11.569  0.00  0.00    +0.000 NA
ATOM     23  N   UNL     1      44.584   2.176   9.915  0.00  0.00    +0.000 N 
ATOM     24  H   UNL     1      42.758   3.032  12.335  0.00  0.00    +0.000 HD
ATOM     25  H   UNL     1      45.593   2.097   9.836  0.00  0.00    +0.000 HD
ATOM     26  H   UNL     1      44.131   1.266   9.868  0.00  0.00    +0.000 HD
ENDBRANCH  18  21
ENDBRANCH  14  15
ENDBRANCH   3  14
TORSDOF 4
ENDMDL
MODEL 9
REMARK VINA RESULT:    -5.271      3.502      6.680
REMARK INTER + INTRA:          -7.008
REMARK INTER:                  -6.617
REMARK INTRA:                  -0.390
REMARK UNBOUND:                -0.505
REMARK  Name = 
REMARK  7 active torsions:
REMARK  status: ('A' for Active; 'I' for Inactive)
REMARK    1  A    between atoms: C_1  and  C_2
REMARK    2  A    between atoms: C_2  and  C_3
REMARK    3  A    between atoms: C_2  and  C_4
REMARK    4  A    between atoms: C_2  and  C_5
REMARK    5  A    between atoms: N_7  and  C_8
REMARK    6  A    between atoms: C_8  and  C_9
REMARK    7  A    between atoms: C_12  and  C_13
REMARK                            x       y       z     vdW  Elec       q    Type
REMARK                         _______ _______ _______ _____ _____    ______ ____
ROOT
ATOM      1  C   UNL     1      45.327   5.773  11.988  0.00  0.00    +0.000 A 
ATOM      2  C   UNL     1      46.357   5.642  12.906  0.00  0.00    +0.000 A 
ATOM      3  N   UNL     1      46.785   6.887  13.290  0.00  0.00    +0.000 N 
ATOM      4  C   UNL     1      46.015   7.856  12.680  0.00  0.00    +0.000 A 
ATOM      5  C   UNL     1      46.049   9.256  12.793  0.00  0.00    +0.000 A 
ATOM      6  C   UNL     1      45.151  10.006  12.032  0.00  0.00    +0.000 A 
ATOM      7  C   UNL     1      44.249   9.380  11.182  0.00  0.00    +0.000 A 
ATOM      8  C   UNL     1      44.218   7.985  11.083  0.00  0.00    +0.000 A 
ATOM      9  C   UNL     1      45.107   7.193  11.848  0.00  0.00    +0.000 A 
ENDROOT
BRANCH   1  11
ATOM     10  C   UNL     1      44.992   3.250  11.853  0.00  0.00    +0.000 C 
ATOM     11  C   UNL     1      44.598   4.630  11.272  0.00  0.00    +0.000 C 
ATOM     12  C   UNL     1      44.963   4.612   9.773  0.00  0.00    +0.000 C 
ATOM     13  C   UNL     1      43.070   4.762  11.423  0.00  0.00    +0.000 C 
ENDBRANCH   1  11
BRANCH   3  14
ATOM     14  C   UNL     1      47.933   7.132  14.157  0.00  0.00    +0.000 C 
BRANCH  14  15
ATOM     15  C   UNL     1      49.124   7.595  13.358  0.00  0.00    +0.000 A 
ATOM     16  C   UNL     1      49.181   7.371  11.982  0.00  0.00    +0.000 A 
ATOM     17  C   UNL     1      50.354   7.682  11.292  0.00  0.00    +0.000 A 
ATOM     18  C   UNL     1      51.439   8.204  11.992  0.00  0.00    +0.000 A 
ATOM     19  C   UNL     1      51.278   8.451  13.349  0.00  0.00    +0.000 A 
ATOM     20  N   UNL     1      50.147   8.169  14.040  0.00  0.00    +0.000 NA
BRANCH  18  21
ATOM     21  C   UNL     1      52.753   8.429  11.347  0.00  0.00    +0.000 C 
ATOM     22  N   UNL     1      53.047   9.510  10.696  0.00  0.00    +0.000 NA
ATOM     23  N   UNL     1      53.716   7.466  11.394  0.00  0.00    +0.000 N 
ATOM     24  H   UNL     1      52.288  10.195  10.730  0.00  0.00    +0.000 HD
ATOM     25  H   UNL     1      53.395   6.507  11.308  0.00  0.00    +0.000 HD
ATOM     26  H   UNL     1      54.463   7.672  10.735  0.00  0.00    +0.000 HD
ENDBRANCH  18  21
ENDBRANCH  14  15
ENDBRANCH   3  14
TORSDOF 4
ENDMDL
