MODEL 1
REMARK VINA RESULT:    -9.054      0.000      0.000
REMARK INTER + INTRA:         -14.016
REMARK INTER:                 -13.024
REMARK INTRA:                  -0.992
REMARK UNBOUND:                -0.992
REMARK  Name = 
REMARK  8 active torsions:
REMARK  status: ('A' for Active; 'I' for Inactive)
REMARK    1  A    between atoms: C_2  and  C_4
REMARK    2  A    between atoms: C_7  and  O_8
REMARK    3  A    between atoms: O_8  and  C_9
REMARK    4  A    between atoms: C_9  and  C_10
REMARK    5  A    between atoms: C_10  and  C_13
REMARK    6  A    between atoms: C_15  and  C_16
REMARK    7  A    between atoms: CA_19  and  C_20
REMARK    8  A    between atoms: C_20  and  OXT_22
REMARK                            x       y       z     vdW  Elec       q    Type
REMARK                         _______ _______ _______ _____ _____    ______ ____
ROOT
ATOM      1  C   UNL     1      43.621   5.420  11.920  0.00  0.00    +0.000 C 
ATOM      2  F   UNL     1      43.030   6.477  11.283  0.00  0.00    +0.000 F 
ATOM      3  F   UNL     1      42.884   5.229  13.057  0.00  0.00    +0.000 F 
ENDROOT
BRANCH   1   4
ATOM      4  C   UNL     1      45.087   5.720  12.254  0.00  0.00    +0.000 A 
ATOM      5  C   UNL     1      45.611   5.310  13.484  0.00  0.00    +0.000 A 
ATOM      6  C   UNL     1      46.954   5.578  13.813  0.00  0.00    +0.000 A 
ATOM      7  C   UNL     1      47.716   6.258  12.851  0.00  0.00    +0.000 A 
ATOM      8  C   UNL     1      47.132   6.634  11.656  0.00  0.00    +0.000 A 
ATOM      9  N   UNL     1      45.847   6.383  11.343  0.00  0.00    +0.000 NA
BRANCH   6  10
ATOM     10  C   UNL     1      47.537   5.178  15.117  0.00  0.00    +0.000 A 
ATOM     11  C   UNL     1      47.160   3.995  15.774  0.00  0.00    +0.000 A 
ATOM     12  C   UNL     1      47.744   3.631  16.989  0.00  0.00    +0.000 A 
ATOM     13  CA  UNL     1      48.712   4.463  17.527  0.00  0.00    +0.000 A 
ATOM     14  N   UNL     1      49.116   5.629  16.953  0.00  0.00    +0.000 NA
ATOM     15  C   UNL     1      48.510   5.946  15.775  0.00  0.00    +0.000 A 
BRANCH  13  16
ATOM     16  C   UNL     1      49.392   4.091  18.802  0.00  0.00    +0.000 C 
ATOM     17  O   UNL     1      50.533   4.411  19.093  0.00  0.00    +0.000 OA
BRANCH  16  18
ATOM     18  OXT UNL     1      48.588   3.350  19.602  0.00  0.00    +0.000 OA
ATOM     19  HXT UNL     1      47.732   3.827  19.734  0.00  0.00    +0.000 HD
ENDBRANCH  16  18
ENDBRANCH  13  16
ENDBRANCH   6  10
ENDBRANCH   1   4
BRANCH   1  20
ATOM     20  C   UNL     1      43.500   4.176  11.031  0.00  0.00    +0.000 C 
BRANCH  20  21
ATOM     21  O   UNL     1      43.505   4.491   9.623  0.00  0.00    +0.000 OA
BRANCH  21  25
ATOM     22  C   UNL     1      46.554   2.478   7.704  0.00  0.00    +0.000 A 
ATOM     23  C   UNL     1      45.662   1.768   8.511  0.00  0.00    +0.000 A 
ATOM     24  C   UNL     1      44.629   2.453   9.158  0.00  0.00    +0.000 A 
ATOM     25  C   UNL     1      44.525   3.823   8.969  0.00  0.00    +0.000 A 
ATOM     26  N   UNL     1      45.375   4.528   8.190  0.00  0.00    +0.000 NA
ATOM     27  C   UNL     1      46.375   3.846   7.585  0.00  0.00    +0.000 A 
BRANCH  22  29
ATOM     28  N   UNL     1      48.558   2.692   6.350  0.00  0.00    +0.000 N 
ATOM     29  C   UNL     1      47.696   1.857   7.004  0.00  0.00    +0.000 C 
ATOM     30  O   UNL     1      47.884   0.649   7.037  0.00  0.00    +0.000 OA
ATOM     31  H   UNL     1      49.386   2.261   5.958  0.00  0.00    +0.000 HD
ATOM     32  H   UNL     1      48.585   3.688   6.518  0.00  0.00    +0.000 HD
ENDBRANCH  22  29
ENDBRANCH  21  25
ENDBRANCH  20  21
ENDBRANCH   1  20
TORSDOF 8
ENDMDL
MODEL 2
REMARK VINA RESULT:    -7.208      3.666      9.203
REMARK INTER + INTRA:         -11.360
REMARK INTER:                 -10.535
REMARK INTRA:                  -0.825
REMARK UNBOUND:                -0.992
REMARK  Name = 
REMARK  8 active torsions:
REMARK  status: ('A' for Active; 'I' for Inactive)
REMARK    1  A    between atoms: C_2  and  C_4
REMARK    2  A    between atoms: C_7  and  O_8
REMARK    3  A    between atoms: O_8  and  C_9
REMARK    4  A    between atoms: C_9  and  C_10
REMARK    5  A    between atoms: C_10  and  C_13
REMARK    6  A    between atoms: C_15  and  C_16
REMARK    7  A    between atoms: CA_19  and  C_20
REMARK    8  A    between atoms: C_20  and  OXT_22
REMARK                            x       y       z     vdW  Elec       q    Type
REMARK                         _______ _______ _______ _____ _____    ______ ____
ROOT
ATOM      1  C   UNL     1      47.813   4.268  17.703  0.00  0.00    +0.000 C 
ATOM      2  F   UNL     1      46.916   3.238  17.609  0.00  0.00    +0.000 F 
ATOM      3  F   UNL     1      47.353   5.049  18.729  0.00  0.00    +0.000 F 
ENDROOT
BRANCH   1   4
ATOM      4  C   UNL     1      47.889   5.061  16.394  0.00  0.00    +0.000 A 
ATOM      5  C   UNL     1      47.119   4.656  15.298  0.00  0.00    +0.000 A 
ATOM      6  C   UNL     1      47.177   5.367  14.083  0.00  0.00    +0.000 A 
ATOM      7  C   UNL     1      48.025   6.482  14.044  0.00  0.00    +0.000 A 
ATOM      8  C   UNL     1      48.758   6.825  15.166  0.00  0.00    +0.000 A 
ATOM      9  N   UNL     1      48.708   6.143  16.325  0.00  0.00    +0.000 NA
BRANCH   6  10
ATOM     10  C   UNL     1      46.391   4.953  12.895  0.00  0.00    +0.000 A 
ATOM     11  C   UNL     1      46.112   5.834  11.838  0.00  0.00    +0.000 A 
ATOM     12  C   UNL     1      45.393   5.409  10.719  0.00  0.00    +0.000 A 
ATOM     13  CA  UNL     1      44.966   4.091  10.675  0.00  0.00    +0.000 A 
ATOM     14  N   UNL     1      45.188   3.187  11.668  0.00  0.00    +0.000 NA
ATOM     15  C   UNL     1      45.886   3.652  12.742  0.00  0.00    +0.000 A 
BRANCH  13  16
ATOM     16  C   UNL     1      44.230   3.584   9.481  0.00  0.00    +0.000 C 
ATOM     17  O   UNL     1      44.053   2.403   9.232  0.00  0.00    +0.000 OA
BRANCH  16  18
ATOM     18  OXT UNL     1      43.781   4.597   8.701  0.00  0.00    +0.000 OA
ATOM     19  HXT UNL     1      44.162   5.450   9.024  0.00  0.00    +0.000 HD
ENDBRANCH  16  18
ENDBRANCH  13  16
ENDBRANCH   6  10
ENDBRANCH   1   4
BRANCH   1  20
ATOM     20  C   UNL     1      49.184   3.698  18.086  0.00  0.00    +0.000 C 
BRANCH  20  21
ATOM     21  O   UNL     1      49.818   2.989  17.001  0.00  0.00    +0.000 OA
BRANCH  21  25
ATOM     22  C   UNL     1      53.443   1.406  18.178  0.00  0.00    +0.000 A 
ATOM     23  C   UNL     1      53.229   2.782  18.279  0.00  0.00    +0.000 A 
ATOM     24  C   UNL     1      51.998   3.315  17.882  0.00  0.00    +0.000 A 
ATOM     25  C   UNL     1      51.028   2.449  17.401  0.00  0.00    +0.000 A 
ATOM     26  N   UNL     1      51.214   1.114  17.299  0.00  0.00    +0.000 NA
ATOM     27  C   UNL     1      52.417   0.623  17.676  0.00  0.00    +0.000 A 
BRANCH  22  29
ATOM     28  N   UNL     1      54.926   0.479  19.863  0.00  0.00    +0.000 N 
ATOM     29  C   UNL     1      54.715   0.748  18.540  0.00  0.00    +0.000 C 
ATOM     30  O   UNL     1      55.530   0.423  17.688  0.00  0.00    +0.000 OA
ATOM     31  H   UNL     1      55.756  -0.057  20.083  0.00  0.00    +0.000 HD
ATOM     32  H   UNL     1      54.182   0.490  20.547  0.00  0.00    +0.000 HD
ENDBRANCH  22  29
ENDBRANCH  21  25
ENDBRANCH  20  21
ENDBRANCH   1  20
TORSDOF 8
ENDMDL
MODEL 3
REMARK VINA RESULT:    -7.107      3.711      8.130
REMARK INTER + INTRA:         -11.214
REMARK INTER:                  -9.931
REMARK INTRA:                  -1.283
REMARK UNBOUND:                -0.992
REMARK  Name = 
REMARK  8 active torsions:
REMARK  status: ('A' for Active; 'I' for Inactive)
REMARK    1  A    between atoms: C_2  and  C_4
REMARK    2  A    between atoms: C_7  and  O_8
REMARK    3  A    between atoms: O_8  and  C_9
REMARK    4  A    between atoms: C_9  and  C_10
REMARK    5  A    between atoms: C_10  and  C_13
REMARK    6  A    between atoms: C_15  and  C_16
REMARK    7  A    between atoms: CA_19  and  C_20
REMARK    8  A    between atoms: C_20  and  OXT_22
REMARK                            x       y       z     vdW  Elec       q    Type
REMARK                         _______ _______ _______ _____ _____    ______ ____
ROOT
ATOM      1  C   UNL     1      48.873   9.158  16.266  0.00  0.00    +0.000 C 
ATOM      2  F   UNL     1      47.580   9.180  16.715  0.00  0.00    +0.000 F 
ATOM      3  F   UNL     1      49.230  10.472  16.140  0.00  0.00    +0.000 F 
ENDROOT
BRANCH   1   4
ATOM      4  C   UNL     1      48.984   8.421  14.926  0.00  0.00    +0.000 A 
ATOM      5  C   UNL     1      47.951   7.569  14.522  0.00  0.00    +0.000 A 
ATOM      6  C   UNL     1      48.033   6.879  13.296  0.00  0.00    +0.000 A 
ATOM      7  C   UNL     1      49.182   7.101  12.523  0.00  0.00    +0.000 A 
ATOM      8  C   UNL     1      50.164   7.958  12.984  0.00  0.00    +0.000 A 
ATOM      9  N   UNL     1      50.088   8.613  14.158  0.00  0.00    +0.000 NA
BRANCH   6  10
ATOM     10  C   UNL     1      46.968   5.949  12.846  0.00  0.00    +0.000 A 
ATOM     11  C   UNL     1      46.287   6.123  11.630  0.00  0.00    +0.000 A 
ATOM     12  C   UNL     1      45.307   5.218  11.221  0.00  0.00    +0.000 A 
ATOM     13  CA  UNL     1      45.026   4.138  12.042  0.00  0.00    +0.000 A 
ATOM     14  N   UNL     1      45.636   3.915  13.239  0.00  0.00    +0.000 NA
ATOM     15  C   UNL     1      46.578   4.830  13.599  0.00  0.00    +0.000 A 
BRANCH  13  16
ATOM     16  C   UNL     1      44.016   3.124  11.624  0.00  0.00    +0.000 C 
ATOM     17  O   UNL     1      43.509   3.072  10.516  0.00  0.00    +0.000 OA
BRANCH  16  18
ATOM     18  OXT UNL     1      43.724   2.262  12.629  0.00  0.00    +0.000 OA
ATOM     19  HXT UNL     1      43.181   1.517  12.271  0.00  0.00    +0.000 HD
ENDBRANCH  16  18
ENDBRANCH  13  16
ENDBRANCH   6  10
ENDBRANCH   1   4
BRANCH   1  20
ATOM     20  C   UNL     1      49.756   8.500  17.334  0.00  0.00    +0.000 C 
BRANCH  20  21
ATOM     21  O   UNL     1      49.019   7.613  18.202  0.00  0.00    +0.000 OA
BRANCH  21  25
ATOM     22  C   UNL     1      49.927   3.678  17.355  0.00  0.00    +0.000 A 
ATOM     23  C   UNL     1      50.930   4.528  17.826  0.00  0.00    +0.000 A 
ATOM     24  C   UNL     1      50.618   5.861  18.114  0.00  0.00    +0.000 A 
ATOM     25  C   UNL     1      49.313   6.290  17.924  0.00  0.00    +0.000 A 
ATOM     26  N   UNL     1      48.328   5.482  17.472  0.00  0.00    +0.000 NA
ATOM     27  C   UNL     1      48.656   4.201  17.187  0.00  0.00    +0.000 A 
BRANCH  22  29
ATOM     28  N   UNL     1      51.024   1.552  17.770  0.00  0.00    +0.000 N 
ATOM     29  C   UNL     1      50.157   2.265  16.991  0.00  0.00    +0.000 C 
ATOM     30  O   UNL     1      49.570   1.744  16.053  0.00  0.00    +0.000 OA
ATOM     31  H   UNL     1      51.097   0.563  17.567  0.00  0.00    +0.000 HD
ATOM     32  H   UNL     1      51.317   1.863  18.686  0.00  0.00    +0.000 HD
ENDBRANCH  22  29
ENDBRANCH  21  25
ENDBRANCH  20  21
ENDBRANCH   1  20
TORSDOF 8
ENDMDL
MODEL 4
REMARK VINA RESULT:    -7.015      2.324      8.279
REMARK INTER + INTRA:         -11.082
REMARK INTER:                  -9.928
REMARK INTRA:                  -1.154
REMARK UNBOUND:                -0.992
REMARK  Name = 
REMARK  8 active torsions:
REMARK  status: ('A' for Active; 'I' for Inactive)
REMARK    1  A    between atoms: C_2  and  C_4
REMARK    2  A    between atoms: C_7  and  O_8
REMARK    3  A    between atoms: O_8  and  C_9
REMARK    4  A    between atoms: C_9  and  C_10
REMARK    5  A    between atoms: C_10  and  C_13
REMARK    6  A    between atoms: C_15  and  C_16
REMARK    7  A    between atoms: CA_19  and  C_20
REMARK    8  A    between atoms: C_20  and  OXT_22
REMARK                            x       y       z     vdW  Elec       q    Type
REMARK                         _______ _______ _______ _____ _____    ______ ____
ROOT
ATOM      1  C   UNL     1      46.605   8.490  12.501  0.00  0.00    +0.000 C 
ATOM      2  F   UNL     1      45.894   9.659  12.550  0.00  0.00    +0.000 F 
ATOM      3  F   UNL     1      47.590   8.710  11.577  0.00  0.00    +0.000 F 
ENDROOT
BRANCH   1   4
ATOM      4  C   UNL     1      45.713   7.313  12.091  0.00  0.00    +0.000 A 
ATOM      5  C   UNL     1      46.106   6.487  11.032  0.00  0.00    +0.000 A 
ATOM      6  C   UNL     1      45.300   5.402  10.636  0.00  0.00    +0.000 A 
ATOM      7  C   UNL     1      44.114   5.201  11.357  0.00  0.00    +0.000 A 
ATOM      8  C   UNL     1      43.787   6.057  12.392  0.00  0.00    +0.000 A 
ATOM      9  N   UNL     1      44.554   7.097  12.767  0.00  0.00    +0.000 NA
BRANCH   6  10
ATOM     10  C   UNL     1      45.674   4.520   9.504  0.00  0.00    +0.000 A 
ATOM     11  C   UNL     1      45.334   3.158   9.471  0.00  0.00    +0.000 A 
ATOM     12  C   UNL     1      45.677   2.357   8.380  0.00  0.00    +0.000 A 
ATOM     13  CA  UNL     1      46.358   2.943   7.325  0.00  0.00    +0.000 A 
ATOM     14  N   UNL     1      46.731   4.252   7.295  0.00  0.00    +0.000 NA
ATOM     15  C   UNL     1      46.382   4.988   8.386  0.00  0.00    +0.000 A 
BRANCH  13  16
ATOM     16  C   UNL     1      46.707   2.135   6.121  0.00  0.00    +0.000 C 
ATOM     17  O   UNL     1      46.618   2.535   4.972  0.00  0.00    +0.000 OA
BRANCH  16  18
ATOM     18  OXT UNL     1      47.137   0.894   6.457  0.00  0.00    +0.000 OA
ATOM     19  HXT UNL     1      46.622   0.222   5.947  0.00  0.00    +0.000 HD
ENDBRANCH  16  18
ENDBRANCH  13  16
ENDBRANCH   6  10
ENDBRANCH   1   4
BRANCH   1  20
ATOM     20  C   UNL     1      47.250   8.244  13.871  0.00  0.00    +0.000 C 
BRANCH  20  21
ATOM     21  O   UNL     1      48.376   7.343  13.806  0.00  0.00    +0.000 OA
BRANCH  21  25
ATOM     22  C   UNL     1      47.877   4.213  16.449  0.00  0.00    +0.000 A 
ATOM     23  C   UNL     1      47.137   4.237  15.265  0.00  0.00    +0.000 A 
ATOM     24  C   UNL     1      47.310   5.298  14.370  0.00  0.00    +0.000 A 
ATOM     25  C   UNL     1      48.221   6.293  14.694  0.00  0.00    +0.000 A 
ATOM     26  N   UNL     1      48.950   6.286  15.833  0.00  0.00    +0.000 NA
ATOM     27  C   UNL     1      48.755   5.257  16.689  0.00  0.00    +0.000 A 
BRANCH  22  29
ATOM     28  N   UNL     1      48.863   2.847  18.198  0.00  0.00    +0.000 N 
ATOM     29  C   UNL     1      47.747   3.157  17.473  0.00  0.00    +0.000 C 
ATOM     30  O   UNL     1      46.676   2.607  17.690  0.00  0.00    +0.000 OA
ATOM     31  H   UNL     1      48.734   2.193  18.959  0.00  0.00    +0.000 HD
ATOM     32  H   UNL     1      49.676   3.448  18.231  0.00  0.00    +0.000 HD
ENDBRANCH  22  29
ENDBRANCH  21  25
ENDBRANCH  20  21
ENDBRANCH   1  20
TORSDOF 8
ENDMDL
MODEL 5
REMARK VINA RESULT:    -6.945      3.897      5.422
REMARK INTER + INTRA:         -10.981
REMARK INTER:                 -10.017
REMARK INTRA:                  -0.965
REMARK UNBOUND:                -0.992
REMARK  Name = 
REMARK  8 active torsions:
REMARK  status: ('A' for Active; 'I' for Inactive)
REMARK    1  A    between atoms: C_2  and  C_4
REMARK    2  A    between atoms: C_7  and  O_8
REMARK    3  A    between atoms: O_8  and  C_9
REMARK    4  A    between atoms: C_9  and  C_10
REMARK    5  A    between atoms: C_10  and  C_13
REMARK    6  A    between atoms: C_15  and  C_16
REMARK    7  A    between atoms: CA_19  and  C_20
REMARK    8  A    between atoms: C_20  and  OXT_22
REMARK                            x       y       z     vdW  Elec       q    Type
REMARK                         _______ _______ _______ _____ _____    ______ ____
ROOT
ATOM      1  C   UNL     1      45.048   5.397  12.484  0.00  0.00    +0.000 C 
ATOM      2  F   UNL     1      44.583   6.229  11.501  0.00  0.00    +0.000 F 
ATOM      3  F   UNL     1      44.095   5.435  13.465  0.00  0.00    +0.000 F 
ENDROOT
BRANCH   1   4
ATOM      4  C   UNL     1      46.408   5.867  13.013  0.00  0.00    +0.000 A 
ATOM      5  C   UNL     1      47.140   6.813  12.287  0.00  0.00    +0.000 A 
ATOM      6  C   UNL     1      48.393   7.256  12.752  0.00  0.00    +0.000 A 
ATOM      7  C   UNL     1      48.846   6.711  13.962  0.00  0.00    +0.000 A 
ATOM      8  C   UNL     1      48.070   5.780  14.628  0.00  0.00    +0.000 A 
ATOM      9  N   UNL     1      46.875   5.352  14.180  0.00  0.00    +0.000 NA
BRANCH   6  10
ATOM     10  C   UNL     1      49.207   8.240  11.996  0.00  0.00    +0.000 A 
ATOM     11  C   UNL     1      48.729   9.523  11.683  0.00  0.00    +0.000 A 
ATOM     12  C   UNL     1      49.527  10.438  10.993  0.00  0.00    +0.000 A 
ATOM     13  CA  UNL     1      50.807  10.050  10.630  0.00  0.00    +0.000 A 
ATOM     14  N   UNL     1      51.329   8.819  10.888  0.00  0.00    +0.000 NA
ATOM     15  C   UNL     1      50.509   7.960  11.554  0.00  0.00    +0.000 A 
BRANCH  13  16
ATOM     16  C   UNL     1      51.707  11.009   9.928  0.00  0.00    +0.000 C 
ATOM     17  O   UNL     1      51.489  11.476   8.823  0.00  0.00    +0.000 OA
BRANCH  16  18
ATOM     18  OXT UNL     1      52.805  11.300  10.668  0.00  0.00    +0.000 OA
ATOM     19  HXT UNL     1      52.539  11.410  11.614  0.00  0.00    +0.000 HD
ENDBRANCH  16  18
ENDBRANCH  13  16
ENDBRANCH   6  10
ENDBRANCH   1   4
BRANCH   1  20
ATOM     20  C   UNL     1      45.134   3.971  11.926  0.00  0.00    +0.000 C 
BRANCH  20  21
ATOM     21  O   UNL     1      44.299   3.773  10.766  0.00  0.00    +0.000 OA
BRANCH  21  25
ATOM     22  C   UNL     1      46.564   3.008   7.402  0.00  0.00    +0.000 A 
ATOM     23  C   UNL     1      46.317   4.330   7.778  0.00  0.00    +0.000 A 
ATOM     24  C   UNL     1      45.551   4.586   8.920  0.00  0.00    +0.000 A 
ATOM     25  C   UNL     1      45.065   3.508   9.644  0.00  0.00    +0.000 A 
ATOM     26  N   UNL     1      45.296   2.221   9.299  0.00  0.00    +0.000 NA
ATOM     27  C   UNL     1      46.028   1.998   8.184  0.00  0.00    +0.000 A 
BRANCH  22  29
ATOM     28  N   UNL     1      48.608   2.178   6.387  0.00  0.00    +0.000 N 
ATOM     29  C   UNL     1      47.333   2.630   6.199  0.00  0.00    +0.000 C 
ATOM     30  O   UNL     1      46.837   2.686   5.082  0.00  0.00    +0.000 OA
ATOM     31  H   UNL     1      49.086   1.833   5.564  0.00  0.00    +0.000 HD
ATOM     32  H   UNL     1      48.951   1.874   7.288  0.00  0.00    +0.000 HD
ENDBRANCH  22  29
ENDBRANCH  21  25
ENDBRANCH  20  21
ENDBRANCH   1  20
TORSDOF 8
ENDMDL
MODEL 6
REMARK VINA RESULT:    -6.914      3.681      8.906
REMARK INTER + INTRA:         -10.937
REMARK INTER:                 -10.102
REMARK INTRA:                  -0.835
REMARK UNBOUND:                -0.992
REMARK  Name = 
REMARK  8 active torsions:
REMARK  status: ('A' for Active; 'I' for Inactive)
REMARK    1  A    between atoms: C_2  and  C_4
REMARK    2  A    between atoms: C_7  and  O_8
REMARK    3  A    between atoms: O_8  and  C_9
REMARK    4  A    between atoms: C_9  and  C_10
REMARK    5  A    between atoms: C_10  and  C_13
REMARK    6  A    between atoms: C_15  and  C_16
REMARK    7  A    between atoms: CA_19  and  C_20
REMARK    8  A    between atoms: C_20  and  OXT_22
REMARK                            x       y       z     vdW  Elec       q    Type
REMARK                         _______ _______ _______ _____ _____    ______ ____
ROOT
ATOM      1  C   UNL     1      49.583   6.874  16.914  0.00  0.00    +0.000 C 
ATOM      2  F   UNL     1      48.380   6.624  17.517  0.00  0.00    +0.000 F 
ATOM      3  F   UNL     1      50.041   8.025  17.494  0.00  0.00    +0.000 F 
ENDROOT
BRANCH   1   4
ATOM      4  C   UNL     1      49.421   7.042  15.399  0.00  0.00    +0.000 A 
ATOM      5  C   UNL     1      48.305   6.492  14.761  0.00  0.00    +0.000 A 
ATOM      6  C   UNL     1      48.137   6.631  13.369  0.00  0.00    +0.000 A 
ATOM      7  C   UNL     1      49.130   7.344  12.682  0.00  0.00    +0.000 A 
ATOM      8  C   UNL     1      50.208   7.860  13.377  0.00  0.00    +0.000 A 
ATOM      9  N   UNL     1      50.371   7.723  14.706  0.00  0.00    +0.000 NA
BRANCH   6  10
ATOM     10  C   UNL     1      46.978   6.041  12.656  0.00  0.00    +0.000 A 
ATOM     11  C   UNL     1      46.455   6.606  11.481  0.00  0.00    +0.000 A 
ATOM     12  C   UNL     1      45.379   6.014  10.817  0.00  0.00    +0.000 A 
ATOM     13  CA  UNL     1      44.842   4.851  11.344  0.00  0.00    +0.000 A 
ATOM     14  N   UNL     1      45.289   4.256  12.484  0.00  0.00    +0.000 NA
ATOM     15  C   UNL     1      46.333   4.876  13.100  0.00  0.00    +0.000 A 
BRANCH  13  16
ATOM     16  C   UNL     1      43.719   4.163  10.644  0.00  0.00    +0.000 C 
ATOM     17  O   UNL     1      43.040   3.276  11.136  0.00  0.00    +0.000 OA
BRANCH  16  18
ATOM     18  OXT UNL     1      43.540   4.642   9.389  0.00  0.00    +0.000 OA
ATOM     19  HXT UNL     1      42.657   5.082   9.331  0.00  0.00    +0.000 HD
ENDBRANCH  16  18
ENDBRANCH  13  16
ENDBRANCH   6  10
ENDBRANCH   1   4
BRANCH   1  20
ATOM     20  C   UNL     1      50.550   5.729  17.244  0.00  0.00    +0.000 C 
BRANCH  20  21
ATOM     21  O   UNL     1      49.946   4.427  17.095  0.00  0.00    +0.000 OA
BRANCH  21  25
ATOM     22  C   UNL     1      52.705   1.457  17.872  0.00  0.00    +0.000 A 
ATOM     23  C   UNL     1      53.006   2.779  18.207  0.00  0.00    +0.000 A 
ATOM     24  C   UNL     1      52.068   3.783  17.944  0.00  0.00    +0.000 A 
ATOM     25  C   UNL     1      50.863   3.424  17.360  0.00  0.00    +0.000 A 
ATOM     26  N   UNL     1      50.551   2.150  17.032  0.00  0.00    +0.000 NA
ATOM     27  C   UNL     1      51.479   1.198  17.283  0.00  0.00    +0.000 A 
BRANCH  22  29
ATOM     28  N   UNL     1      53.922  -0.452  16.993  0.00  0.00    +0.000 N 
ATOM     29  C   UNL     1      53.636   0.329  18.077  0.00  0.00    +0.000 C 
ATOM     30  O   UNL     1      54.159   0.123  19.163  0.00  0.00    +0.000 OA
ATOM     31  H   UNL     1      54.633  -1.159  17.127  0.00  0.00    +0.000 HD
ATOM     32  H   UNL     1      53.723  -0.162  16.045  0.00  0.00    +0.000 HD
ENDBRANCH  22  29
ENDBRANCH  21  25
ENDBRANCH  20  21
ENDBRANCH   1  20
TORSDOF 8
ENDMDL
MODEL 7
REMARK VINA RESULT:    -6.842      3.582      8.152
REMARK INTER + INTRA:         -10.833
REMARK INTER:                  -9.776
REMARK INTRA:                  -1.057
REMARK UNBOUND:                -0.992
REMARK  Name = 
REMARK  8 active torsions:
REMARK  status: ('A' for Active; 'I' for Inactive)
REMARK    1  A    between atoms: C_2  and  C_4
REMARK    2  A    between atoms: C_7  and  O_8
REMARK    3  A    between atoms: O_8  and  C_9
REMARK    4  A    between atoms: C_9  and  C_10
REMARK    5  A    between atoms: C_10  and  C_13
REMARK    6  A    between atoms: C_15  and  C_16
REMARK    7  A    between atoms: CA_19  and  C_20
REMARK    8  A    between atoms: C_20  and  OXT_22
REMARK                            x       y       z     vdW  Elec       q    Type
REMARK                         _______ _______ _______ _____ _____    ______ ____
ROOT
ATOM      1  C   UNL     1      50.204   8.645  13.120  0.00  0.00    +0.000 C 
ATOM      2  F   UNL     1      50.700   9.898  13.361  0.00  0.00    +0.000 F 
ATOM      3  F   UNL     1      50.953   8.158  12.083  0.00  0.00    +0.000 F 
ENDROOT
BRANCH   1   4
ATOM      4  C   UNL     1      48.716   8.696  12.754  0.00  0.00    +0.000 A 
ATOM      5  C   UNL     1      48.038   7.507  12.467  0.00  0.00    +0.000 A 
ATOM      6  C   UNL     1      46.671   7.530  12.125  0.00  0.00    +0.000 A 
ATOM      7  C   UNL     1      46.048   8.786  12.099  0.00  0.00    +0.000 A 
ATOM      8  C   UNL     1      46.781   9.921  12.394  0.00  0.00    +0.000 A 
ATOM      9  N   UNL     1      48.088   9.900  12.715  0.00  0.00    +0.000 NA
BRANCH   6  10
ATOM     10  C   UNL     1      45.925   6.292  11.792  0.00  0.00    +0.000 A 
ATOM     11  C   UNL     1      45.636   5.925  10.468  0.00  0.00    +0.000 A 
ATOM     12  C   UNL     1      44.954   4.740  10.184  0.00  0.00    +0.000 A 
ATOM     13  CA  UNL     1      44.575   3.931  11.243  0.00  0.00    +0.000 A 
ATOM     14  N   UNL     1      44.810   4.230  12.550  0.00  0.00    +0.000 NA
ATOM     15  C   UNL     1      45.468   5.400  12.776  0.00  0.00    +0.000 A 
BRANCH  13  16
ATOM     16  C   UNL     1      43.882   2.636  10.982  0.00  0.00    +0.000 C 
ATOM     17  O   UNL     1      42.965   2.198  11.657  0.00  0.00    +0.000 OA
BRANCH  16  18
ATOM     18  OXT UNL     1      44.396   1.999   9.902  0.00  0.00    +0.000 OA
ATOM     19  HXT UNL     1      45.300   2.354   9.715  0.00  0.00    +0.000 HD
ENDBRANCH  16  18
ENDBRANCH  13  16
ENDBRANCH   6  10
ENDBRANCH   1   4
BRANCH   1  20
ATOM     20  C   UNL     1      50.440   7.773  14.360  0.00  0.00    +0.000 C 
BRANCH  20  21
ATOM     21  O   UNL     1      49.586   8.131  15.467  0.00  0.00    +0.000 OA
BRANCH  21  25
ATOM     22  C   UNL     1      48.081   4.766  17.321  0.00  0.00    +0.000 A 
ATOM     23  C   UNL     1      48.587   5.810  18.098  0.00  0.00    +0.000 A 
ATOM     24  C   UNL     1      49.094   6.950  17.467  0.00  0.00    +0.000 A 
ATOM     25  C   UNL     1      49.071   7.003  16.081  0.00  0.00    +0.000 A 
ATOM     26  N   UNL     1      48.583   6.004  15.311  0.00  0.00    +0.000 NA
ATOM     27  C   UNL     1      48.110   4.906  15.944  0.00  0.00    +0.000 A 
BRANCH  22  29
ATOM     28  N   UNL     1      48.167   3.017  19.004  0.00  0.00    +0.000 N 
ATOM     29  C   UNL     1      47.553   3.508  17.887  0.00  0.00    +0.000 C 
ATOM     30  O   UNL     1      46.584   2.945  17.397  0.00  0.00    +0.000 OA
ATOM     31  H   UNL     1      47.735   2.209  19.434  0.00  0.00    +0.000 HD
ATOM     32  H   UNL     1      48.784   3.577  19.577  0.00  0.00    +0.000 HD
ENDBRANCH  22  29
ENDBRANCH  21  25
ENDBRANCH  20  21
ENDBRANCH   1  20
TORSDOF 8
ENDMDL
MODEL 8
REMARK VINA RESULT:    -6.585      4.618      8.095
REMARK INTER + INTRA:         -10.463
REMARK INTER:                  -8.681
REMARK INTRA:                  -1.783
REMARK UNBOUND:                -0.992
REMARK  Name = 
REMARK  8 active torsions:
REMARK  status: ('A' for Active; 'I' for Inactive)
REMARK    1  A    between atoms: C_2  and  C_4
REMARK    2  A    between atoms: C_7  and  O_8
REMARK    3  A    between atoms: O_8  and  C_9
REMARK    4  A    between atoms: C_9  and  C_10
REMARK    5  A    between atoms: C_10  and  C_13
REMARK    6  A    between atoms: C_15  and  C_16
REMARK    7  A    between atoms: CA_19  and  C_20
REMARK    8  A    between atoms: C_20  and  OXT_22
REMARK                            x       y       z     vdW  Elec       q    Type
REMARK                         _______ _______ _______ _____ _____    ______ ____
ROOT
ATOM      1  C   UNL     1      51.107   8.964  15.364  0.00  0.00    +0.000 C 
ATOM      2  F   UNL     1      51.457  10.286  15.293  0.00  0.00    +0.000 F 
ATOM      3  F   UNL     1      52.281   8.294  15.575  0.00  0.00    +0.000 F 
ENDROOT
BRANCH   1   4
ATOM      4  C   UNL     1      50.426   8.499  14.072  0.00  0.00    +0.000 A 
ATOM      5  C   UNL     1      49.231   7.777  14.146  0.00  0.00    +0.000 A 
ATOM      6  C   UNL     1      48.589   7.335  12.971  0.00  0.00    +0.000 A 
ATOM      7  C   UNL     1      49.204   7.664  11.755  0.00  0.00    +0.000 A 
ATOM      8  C   UNL     1      50.387   8.381  11.756  0.00  0.00    +0.000 A 
ATOM      9  N   UNL     1      51.003   8.798  12.879  0.00  0.00    +0.000 NA
BRANCH   6  10
ATOM     10  C   UNL     1      47.332   6.548  13.013  0.00  0.00    +0.000 A 
ATOM     11  C   UNL     1      47.265   5.275  13.602  0.00  0.00    +0.000 A 
ATOM     12  C   UNL     1      46.062   4.568  13.650  0.00  0.00    +0.000 A 
ATOM     13  CA  UNL     1      44.933   5.157  13.105  0.00  0.00    +0.000 A 
ATOM     14  N   UNL     1      44.928   6.380  12.507  0.00  0.00    +0.000 NA
ATOM     15  C   UNL     1      46.126   7.026  12.477  0.00  0.00    +0.000 A 
BRANCH  13  16
ATOM     16  C   UNL     1      43.619   4.455  13.171  0.00  0.00    +0.000 C 
ATOM     17  O   UNL     1      43.467   3.259  12.988  0.00  0.00    +0.000 OA
BRANCH  16  18
ATOM     18  OXT UNL     1      42.607   5.310  13.458  0.00  0.00    +0.000 OA
ATOM     19  HXT UNL     1      42.636   6.072  12.828  0.00  0.00    +0.000 HD
ENDBRANCH  16  18
ENDBRANCH  13  16
ENDBRANCH   6  10
ENDBRANCH   1   4
BRANCH   1  20
ATOM     20  C   UNL     1      50.190   8.760  16.577  0.00  0.00    +0.000 C 
BRANCH  20  21
ATOM     21  O   UNL     1      50.689   7.763  17.494  0.00  0.00    +0.000 OA
BRANCH  21  25
ATOM     22  C   UNL     1      48.626   4.212  17.090  0.00  0.00    +0.000 A 
ATOM     23  C   UNL     1      47.922   5.389  17.352  0.00  0.00    +0.000 A 
ATOM     24  C   UNL     1      48.625   6.592  17.486  0.00  0.00    +0.000 A 
ATOM     25  C   UNL     1      50.004   6.569  17.348  0.00  0.00    +0.000 A 
ATOM     26  N   UNL     1      50.703   5.441  17.091  0.00  0.00    +0.000 NA
ATOM     27  C   UNL     1      50.005   4.289  16.979  0.00  0.00    +0.000 A 
BRANCH  22  29
ATOM     28  N   UNL     1      48.664   1.928  16.265  0.00  0.00    +0.000 N 
ATOM     29  C   UNL     1      47.985   2.888  16.962  0.00  0.00    +0.000 C 
ATOM     30  O   UNL     1      46.908   2.647  17.488  0.00  0.00    +0.000 OA
ATOM     31  H   UNL     1      48.258   1.001  16.269  0.00  0.00    +0.000 HD
ATOM     32  H   UNL     1      49.649   2.006  16.049  0.00  0.00    +0.000 HD
ENDBRANCH  22  29
ENDBRANCH  21  25
ENDBRANCH  20  21
ENDBRANCH   1  20
TORSDOF 8
ENDMDL
MODEL 9
REMARK VINA RESULT:    -6.487      3.755      5.385
REMARK INTER + INTRA:         -10.322
REMARK INTER:                  -9.253
REMARK INTRA:                  -1.069
REMARK UNBOUND:                -0.992
REMARK  Name = 
REMARK  8 active torsions:
REMARK  status: ('A' for Active; 'I' for Inactive)
REMARK    1  A    between atoms: C_2  and  C_4
REMARK    2  A    between atoms: C_7  and  O_8
REMARK    3  A    between atoms: O_8  and  C_9
REMARK    4  A    between atoms: C_9  and  C_10
REMARK    5  A    between atoms: C_10  and  C_13
REMARK    6  A    between atoms: C_15  and  C_16
REMARK    7  A    between atoms: CA_19  and  C_20
REMARK    8  A    between atoms: C_20  and  OXT_22
REMARK                            x       y       z     vdW  Elec       q    Type
REMARK                         _______ _______ _______ _____ _____    ______ ____
ROOT
ATOM      1  C   UNL     1      48.881   8.806  14.240  0.00  0.00    +0.000 C 
ATOM      2  F   UNL     1      50.046   8.566  13.562  0.00  0.00    +0.000 F 
ATOM      3  F   UNL     1      48.800  10.168  14.340  0.00  0.00    +0.000 F 
ENDROOT
BRANCH   1   4
ATOM      4  C   UNL     1      48.897   8.147  15.624  0.00  0.00    +0.000 A 
ATOM      5  C   UNL     1      49.529   6.911  15.790  0.00  0.00    +0.000 A 
ATOM      6  C   UNL     1      49.554   6.285  17.053  0.00  0.00    +0.000 A 
ATOM      7  C   UNL     1      48.928   6.966  18.107  0.00  0.00    +0.000 A 
ATOM      8  C   UNL     1      48.321   8.186  17.870  0.00  0.00    +0.000 A 
ATOM      9  N   UNL     1      48.293   8.782  16.663  0.00  0.00    +0.000 NA
BRANCH   6  10
ATOM     10  C   UNL     1      50.195   4.964  17.261  0.00  0.00    +0.000 A 
ATOM     11  C   UNL     1      49.463   3.765  17.243  0.00  0.00    +0.000 A 
ATOM     12  C   UNL     1      50.098   2.534  17.416  0.00  0.00    +0.000 A 
ATOM     13  CA  UNL     1      51.471   2.523  17.600  0.00  0.00    +0.000 A 
ATOM     14  N   UNL     1      52.240   3.645  17.643  0.00  0.00    +0.000 NA
ATOM     15  C   UNL     1      51.574   4.822  17.479  0.00  0.00    +0.000 A 
BRANCH  13  16
ATOM     16  C   UNL     1      52.195   1.227  17.748  0.00  0.00    +0.000 C 
ATOM     17  O   UNL     1      53.383   1.073  17.523  0.00  0.00    +0.000 OA
BRANCH  16  18
ATOM     18  OXT UNL     1      51.369   0.235  18.162  0.00  0.00    +0.000 OA
ATOM     19  HXT UNL     1      51.723  -0.633  17.851  0.00  0.00    +0.000 HD
ENDBRANCH  16  18
ENDBRANCH  13  16
ENDBRANCH   6  10
ENDBRANCH   1   4
BRANCH   1  20
ATOM     20  C   UNL     1      47.704   8.296  13.398  0.00  0.00    +0.000 C 
BRANCH  20  21
ATOM     21  O   UNL     1      48.075   7.217  12.513  0.00  0.00    +0.000 OA
BRANCH  21  25
ATOM     22  C   UNL     1      44.992   4.509  12.084  0.00  0.00    +0.000 A 
ATOM     23  C   UNL     1      45.760   4.495  13.250  0.00  0.00    +0.000 A 
ATOM     24  C   UNL     1      46.803   5.416  13.393  0.00  0.00    +0.000 A 
ATOM     25  C   UNL     1      47.034   6.318  12.365  0.00  0.00    +0.000 A 
ATOM     26  N   UNL     1      46.299   6.350  11.231  0.00  0.00    +0.000 NA
ATOM     27  C   UNL     1      45.305   5.441  11.109  0.00  0.00    +0.000 A 
BRANCH  22  29
ATOM     28  N   UNL     1      43.851   2.422  12.573  0.00  0.00    +0.000 N 
ATOM     29  C   UNL     1      43.890   3.561  11.820  0.00  0.00    +0.000 C 
ATOM     30  O   UNL     1      43.028   3.801  10.986  0.00  0.00    +0.000 OA
ATOM     31  H   UNL     1      43.039   1.830  12.447  0.00  0.00    +0.000 HD
ATOM     32  H   UNL     1      44.377   2.316  13.429  0.00  0.00    +0.000 HD
ENDBRANCH  22  29
ENDBRANCH  21  25
ENDBRANCH  20  21
ENDBRANCH   1  20
TORSDOF 8
ENDMDL
