MODEL 1
REMARK VINA RESULT:    -6.930      0.000      0.000
REMARK INTER + INTRA:          -9.922
REMARK INTER:                  -9.159
REMARK INTRA:                  -0.763
REMARK UNBOUND:                -0.763
REMARK  Name = 
REMARK  6 active torsions:
REMARK  status: ('A' for Active; 'I' for Inactive)
REMARK    1  A    between atoms: N_1  and  C_2
REMARK    2  A    between atoms: C_2  and  C_3
REMARK    3  A    between atoms: C_6  and  C_7
REMARK    4  A    between atoms: C_7  and  N_8
REMARK    5  A    between atoms: C_10  and  C_11
REMARK    6  A    between atoms: C_17  and  C_18
REMARK                            x       y       z     vdW  Elec       q    Type
REMARK                         _______ _______ _______ _____ _____    ______ ____
ROOT
ATOM      1  N   UNL     1      44.678   5.912  10.392  0.00  0.00    +0.000 N 
ATOM      2  C   UNL     1      44.003   5.185  11.389  0.00  0.00    +0.000 C 
ATOM      3  C   UNL     1      44.116   3.861  11.181  0.00  0.00    +0.000 C 
ATOM      4  N   UNL     1      44.845   3.701   9.991  0.00  0.00    +0.000 N 
ATOM      5  C   UNL     1      45.284   2.560   9.387  0.00  0.00    +0.000 C 
ATOM      6  C   UNL     1      46.198   2.703   8.272  0.00  0.00    +0.000 C 
ATOM      7  C   UNL     1      46.502   3.962   7.884  0.00  0.00    +0.000 C 
ATOM      8  N   UNL     1      46.056   5.137   8.491  0.00  0.00    +0.000 NA
ATOM      9  C   UNL     1      45.256   4.965   9.505  0.00  0.00    +0.000 C 
ENDROOT
BRANCH   6  10
ATOM     10  C   UNL     1      46.741   1.441   7.672  0.00  0.00    +0.000 C 
ATOM     11  N   UNL     1      47.737   1.530   6.758  0.00  0.00    +0.000 N 
ATOM     12  O   UNL     1      46.333   0.333   8.016  0.00  0.00    +0.000 OA
ATOM     13  H   UNL     1      48.182   2.380   6.453  0.00  0.00    +0.000 HD
ATOM     14  H   UNL     1      48.116   0.652   6.419  0.00  0.00    +0.000 HD
ENDBRANCH   6  10
BRANCH   3  15
ATOM     15  C   UNL     1      43.767   2.800  12.167  0.00  0.00    +0.000 C 
ATOM     16  F   UNL     1      42.967   1.825  11.669  0.00  0.00    +0.000 F 
ATOM     17  F   UNL     1      44.889   2.170  12.617  0.00  0.00    +0.000 F 
ATOM     18  F   UNL     1      43.144   3.303  13.261  0.00  0.00    +0.000 F 
ENDBRANCH   3  15
BRANCH   1  19
ATOM     19  C   UNL     1      45.395   7.127  10.809  0.00  0.00    +0.000 C 
BRANCH  19  23
ATOM     20  C   UNL     1      48.288   9.219  12.274  0.00  0.00    +0.000 C 
ATOM     21  C   UNL     1      48.529   7.796  11.733  0.00  0.00    +0.000 C 
ATOM     22  C   UNL     1      47.541   6.726  12.216  0.00  0.00    +0.000 C 
ATOM     23  C   UNL     1      46.055   7.128  12.197  0.00  0.00    +0.000 C 
ATOM     24  C   UNL     1      45.891   8.530  12.824  0.00  0.00    +0.000 C 
ATOM     25  C   UNL     1      46.800   9.583  12.187  0.00  0.00    +0.000 C 
BRANCH  20  26
ATOM     26  C   UNL     1      48.826   9.458  13.701  0.00  0.00    +0.000 C 
BRANCH  26  27
ATOM     27  N   UNL     1      48.422  10.757  14.232  0.00  0.00    +0.000 NA
ATOM     28  H   UNL     1      47.576  11.067  13.752  0.00  0.00    +0.000 HD
ATOM     29  H   UNL     1      49.135  11.454  14.019  0.00  0.00    +0.000 HD
ENDBRANCH  26  27
ENDBRANCH  20  26
ENDBRANCH  19  23
ENDBRANCH   1  19
TORSDOF 6
ENDMDL
MODEL 2
REMARK VINA RESULT:    -6.067      5.106      6.364
REMARK INTER + INTRA:          -8.782
REMARK INTER:                  -8.157
REMARK INTRA:                  -0.625
REMARK UNBOUND:                -0.763
REMARK  Name = 
REMARK  6 active torsions:
REMARK  status: ('A' for Active; 'I' for Inactive)
REMARK    1  A    between atoms: N_1  and  C_2
REMARK    2  A    between atoms: C_2  and  C_3
REMARK    3  A    between atoms: C_6  and  C_7
REMARK    4  A    between atoms: C_7  and  N_8
REMARK    5  A    between atoms: C_10  and  C_11
REMARK    6  A    between atoms: C_17  and  C_18
REMARK                            x       y       z     vdW  Elec       q    Type
REMARK                         _______ _______ _______ _____ _____    ______ ____
ROOT
ATOM      1  N   UNL     1      47.882   5.468  14.585  0.00  0.00    +0.000 N 
ATOM      2  C   UNL     1      47.873   6.844  14.289  0.00  0.00    +0.000 C 
ATOM      3  C   UNL     1      47.029   7.114  13.277  0.00  0.00    +0.000 C 
ATOM      4  N   UNL     1      46.497   5.884  12.856  0.00  0.00    +0.000 N 
ATOM      5  C   UNL     1      45.548   5.624  11.913  0.00  0.00    +0.000 C 
ATOM      6  C   UNL     1      45.036   4.271  11.833  0.00  0.00    +0.000 C 
ATOM      7  C   UNL     1      45.581   3.358  12.668  0.00  0.00    +0.000 C 
ATOM      8  N   UNL     1      46.556   3.610  13.635  0.00  0.00    +0.000 NA
ATOM      9  C   UNL     1      46.971   4.844  13.691  0.00  0.00    +0.000 C 
ENDROOT
BRANCH   6  10
ATOM     10  C   UNL     1      43.933   4.018  10.850  0.00  0.00    +0.000 C 
ATOM     11  N   UNL     1      43.872   4.775   9.728  0.00  0.00    +0.000 N 
ATOM     12  O   UNL     1      43.110   3.120  11.018  0.00  0.00    +0.000 OA
ATOM     13  H   UNL     1      44.529   5.493   9.467  0.00  0.00    +0.000 HD
ATOM     14  H   UNL     1      43.147   4.535   9.062  0.00  0.00    +0.000 HD
ENDBRANCH   6  10
BRANCH   3  15
ATOM     15  C   UNL     1      46.564   8.473  12.882  0.00  0.00    +0.000 C 
ATOM     16  F   UNL     1      46.591   8.699  11.545  0.00  0.00    +0.000 F 
ATOM     17  F   UNL     1      45.272   8.673  13.269  0.00  0.00    +0.000 F 
ATOM     18  F   UNL     1      47.297   9.454  13.464  0.00  0.00    +0.000 F 
ENDBRANCH   3  15
BRANCH   1  19
ATOM     19  C   UNL     1      47.973   5.081  16.001  0.00  0.00    +0.000 C 
BRANCH  19  23
ATOM     20  C   UNL     1      48.851   4.755  19.744  0.00  0.00    +0.000 C 
ATOM     21  C   UNL     1      47.777   5.749  19.263  0.00  0.00    +0.000 C 
ATOM     22  C   UNL     1      48.176   6.633  18.074  0.00  0.00    +0.000 C 
ATOM     23  C   UNL     1      48.888   5.915  16.914  0.00  0.00    +0.000 C 
ATOM     24  C   UNL     1      49.997   4.999  17.475  0.00  0.00    +0.000 C 
ATOM     25  C   UNL     1      49.492   4.035  18.551  0.00  0.00    +0.000 C 
BRANCH  20  26
ATOM     26  C   UNL     1      49.933   5.376  20.653  0.00  0.00    +0.000 C 
BRANCH  26  27
ATOM     27  N   UNL     1      51.049   4.463  20.886  0.00  0.00    +0.000 NA
ATOM     28  H   UNL     1      50.689   3.581  21.253  0.00  0.00    +0.000 HD
ATOM     29  H   UNL     1      51.657   4.840  21.612  0.00  0.00    +0.000 HD
ENDBRANCH  26  27
ENDBRANCH  20  26
ENDBRANCH  19  23
ENDBRANCH   1  19
TORSDOF 6
ENDMDL
MODEL 3
REMARK VINA RESULT:    -5.851      4.018      5.823
REMARK INTER + INTRA:          -8.496
REMARK INTER:                  -7.712
REMARK INTRA:                  -0.784
REMARK UNBOUND:                -0.763
REMARK  Name = 
REMARK  6 active torsions:
REMARK  status: ('A' for Active; 'I' for Inactive)
REMARK    1  A    between atoms: N_1  and  C_2
REMARK    2  A    between atoms: C_2  and  C_3
REMARK    3  A    between atoms: C_6  and  C_7
REMARK    4  A    between atoms: C_7  and  N_8
REMARK    5  A    between atoms: C_10  and  C_11
REMARK    6  A    between atoms: C_17  and  C_18
REMARK                            x       y       z     vdW  Elec       q    Type
REMARK                         _______ _______ _______ _____ _____    ______ ____
ROOT
ATOM      1  N   UNL     1      47.796   6.816  12.744  0.00  0.00    +0.000 N 
ATOM      2  C   UNL     1      46.758   6.166  12.051  0.00  0.00    +0.000 C 
ATOM      3  C   UNL     1      46.239   5.166  12.785  0.00  0.00    +0.000 C 
ATOM      4  N   UNL     1      46.979   5.117  13.978  0.00  0.00    +0.000 N 
ATOM      5  C   UNL     1      46.805   4.329  15.077  0.00  0.00    +0.000 C 
ATOM      6  C   UNL     1      47.590   4.639  16.254  0.00  0.00    +0.000 C 
ATOM      7  C   UNL     1      48.475   5.655  16.152  0.00  0.00    +0.000 C 
ATOM      8  N   UNL     1      48.666   6.467  15.032  0.00  0.00    +0.000 NA
ATOM      9  C   UNL     1      47.922   6.171  14.004  0.00  0.00    +0.000 C 
ENDROOT
BRANCH   6  10
ATOM     10  C   UNL     1      47.328   3.819  17.482  0.00  0.00    +0.000 C 
ATOM     11  N   UNL     1      47.943   4.164  18.639  0.00  0.00    +0.000 N 
ATOM     12  O   UNL     1      46.544   2.872  17.473  0.00  0.00    +0.000 OA
ATOM     13  H   UNL     1      48.554   4.954  18.768  0.00  0.00    +0.000 HD
ATOM     14  H   UNL     1      47.695   3.621  19.459  0.00  0.00    +0.000 HD
ENDBRANCH   6  10
BRANCH   3  15
ATOM     15  C   UNL     1      44.967   4.450  12.489  0.00  0.00    +0.000 C 
ATOM     16  F   UNL     1      43.978   4.688  13.387  0.00  0.00    +0.000 F 
ATOM     17  F   UNL     1      44.469   4.828  11.278  0.00  0.00    +0.000 F 
ATOM     18  F   UNL     1      45.137   3.106  12.435  0.00  0.00    +0.000 F 
ENDBRANCH   3  15
BRANCH   1  19
ATOM     19  C   UNL     1      47.892   8.277  12.604  0.00  0.00    +0.000 C 
BRANCH  19  23
ATOM     20  C   UNL     1      51.392   9.889  12.810  0.00  0.00    +0.000 C 
ATOM     21  C   UNL     1      50.122  10.755  12.705  0.00  0.00    +0.000 C 
ATOM     22  C   UNL     1      49.124  10.339  11.616  0.00  0.00    +0.000 C 
ATOM     23  C   UNL     1      48.828   8.832  11.518  0.00  0.00    +0.000 C 
ATOM     24  C   UNL     1      50.154   8.042  11.554  0.00  0.00    +0.000 C 
ATOM     25  C   UNL     1      51.034   8.398  12.755  0.00  0.00    +0.000 C 
BRANCH  20  26
ATOM     26  C   UNL     1      52.483  10.227  11.771  0.00  0.00    +0.000 C 
BRANCH  26  27
ATOM     27  N   UNL     1      53.605   9.295  11.826  0.00  0.00    +0.000 NA
ATOM     28  H   UNL     1      53.817   9.082  12.801  0.00  0.00    +0.000 HD
ATOM     29  H   UNL     1      54.442   9.739  11.449  0.00  0.00    +0.000 HD
ENDBRANCH  26  27
ENDBRANCH  20  26
ENDBRANCH  19  23
ENDBRANCH   1  19
TORSDOF 6
ENDMDL
MODEL 4
REMARK VINA RESULT:    -5.836      5.615      8.404
REMARK INTER + INTRA:          -8.476
REMARK INTER:                  -7.793
REMARK INTRA:                  -0.683
REMARK UNBOUND:                -0.763
REMARK  Name = 
REMARK  6 active torsions:
REMARK  status: ('A' for Active; 'I' for Inactive)
REMARK    1  A    between atoms: N_1  and  C_2
REMARK    2  A    between atoms: C_2  and  C_3
REMARK    3  A    between atoms: C_6  and  C_7
REMARK    4  A    between atoms: C_7  and  N_8
REMARK    5  A    between atoms: C_10  and  C_11
REMARK    6  A    between atoms: C_17  and  C_18
REMARK                            x       y       z     vdW  Elec       q    Type
REMARK                         _______ _______ _______ _____ _____    ______ ____
ROOT
ATOM      1  N   UNL     1      47.903   6.788  14.087  0.00  0.00    +0.000 N 
ATOM      2  C   UNL     1      48.828   7.813  13.812  0.00  0.00    +0.000 C 
ATOM      3  C   UNL     1      49.839   7.801  14.698  0.00  0.00    +0.000 C 
ATOM      4  N   UNL     1      49.560   6.773  15.615  0.00  0.00    +0.000 N 
ATOM      5  C   UNL     1      50.307   6.312  16.658  0.00  0.00    +0.000 C 
ATOM      6  C   UNL     1      49.866   5.096  17.310  0.00  0.00    +0.000 C 
ATOM      7  C   UNL     1      48.716   4.542  16.865  0.00  0.00    +0.000 C 
ATOM      8  N   UNL     1      47.940   5.007  15.801  0.00  0.00    +0.000 NA
ATOM      9  C   UNL     1      48.385   6.088  15.226  0.00  0.00    +0.000 C 
ENDROOT
BRANCH   6  10
ATOM     10  C   UNL     1      50.742   4.552  18.399  0.00  0.00    +0.000 C 
ATOM     11  N   UNL     1      51.006   3.223  18.421  0.00  0.00    +0.000 N 
ATOM     12  O   UNL     1      51.253   5.285  19.244  0.00  0.00    +0.000 OA
ATOM     13  H   UNL     1      50.688   2.549  17.745  0.00  0.00    +0.000 HD
ATOM     14  H   UNL     1      51.648   2.905  19.138  0.00  0.00    +0.000 HD
ENDBRANCH   6  10
BRANCH   3  15
ATOM     15  C   UNL     1      51.117   8.552  14.558  0.00  0.00    +0.000 C 
ATOM     16  F   UNL     1      52.202   7.764  14.353  0.00  0.00    +0.000 F 
ATOM     17  F   UNL     1      51.066   9.400  13.492  0.00  0.00    +0.000 F 
ATOM     18  F   UNL     1      51.384   9.317  15.645  0.00  0.00    +0.000 F 
ENDBRANCH   3  15
BRANCH   1  19
ATOM     19  C   UNL     1      47.306   6.090  12.939  0.00  0.00    +0.000 C 
BRANCH  19  23
ATOM     20  C   UNL     1      44.882   3.713  11.103  0.00  0.00    +0.000 C 
ATOM     21  C   UNL     1      45.308   5.055  10.476  0.00  0.00    +0.000 C 
ATOM     22  C   UNL     1      45.221   6.277  11.402  0.00  0.00    +0.000 C 
ATOM     23  C   UNL     1      45.773   6.081  12.825  0.00  0.00    +0.000 C 
ATOM     24  C   UNL     1      45.239   4.754  13.408  0.00  0.00    +0.000 C 
ATOM     25  C   UNL     1      45.499   3.551  12.498  0.00  0.00    +0.000 C 
BRANCH  20  26
ATOM     26  C   UNL     1      43.356   3.487  11.151  0.00  0.00    +0.000 C 
BRANCH  26  27
ATOM     27  N   UNL     1      43.010   2.172  11.682  0.00  0.00    +0.000 NA
ATOM     28  H   UNL     1      43.851   1.727  12.051  0.00  0.00    +0.000 HD
ATOM     29  H   UNL     1      42.683   1.570  10.926  0.00  0.00    +0.000 HD
ENDBRANCH  26  27
ENDBRANCH  20  26
ENDBRANCH  19  23
ENDBRANCH   1  19
TORSDOF 6
ENDMDL
MODEL 5
REMARK VINA RESULT:    -5.708      3.014      4.053
REMARK INTER + INTRA:          -8.306
REMARK INTER:                  -7.731
REMARK INTRA:                  -0.575
REMARK UNBOUND:                -0.763
REMARK  Name = 
REMARK  6 active torsions:
REMARK  status: ('A' for Active; 'I' for Inactive)
REMARK    1  A    between atoms: N_1  and  C_2
REMARK    2  A    between atoms: C_2  and  C_3
REMARK    3  A    between atoms: C_6  and  C_7
REMARK    4  A    between atoms: C_7  and  N_8
REMARK    5  A    between atoms: C_10  and  C_11
REMARK    6  A    between atoms: C_17  and  C_18
REMARK                            x       y       z     vdW  Elec       q    Type
REMARK                         _______ _______ _______ _____ _____    ______ ____
ROOT
ATOM      1  N   UNL     1      47.305   7.074  12.512  0.00  0.00    +0.000 N 
ATOM      2  C   UNL     1      47.605   6.528  13.774  0.00  0.00    +0.000 C 
ATOM      3  C   UNL     1      46.952   5.368  13.965  0.00  0.00    +0.000 C 
ATOM      4  N   UNL     1      46.160   5.158  12.823  0.00  0.00    +0.000 N 
ATOM      5  C   UNL     1      45.369   4.097  12.496  0.00  0.00    +0.000 C 
ATOM      6  C   UNL     1      44.829   4.054  11.153  0.00  0.00    +0.000 C 
ATOM      7  C   UNL     1      45.111   5.099  10.343  0.00  0.00    +0.000 C 
ATOM      8  N   UNL     1      45.917   6.192  10.666  0.00  0.00    +0.000 NA
ATOM      9  C   UNL     1      46.403   6.181  11.875  0.00  0.00    +0.000 C 
ENDROOT
BRANCH   6  10
ATOM     10  C   UNL     1      44.031   2.841  10.780  0.00  0.00    +0.000 C 
ATOM     11  N   UNL     1      44.483   2.045   9.780  0.00  0.00    +0.000 N 
ATOM     12  O   UNL     1      43.004   2.532  11.380  0.00  0.00    +0.000 OA
ATOM     13  H   UNL     1      45.339   2.174   9.267  0.00  0.00    +0.000 HD
ATOM     14  H   UNL     1      43.946   1.204   9.597  0.00  0.00    +0.000 HD
ENDBRANCH   6  10
BRANCH   3  15
ATOM     15  C   UNL     1      47.233   4.389  15.051  0.00  0.00    +0.000 C 
ATOM     16  F   UNL     1      47.518   3.138  14.608  0.00  0.00    +0.000 F 
ATOM     17  F   UNL     1      48.313   4.778  15.786  0.00  0.00    +0.000 F 
ATOM     18  F   UNL     1      46.198   4.275  15.918  0.00  0.00    +0.000 F 
ENDBRANCH   3  15
BRANCH   1  19
ATOM     19  C   UNL     1      48.401   7.728  11.781  0.00  0.00    +0.000 C 
BRANCH  19  23
ATOM     20  C   UNL     1      51.027  10.357  10.739  0.00  0.00    +0.000 C 
ATOM     21  C   UNL     1      51.418   8.881  10.947  0.00  0.00    +0.000 C 
ATOM     22  C   UNL     1      50.905   8.236  12.242  0.00  0.00    +0.000 C 
ATOM     23  C   UNL     1      49.435   8.520  12.597  0.00  0.00    +0.000 C 
ATOM     24  C   UNL     1      49.147  10.028  12.436  0.00  0.00    +0.000 C 
ATOM     25  C   UNL     1      49.542  10.572  11.062  0.00  0.00    +0.000 C 
BRANCH  20  26
ATOM     26  C   UNL     1      51.904  11.364  11.513  0.00  0.00    +0.000 C 
BRANCH  26  27
ATOM     27  N   UNL     1      53.246  11.474  10.948  0.00  0.00    +0.000 NA
ATOM     28  H   UNL     1      53.462  12.458  10.786  0.00  0.00    +0.000 HD
ATOM     29  H   UNL     1      53.272  11.028  10.031  0.00  0.00    +0.000 HD
ENDBRANCH  26  27
ENDBRANCH  20  26
ENDBRANCH  19  23
ENDBRANCH   1  19
TORSDOF 6
ENDMDL
MODEL 6
REMARK VINA RESULT:    -5.591      5.663      8.062
REMARK INTER + INTRA:          -8.153
REMARK INTER:                  -7.523
REMARK INTRA:                  -0.630
REMARK UNBOUND:                -0.763
REMARK  Name = 
REMARK  6 active torsions:
REMARK  status: ('A' for Active; 'I' for Inactive)
REMARK    1  A    between atoms: N_1  and  C_2
REMARK    2  A    between atoms: C_2  and  C_3
REMARK    3  A    between atoms: C_6  and  C_7
REMARK    4  A    between atoms: C_7  and  N_8
REMARK    5  A    between atoms: C_10  and  C_11
REMARK    6  A    between atoms: C_17  and  C_18
REMARK                            x       y       z     vdW  Elec       q    Type
REMARK                         _______ _______ _______ _____ _____    ______ ____
ROOT
ATOM      1  N   UNL     1      47.123   4.954  14.363  0.00  0.00    +0.000 N 
ATOM      2  C   UNL     1      47.937   6.048  14.014  0.00  0.00    +0.000 C 
ATOM      3  C   UNL     1      48.716   6.418  15.046  0.00  0.00    +0.000 C 
ATOM      4  N   UNL     1      48.382   5.581  16.124  0.00  0.00    +0.000 N 
ATOM      5  C   UNL     1      48.932   5.506  17.369  0.00  0.00    +0.000 C 
ATOM      6  C   UNL     1      48.527   4.400  18.214  0.00  0.00    +0.000 C 
ATOM      7  C   UNL     1      47.592   3.559  17.718  0.00  0.00    +0.000 C 
ATOM      8  N   UNL     1      47.018   3.628  16.447  0.00  0.00    +0.000 NA
ATOM      9  C   UNL     1      47.428   4.621  15.710  0.00  0.00    +0.000 C 
ENDROOT
BRANCH   6  10
ATOM     10  C   UNL     1      49.202   4.280  19.546  0.00  0.00    +0.000 C 
ATOM     11  N   UNL     1      50.556   4.256  19.592  0.00  0.00    +0.000 N 
ATOM     12  O   UNL     1      48.562   4.242  20.596  0.00  0.00    +0.000 OA
ATOM     13  H   UNL     1      51.173   4.341  18.800  0.00  0.00    +0.000 HD
ATOM     14  H   UNL     1      50.975   4.232  20.515  0.00  0.00    +0.000 HD
ENDBRANCH   6  10
BRANCH   3  15
ATOM     15  C   UNL     1      49.878   7.345  14.959  0.00  0.00    +0.000 C 
ATOM     16  F   UNL     1      50.227   7.676  13.690  0.00  0.00    +0.000 F 
ATOM     17  F   UNL     1      49.607   8.521  15.591  0.00  0.00    +0.000 F 
ATOM     18  F   UNL     1      50.986   6.835  15.552  0.00  0.00    +0.000 F 
ENDBRANCH   3  15
BRANCH   1  19
ATOM     19  C   UNL     1      46.899   3.924  13.337  0.00  0.00    +0.000 C 
BRANCH  19  23
ATOM     20  C   UNL     1      44.392   6.259  11.562  0.00  0.00    +0.000 C 
ATOM     21  C   UNL     1      44.326   6.032  13.085  0.00  0.00    +0.000 C 
ATOM     22  C   UNL     1      44.391   4.568  13.540  0.00  0.00    +0.000 C 
ATOM     23  C   UNL     1      45.457   3.698  12.852  0.00  0.00    +0.000 C 
ATOM     24  C   UNL     1      45.406   3.927  11.326  0.00  0.00    +0.000 C 
ATOM     25  C   UNL     1      45.502   5.404  10.937  0.00  0.00    +0.000 C 
BRANCH  20  26
ATOM     26  C   UNL     1      43.053   6.039  10.826  0.00  0.00    +0.000 C 
BRANCH  26  27
ATOM     27  N   UNL     1      41.902   6.336  11.674  0.00  0.00    +0.000 NA
ATOM     28  H   UNL     1      42.187   6.296  12.653  0.00  0.00    +0.000 HD
ATOM     29  H   UNL     1      41.193   5.611  11.560  0.00  0.00    +0.000 HD
ENDBRANCH  26  27
ENDBRANCH  20  26
ENDBRANCH  19  23
ENDBRANCH   1  19
TORSDOF 6
ENDMDL
MODEL 7
REMARK VINA RESULT:    -5.517      4.492      6.062
REMARK INTER + INTRA:          -8.055
REMARK INTER:                  -7.361
REMARK INTRA:                  -0.694
REMARK UNBOUND:                -0.763
REMARK  Name = 
REMARK  6 active torsions:
REMARK  status: ('A' for Active; 'I' for Inactive)
REMARK    1  A    between atoms: N_1  and  C_2
REMARK    2  A    between atoms: C_2  and  C_3
REMARK    3  A    between atoms: C_6  and  C_7
REMARK    4  A    between atoms: C_7  and  N_8
REMARK    5  A    between atoms: C_10  and  C_11
REMARK    6  A    between atoms: C_17  and  C_18
REMARK                            x       y       z     vdW  Elec       q    Type
REMARK                         _______ _______ _______ _____ _____    ______ ____
ROOT
ATOM      1  N   UNL     1      48.522   6.949  13.324  0.00  0.00    +0.000 N 
ATOM      2  C   UNL     1      47.981   8.150  12.831  0.00  0.00    +0.000 C 
ATOM      3  C   UNL     1      46.698   7.986  12.463  0.00  0.00    +0.000 C 
ATOM      4  N   UNL     1      46.389   6.632  12.672  0.00  0.00    +0.000 N 
ATOM      5  C   UNL     1      45.202   5.977  12.520  0.00  0.00    +0.000 C 
ATOM      6  C   UNL     1      45.121   4.617  13.012  0.00  0.00    +0.000 C 
ATOM      7  C   UNL     1      46.248   4.085  13.535  0.00  0.00    +0.000 C 
ATOM      8  N   UNL     1      47.469   4.743  13.693  0.00  0.00    +0.000 NA
ATOM      9  C   UNL     1      47.493   5.972  13.261  0.00  0.00    +0.000 C 
ENDROOT
BRANCH   6  10
ATOM     10  C   UNL     1      43.788   3.938  12.917  0.00  0.00    +0.000 C 
ATOM     11  N   UNL     1      43.747   2.624  12.587  0.00  0.00    +0.000 N 
ATOM     12  O   UNL     1      42.740   4.531  13.167  0.00  0.00    +0.000 OA
ATOM     13  H   UNL     1      44.547   2.034  12.422  0.00  0.00    +0.000 HD
ATOM     14  H   UNL     1      42.832   2.188  12.590  0.00  0.00    +0.000 HD
ENDBRANCH   6  10
BRANCH   3  15
ATOM     15  C   UNL     1      45.741   9.086  12.156  0.00  0.00    +0.000 C 
ATOM     16  F   UNL     1      44.925   8.831  11.103  0.00  0.00    +0.000 F 
ATOM     17  F   UNL     1      44.919   9.321  13.217  0.00  0.00    +0.000 F 
ATOM     18  F   UNL     1      46.374  10.256  11.893  0.00  0.00    +0.000 F 
ENDBRANCH   3  15
BRANCH   1  19
ATOM     19  C   UNL     1      49.440   7.041  14.470  0.00  0.00    +0.000 C 
BRANCH  19  23
ATOM     20  C   UNL     1      51.013   6.723  17.980  0.00  0.00    +0.000 C 
ATOM     21  C   UNL     1      50.312   5.525  17.311  0.00  0.00    +0.000 C 
ATOM     22  C   UNL     1      48.932   5.818  16.704  0.00  0.00    +0.000 C 
ATOM     23  C   UNL     1      48.824   7.111  15.877  0.00  0.00    +0.000 C 
ATOM     24  C   UNL     1      49.481   8.275  16.650  0.00  0.00    +0.000 C 
ATOM     25  C   UNL     1      50.915   7.970  17.091  0.00  0.00    +0.000 C 
BRANCH  20  26
ATOM     26  C   UNL     1      50.521   7.032  19.410  0.00  0.00    +0.000 C 
BRANCH  26  27
ATOM     27  N   UNL     1      50.170   5.821  20.147  0.00  0.00    +0.000 NA
ATOM     28  H   UNL     1      49.340   5.402  19.727  0.00  0.00    +0.000 HD
ATOM     29  H   UNL     1      49.908   6.063  21.102  0.00  0.00    +0.000 HD
ENDBRANCH  26  27
ENDBRANCH  20  26
ENDBRANCH  19  23
ENDBRANCH   1  19
TORSDOF 6
ENDMDL
MODEL 8
REMARK VINA RESULT:    -5.453      6.501      8.377
REMARK INTER + INTRA:          -7.970
REMARK INTER:                  -7.288
REMARK INTRA:                  -0.682
REMARK UNBOUND:                -0.763
REMARK  Name = 
REMARK  6 active torsions:
REMARK  status: ('A' for Active; 'I' for Inactive)
REMARK    1  A    between atoms: N_1  and  C_2
REMARK    2  A    between atoms: C_2  and  C_3
REMARK    3  A    between atoms: C_6  and  C_7
REMARK    4  A    between atoms: C_7  and  N_8
REMARK    5  A    between atoms: C_10  and  C_11
REMARK    6  A    between atoms: C_17  and  C_18
REMARK                            x       y       z     vdW  Elec       q    Type
REMARK                         _______ _______ _______ _____ _____    ______ ____
ROOT
ATOM      1  N   UNL     1      47.840   4.973  16.542  0.00  0.00    +0.000 N 
ATOM      2  C   UNL     1      48.594   6.160  16.599  0.00  0.00    +0.000 C 
ATOM      3  C   UNL     1      49.869   5.907  16.943  0.00  0.00    +0.000 C 
ATOM      4  N   UNL     1      49.958   4.522  17.168  0.00  0.00    +0.000 N 
ATOM      5  C   UNL     1      51.046   3.759  17.470  0.00  0.00    +0.000 C 
ATOM      6  C   UNL     1      50.883   2.319  17.439  0.00  0.00    +0.000 C 
ATOM      7  C   UNL     1      49.646   1.847  17.165  0.00  0.00    +0.000 C 
ATOM      8  N   UNL     1      48.523   2.618  16.858  0.00  0.00    +0.000 NA
ATOM      9  C   UNL     1      48.718   3.906  16.871  0.00  0.00    +0.000 C 
ENDROOT
BRANCH   6  10
ATOM     10  C   UNL     1      52.106   1.491  17.689  0.00  0.00    +0.000 C 
ATOM     11  N   UNL     1      51.956   0.234  18.173  0.00  0.00    +0.000 N 
ATOM     12  O   UNL     1      53.234   1.908  17.431  0.00  0.00    +0.000 OA
ATOM     13  H   UNL     1      51.078  -0.223  18.360  0.00  0.00    +0.000 HD
ATOM     14  H   UNL     1      52.803  -0.314  18.273  0.00  0.00    +0.000 HD
ENDBRANCH   6  10
BRANCH   3  15
ATOM     15  C   UNL     1      50.999   6.871  16.836  0.00  0.00    +0.000 C 
ATOM     16  F   UNL     1      50.615   8.144  16.570  0.00  0.00    +0.000 F 
ATOM     17  F   UNL     1      51.698   6.928  18.005  0.00  0.00    +0.000 F 
ATOM     18  F   UNL     1      51.885   6.516  15.874  0.00  0.00    +0.000 F 
ENDBRANCH   3  15
BRANCH   1  19
ATOM     19  C   UNL     1      46.841   4.857  15.469  0.00  0.00    +0.000 C 
BRANCH  19  23
ATOM     20  C   UNL     1      45.092   5.324  12.061  0.00  0.00    +0.000 C 
ATOM     21  C   UNL     1      45.263   3.924  12.682  0.00  0.00    +0.000 C 
ATOM     22  C   UNL     1      46.669   3.597  13.205  0.00  0.00    +0.000 C 
ATOM     23  C   UNL     1      47.352   4.703  14.027  0.00  0.00    +0.000 C 
ATOM     24  C   UNL     1      47.201   6.057  13.300  0.00  0.00    +0.000 C 
ATOM     25  C   UNL     1      45.750   6.390  12.946  0.00  0.00    +0.000 C 
BRANCH  20  26
ATOM     26  C   UNL     1      45.590   5.440  10.605  0.00  0.00    +0.000 C 
BRANCH  26  27
ATOM     27  N   UNL     1      44.618   4.922   9.646  0.00  0.00    +0.000 NA
ATOM     28  H   UNL     1      44.729   3.910   9.569  0.00  0.00    +0.000 HD
ATOM     29  H   UNL     1      44.815   5.296   8.718  0.00  0.00    +0.000 HD
ENDBRANCH  26  27
ENDBRANCH  20  26
ENDBRANCH  19  23
ENDBRANCH   1  19
TORSDOF 6
ENDMDL
MODEL 9
REMARK VINA RESULT:    -5.327      3.824      5.691
REMARK INTER + INTRA:          -7.804
REMARK INTER:                  -7.332
REMARK INTRA:                  -0.471
REMARK UNBOUND:                -0.763
REMARK  Name = 
REMARK  6 active torsions:
REMARK  status: ('A' for Active; 'I' for Inactive)
REMARK    1  A    between atoms: N_1  and  C_2
REMARK    2  A    between atoms: C_2  and  C_3
REMARK    3  A    between atoms: C_6  and  C_7
REMARK    4  A    between atoms: C_7  and  N_8
REMARK    5  A    between atoms: C_10  and  C_11
REMARK    6  A    between atoms: C_17  and  C_18
REMARK                            x       y       z     vdW  Elec       q    Type
REMARK                         _______ _______ _______ _____ _____    ______ ____
ROOT
ATOM      1  N   UNL     1      47.603   6.873  12.136  0.00  0.00    +0.000 N 
ATOM      2  C   UNL     1      46.586   6.041  11.632  0.00  0.00    +0.000 C 
ATOM      3  C   UNL     1      46.232   5.110  12.536  0.00  0.00    +0.000 C 
ATOM      4  N   UNL     1      47.066   5.295  13.652  0.00  0.00    +0.000 N 
ATOM      5  C   UNL     1      47.062   4.655  14.856  0.00  0.00    +0.000 C 
ATOM      6  C   UNL     1      47.903   5.196  15.904  0.00  0.00    +0.000 C 
ATOM      7  C   UNL     1      48.667   6.265  15.588  0.00  0.00    +0.000 C 
ATOM      8  N   UNL     1      48.684   6.927  14.358  0.00  0.00    +0.000 NA
ATOM      9  C   UNL     1      47.895   6.424  13.451  0.00  0.00    +0.000 C 
ENDROOT
BRANCH   6  10
ATOM     10  C   UNL     1      47.825   4.535  17.248  0.00  0.00    +0.000 C 
ATOM     11  N   UNL     1      48.976   4.270  17.912  0.00  0.00    +0.000 N 
ATOM     12  O   UNL     1      46.747   4.265  17.775  0.00  0.00    +0.000 OA
ATOM     13  H   UNL     1      49.903   4.504  17.597  0.00  0.00    +0.000 HD
ATOM     14  H   UNL     1      48.878   3.877  18.841  0.00  0.00    +0.000 HD
ENDBRANCH   6  10
BRANCH   3  15
ATOM     15  C   UNL     1      45.021   4.247  12.457  0.00  0.00    +0.000 C 
ATOM     16  F   UNL     1      44.352   4.341  11.280  0.00  0.00    +0.000 F 
ATOM     17  F   UNL     1      45.353   2.933  12.593  0.00  0.00    +0.000 F 
ATOM     18  F   UNL     1      44.130   4.524  13.441  0.00  0.00    +0.000 F 
ENDBRANCH   3  15
BRANCH   1  19
ATOM     19  C   UNL     1      47.538   8.302  11.797  0.00  0.00    +0.000 C 
BRANCH  19  23
ATOM     20  C   UNL     1      44.503  10.493  10.857  0.00  0.00    +0.000 C 
ATOM     21  C   UNL     1      45.906  11.107  11.025  0.00  0.00    +0.000 C 
ATOM     22  C   UNL     1      46.663  10.696  12.295  0.00  0.00    +0.000 C 
ATOM     23  C   UNL     1      46.621   9.199  12.645  0.00  0.00    +0.000 C 
ATOM     24  C   UNL     1      45.171   8.680  12.527  0.00  0.00    +0.000 C 
ATOM     25  C   UNL     1      44.531   8.992  11.172  0.00  0.00    +0.000 C 
BRANCH  20  26
ATOM     26  C   UNL     1      43.396  11.200  11.667  0.00  0.00    +0.000 C 
BRANCH  26  27
ATOM     27  N   UNL     1      42.115  10.505  11.576  0.00  0.00    +0.000 NA
ATOM     28  H   UNL     1      42.249   9.523  11.821  0.00  0.00    +0.000 HD
ATOM     29  H   UNL     1      41.788  10.510  10.611  0.00  0.00    +0.000 HD
ENDBRANCH  26  27
ENDBRANCH  20  26
ENDBRANCH  19  23
ENDBRANCH   1  19
TORSDOF 6
ENDMDL
