MODEL 1
REMARK VINA RESULT:    -7.928      0.000      0.000
REMARK INTER + INTRA:         -10.391
REMARK INTER:                  -9.782
REMARK INTRA:                  -0.609
REMARK UNBOUND:                -0.609
REMARK  Name = 
REMARK  4 active torsions:
REMARK  status: ('A' for Active; 'I' for Inactive)
REMARK    1  A    between atoms: C_3  and  O_4
REMARK    2  A    between atoms: O_4  and  C_5
REMARK    3  A    between atoms: C_5  and  C_6
REMARK    4  A    between atoms: C_13  and  C_14
REMARK                            x       y       z     vdW  Elec       q    Type
REMARK                         _______ _______ _______ _____ _____    ______ ____
ROOT
ATOM      1  C   UNL     1      43.089   4.769  12.644  0.00  0.00    +0.000 A 
ATOM      2  C   UNL     1      43.067   4.087  11.429  0.00  0.00    +0.000 A 
ATOM      3  C   UNL     1      44.232   3.963  10.681  0.00  0.00    +0.000 A 
ATOM      4  C   UNL     1      45.401   4.587  11.126  0.00  0.00    +0.000 A 
ATOM      5  C   UNL     1      45.452   5.306  12.334  0.00  0.00    +0.000 A 
ATOM      6  C   UNL     1      44.276   5.361  13.099  0.00  0.00    +0.000 A 
ENDROOT
BRANCH   5   7
ATOM      7  C   UNL     1      46.696   5.977  12.739  0.00  0.00    +0.000 A 
ATOM      8  C   UNL     1      47.280   6.991  11.984  0.00  0.00    +0.000 A 
ATOM      9  N   UNL     1      48.426   7.638  12.296  0.00  0.00    +0.000 NA
ATOM     10  C   UNL     1      49.015   7.240  13.429  0.00  0.00    +0.000 A 
ATOM     11  N   UNL     1      48.567   6.285  14.253  0.00  0.00    +0.000 NA
ATOM     12  C   UNL     1      47.416   5.675  13.882  0.00  0.00    +0.000 A 
ENDBRANCH   5   7
BRANCH   3  13
ATOM     13  O   UNL     1      44.141   3.218   9.533  0.00  0.00    +0.000 OA
BRANCH  13  14
ATOM     14  C   UNL     1      44.763   3.809   8.389  0.00  0.00    +0.000 C 
BRANCH  14  15
ATOM     15  C   UNL     1      45.843   2.917   7.841  0.00  0.00    +0.000 A 
ATOM     16  C   UNL     1      45.959   1.579   8.227  0.00  0.00    +0.000 A 
ATOM     17  C   UNL     1      46.963   0.813   7.657  0.00  0.00    +0.000 A 
ATOM     18  N   UNL     1      47.834   1.277   6.734  0.00  0.00    +0.000 NA
ATOM     19  C   UNL     1      47.696   2.566   6.362  0.00  0.00    +0.000 A 
ATOM     20  C   UNL     1      46.725   3.411   6.873  0.00  0.00    +0.000 A 
ENDBRANCH  14  15
ENDBRANCH  13  14
ENDBRANCH   3  13
TORSDOF 4
ENDMDL
MODEL 2
REMARK VINA RESULT:    -7.329      1.580      2.344
REMARK INTER + INTRA:          -9.651
REMARK INTER:                  -9.067
REMARK INTRA:                  -0.584
REMARK UNBOUND:                -0.609
REMARK  Name = 
REMARK  4 active torsions:
REMARK  status: ('A' for Active; 'I' for Inactive)
REMARK    1  A    between atoms: C_3  and  O_4
REMARK    2  A    between atoms: O_4  and  C_5
REMARK    3  A    between atoms: C_5  and  C_6
REMARK    4  A    between atoms: C_13  and  C_14
REMARK                            x       y       z     vdW  Elec       q    Type
REMARK                         _______ _______ _______ _____ _____    ______ ____
ROOT
ATOM      1  C   UNL     1      44.856   4.105  13.182  0.00  0.00    +0.000 A 
ATOM      2  C   UNL     1      44.540   3.462  11.987  0.00  0.00    +0.000 A 
ATOM      3  C   UNL     1      44.687   4.132  10.778  0.00  0.00    +0.000 A 
ATOM      4  C   UNL     1      45.085   5.472  10.783  0.00  0.00    +0.000 A 
ATOM      5  C   UNL     1      45.386   6.159  11.972  0.00  0.00    +0.000 A 
ATOM      6  C   UNL     1      45.289   5.439  13.173  0.00  0.00    +0.000 A 
ENDROOT
BRANCH   5   7
ATOM      7  C   UNL     1      45.762   7.580  11.925  0.00  0.00    +0.000 A 
ATOM      8  C   UNL     1      47.066   8.017  12.142  0.00  0.00    +0.000 A 
ATOM      9  N   UNL     1      47.473   9.307  12.123  0.00  0.00    +0.000 NA
ATOM     10  C   UNL     1      46.513  10.203  11.873  0.00  0.00    +0.000 A 
ATOM     11  N   UNL     1      45.223   9.929  11.643  0.00  0.00    +0.000 NA
ATOM     12  C   UNL     1      44.881   8.619  11.678  0.00  0.00    +0.000 A 
ENDBRANCH   5   7
BRANCH   3  13
ATOM     13  O   UNL     1      44.422   3.407   9.645  0.00  0.00    +0.000 OA
BRANCH  13  14
ATOM     14  C   UNL     1      44.949   3.969   8.441  0.00  0.00    +0.000 C 
BRANCH  14  15
ATOM     15  C   UNL     1      45.927   3.029   7.790  0.00  0.00    +0.000 A 
ATOM     16  C   UNL     1      46.794   3.452   6.779  0.00  0.00    +0.000 A 
ATOM     17  C   UNL     1      47.685   2.535   6.248  0.00  0.00    +0.000 A 
ATOM     18  N   UNL     1      47.780   1.251   6.657  0.00  0.00    +0.000 NA
ATOM     19  C   UNL     1      46.947   0.866   7.646  0.00  0.00    +0.000 A 
ATOM     20  C   UNL     1      46.023   1.707   8.241  0.00  0.00    +0.000 A 
ENDBRANCH  14  15
ENDBRANCH  13  14
ENDBRANCH   3  13
TORSDOF 4
ENDMDL
MODEL 3
REMARK VINA RESULT:    -7.141      1.321      6.110
REMARK INTER + INTRA:          -9.420
REMARK INTER:                  -8.628
REMARK INTRA:                  -0.792
REMARK UNBOUND:                -0.609
REMARK  Name = 
REMARK  4 active torsions:
REMARK  status: ('A' for Active; 'I' for Inactive)
REMARK    1  A    between atoms: C_3  and  O_4
REMARK    2  A    between atoms: O_4  and  C_5
REMARK    3  A    between atoms: C_5  and  C_6
REMARK    4  A    between atoms: C_13  and  C_14
REMARK                            x       y       z     vdW  Elec       q    Type
REMARK                         _______ _______ _______ _____ _____    ______ ____
ROOT
ATOM      1  C   UNL     1      43.493   2.558  11.067  0.00  0.00    +0.000 A 
ATOM      2  C   UNL     1      43.435   3.902  11.429  0.00  0.00    +0.000 A 
ATOM      3  C   UNL     1      44.098   4.857  10.666  0.00  0.00    +0.000 A 
ATOM      4  C   UNL     1      44.877   4.444   9.582  0.00  0.00    +0.000 A 
ATOM      5  C   UNL     1      44.980   3.093   9.205  0.00  0.00    +0.000 A 
ATOM      6  C   UNL     1      44.248   2.159   9.955  0.00  0.00    +0.000 A 
ENDROOT
BRANCH   5   7
ATOM      7  C   UNL     1      45.844   2.707   8.078  0.00  0.00    +0.000 A 
ATOM      8  C   UNL     1      46.470   1.466   8.006  0.00  0.00    +0.000 A 
ATOM      9  N   UNL     1      47.284   1.057   7.005  0.00  0.00    +0.000 NA
ATOM     10  C   UNL     1      47.475   1.948   6.027  0.00  0.00    +0.000 A 
ATOM     11  N   UNL     1      46.936   3.172   5.962  0.00  0.00    +0.000 NA
ATOM     12  C   UNL     1      46.134   3.520   6.996  0.00  0.00    +0.000 A 
ENDBRANCH   5   7
BRANCH   3  13
ATOM     13  O   UNL     1      43.933   6.163  11.049  0.00  0.00    +0.000 OA
BRANCH  13  14
ATOM     14  C   UNL     1      44.227   6.422  12.424  0.00  0.00    +0.000 C 
BRANCH  14  15
ATOM     15  C   UNL     1      45.702   6.297  12.693  0.00  0.00    +0.000 A 
ATOM     16  C   UNL     1      46.213   5.328  13.559  0.00  0.00    +0.000 A 
ATOM     17  C   UNL     1      47.585   5.257  13.735  0.00  0.00    +0.000 A 
ATOM     18  N   UNL     1      48.469   6.063  13.106  0.00  0.00    +0.000 NA
ATOM     19  C   UNL     1      47.957   6.982  12.261  0.00  0.00    +0.000 A 
ATOM     20  C   UNL     1      46.603   7.130  12.018  0.00  0.00    +0.000 A 
ENDBRANCH  14  15
ENDBRANCH  13  14
ENDBRANCH   3  13
TORSDOF 4
ENDMDL
MODEL 4
REMARK VINA RESULT:    -7.059      1.295      2.017
REMARK INTER + INTRA:          -9.319
REMARK INTER:                  -8.687
REMARK INTRA:                  -0.632
REMARK UNBOUND:                -0.609
REMARK  Name = 
REMARK  4 active torsions:
REMARK  status: ('A' for Active; 'I' for Inactive)
REMARK    1  A    between atoms: C_3  and  O_4
REMARK    2  A    between atoms: O_4  and  C_5
REMARK    3  A    between atoms: C_5  and  C_6
REMARK    4  A    between atoms: C_13  and  C_14
REMARK                            x       y       z     vdW  Elec       q    Type
REMARK                         _______ _______ _______ _____ _____    ______ ____
ROOT
ATOM      1  C   UNL     1      45.164   4.256  12.825  0.00  0.00    +0.000 A 
ATOM      2  C   UNL     1      44.745   4.073  11.509  0.00  0.00    +0.000 A 
ATOM      3  C   UNL     1      45.243   4.891  10.501  0.00  0.00    +0.000 A 
ATOM      4  C   UNL     1      46.108   5.936  10.835  0.00  0.00    +0.000 A 
ATOM      5  C   UNL     1      46.530   6.167  12.157  0.00  0.00    +0.000 A 
ATOM      6  C   UNL     1      46.060   5.286  13.144  0.00  0.00    +0.000 A 
ENDROOT
BRANCH   5   7
ATOM      7  C   UNL     1      47.410   7.305  12.461  0.00  0.00    +0.000 A 
ATOM      8  C   UNL     1      47.290   8.055  13.627  0.00  0.00    +0.000 A 
ATOM      9  N   UNL     1      48.059   9.117  13.958  0.00  0.00    +0.000 NA
ATOM     10  C   UNL     1      49.000   9.440  13.064  0.00  0.00    +0.000 A 
ATOM     11  N   UNL     1      49.233   8.808  11.906  0.00  0.00    +0.000 NA
ATOM     12  C   UNL     1      48.426   7.755  11.634  0.00  0.00    +0.000 A 
ENDBRANCH   5   7
BRANCH   3  13
ATOM     13  O   UNL     1      44.836   4.600   9.225  0.00  0.00    +0.000 OA
BRANCH  13  14
ATOM     14  C   UNL     1      44.583   3.214   8.981  0.00  0.00    +0.000 C 
BRANCH  14  15
ATOM     15  C   UNL     1      45.708   2.590   8.202  0.00  0.00    +0.000 A 
ATOM     16  C   UNL     1      46.614   3.361   7.470  0.00  0.00    +0.000 A 
ATOM     17  C   UNL     1      47.640   2.715   6.801  0.00  0.00    +0.000 A 
ATOM     18  N   UNL     1      47.830   1.378   6.821  0.00  0.00    +0.000 NA
ATOM     19  C   UNL     1      46.955   0.651   7.547  0.00  0.00    +0.000 A 
ATOM     20  C   UNL     1      45.898   1.203   8.250  0.00  0.00    +0.000 A 
ENDBRANCH  14  15
ENDBRANCH  13  14
ENDBRANCH   3  13
TORSDOF 4
ENDMDL
MODEL 5
REMARK VINA RESULT:    -7.023      1.703      2.709
REMARK INTER + INTRA:          -9.274
REMARK INTER:                  -8.646
REMARK INTRA:                  -0.628
REMARK UNBOUND:                -0.609
REMARK  Name = 
REMARK  4 active torsions:
REMARK  status: ('A' for Active; 'I' for Inactive)
REMARK    1  A    between atoms: C_3  and  O_4
REMARK    2  A    between atoms: O_4  and  C_5
REMARK    3  A    between atoms: C_5  and  C_6
REMARK    4  A    between atoms: C_13  and  C_14
REMARK                            x       y       z     vdW  Elec       q    Type
REMARK                         _______ _______ _______ _____ _____    ______ ____
ROOT
ATOM      1  C   UNL     1      45.680   7.076  11.667  0.00  0.00    +0.000 A 
ATOM      2  C   UNL     1      45.134   6.083  10.855  0.00  0.00    +0.000 A 
ATOM      3  C   UNL     1      45.180   4.753  11.258  0.00  0.00    +0.000 A 
ATOM      4  C   UNL     1      45.841   4.421  12.444  0.00  0.00    +0.000 A 
ATOM      5  C   UNL     1      46.427   5.395  13.273  0.00  0.00    +0.000 A 
ATOM      6  C   UNL     1      46.309   6.735  12.873  0.00  0.00    +0.000 A 
ENDROOT
BRANCH   5   7
ATOM      7  C   UNL     1      47.144   4.988  14.492  0.00  0.00    +0.000 A 
ATOM      8  C   UNL     1      46.983   3.733  15.072  0.00  0.00    +0.000 A 
ATOM      9  N   UNL     1      47.603   3.305  16.195  0.00  0.00    +0.000 NA
ATOM     10  C   UNL     1      48.429   4.190  16.763  0.00  0.00    +0.000 A 
ATOM     11  N   UNL     1      48.684   5.426  16.315  0.00  0.00    +0.000 NA
ATOM     12  C   UNL     1      48.029   5.794  15.187  0.00  0.00    +0.000 A 
ENDBRANCH   5   7
BRANCH   3  13
ATOM     13  O   UNL     1      44.559   3.848  10.438  0.00  0.00    +0.000 OA
BRANCH  13  14
ATOM     14  C   UNL     1      44.617   4.168   9.045  0.00  0.00    +0.000 C 
BRANCH  14  15
ATOM     15  C   UNL     1      45.537   3.229   8.313  0.00  0.00    +0.000 A 
ATOM     16  C   UNL     1      46.408   3.679   7.318  0.00  0.00    +0.000 A 
ATOM     17  C   UNL     1      47.244   2.759   6.708  0.00  0.00    +0.000 A 
ATOM     18  N   UNL     1      47.282   1.447   7.027  0.00  0.00    +0.000 NA
ATOM     19  C   UNL     1      46.445   1.034   8.002  0.00  0.00    +0.000 A 
ATOM     20  C   UNL     1      45.573   1.876   8.670  0.00  0.00    +0.000 A 
ENDBRANCH  14  15
ENDBRANCH  13  14
ENDBRANCH   3  13
TORSDOF 4
ENDMDL
MODEL 6
REMARK VINA RESULT:    -6.262      1.773      6.237
REMARK INTER + INTRA:          -8.336
REMARK INTER:                  -7.683
REMARK INTRA:                  -0.652
REMARK UNBOUND:                -0.609
REMARK  Name = 
REMARK  4 active torsions:
REMARK  status: ('A' for Active; 'I' for Inactive)
REMARK    1  A    between atoms: C_3  and  O_4
REMARK    2  A    between atoms: O_4  and  C_5
REMARK    3  A    between atoms: C_5  and  C_6
REMARK    4  A    between atoms: C_13  and  C_14
REMARK                            x       y       z     vdW  Elec       q    Type
REMARK                         _______ _______ _______ _____ _____    ______ ____
ROOT
ATOM      1  C   UNL     1      43.346   3.600  12.376  0.00  0.00    +0.000 A 
ATOM      2  C   UNL     1      43.664   4.867  12.861  0.00  0.00    +0.000 A 
ATOM      3  C   UNL     1      44.485   5.709  12.118  0.00  0.00    +0.000 A 
ATOM      4  C   UNL     1      45.040   5.243  10.923  0.00  0.00    +0.000 A 
ATOM      5  C   UNL     1      44.761   3.960  10.418  0.00  0.00    +0.000 A 
ATOM      6  C   UNL     1      43.879   3.156  11.157  0.00  0.00    +0.000 A 
ENDROOT
BRANCH   5   7
ATOM      7  C   UNL     1      45.401   3.503   9.175  0.00  0.00    +0.000 A 
ATOM      8  C   UNL     1      45.815   4.383   8.179  0.00  0.00    +0.000 A 
ATOM      9  N   UNL     1      46.398   4.026   7.012  0.00  0.00    +0.000 NA
ATOM     10  C   UNL     1      46.571   2.711   6.841  0.00  0.00    +0.000 A 
ATOM     11  N   UNL     1      46.228   1.753   7.711  0.00  0.00    +0.000 NA
ATOM     12  C   UNL     1      45.647   2.178   8.859  0.00  0.00    +0.000 A 
ENDBRANCH   5   7
BRANCH   3  13
ATOM     13  O   UNL     1      44.693   6.963  12.631  0.00  0.00    +0.000 OA
BRANCH  13  14
ATOM     14  C   UNL     1      45.587   7.778  11.868  0.00  0.00    +0.000 C 
BRANCH  14  15
ATOM     15  C   UNL     1      46.958   7.800  12.486  0.00  0.00    +0.000 A 
ATOM     16  C   UNL     1      48.067   7.253  11.837  0.00  0.00    +0.000 A 
ATOM     17  C   UNL     1      49.303   7.337  12.458  0.00  0.00    +0.000 A 
ATOM     18  N   UNL     1      49.507   7.928  13.655  0.00  0.00    +0.000 NA
ATOM     19  C   UNL     1      48.426   8.464  14.259  0.00  0.00    +0.000 A 
ATOM     20  C   UNL     1      47.152   8.433  13.720  0.00  0.00    +0.000 A 
ENDBRANCH  14  15
ENDBRANCH  13  14
ENDBRANCH   3  13
TORSDOF 4
ENDMDL
MODEL 7
REMARK VINA RESULT:    -6.144      2.459      4.245
REMARK INTER + INTRA:          -8.189
REMARK INTER:                  -7.536
REMARK INTRA:                  -0.653
REMARK UNBOUND:                -0.609
REMARK  Name = 
REMARK  4 active torsions:
REMARK  status: ('A' for Active; 'I' for Inactive)
REMARK    1  A    between atoms: C_3  and  O_4
REMARK    2  A    between atoms: O_4  and  C_5
REMARK    3  A    between atoms: C_5  and  C_6
REMARK    4  A    between atoms: C_13  and  C_14
REMARK                            x       y       z     vdW  Elec       q    Type
REMARK                         _______ _______ _______ _____ _____    ______ ____
ROOT
ATOM      1  C   UNL     1      48.994   7.579  12.501  0.00  0.00    +0.000 A 
ATOM      2  C   UNL     1      47.931   7.448  11.609  0.00  0.00    +0.000 A 
ATOM      3  C   UNL     1      46.819   6.692  11.962  0.00  0.00    +0.000 A 
ATOM      4  C   UNL     1      46.812   6.013  13.183  0.00  0.00    +0.000 A 
ATOM      5  C   UNL     1      47.880   6.101  14.095  0.00  0.00    +0.000 A 
ATOM      6  C   UNL     1      48.961   6.922  13.740  0.00  0.00    +0.000 A 
ENDROOT
BRANCH   5   7
ATOM      7  C   UNL     1      47.840   5.335  15.350  0.00  0.00    +0.000 A 
ATOM      8  C   UNL     1      47.061   4.193  15.506  0.00  0.00    +0.000 A 
ATOM      9  N   UNL     1      46.973   3.453  16.635  0.00  0.00    +0.000 NA
ATOM     10  C   UNL     1      47.711   3.890  17.661  0.00  0.00    +0.000 A 
ATOM     11  N   UNL     1      48.508   4.966  17.653  0.00  0.00    +0.000 NA
ATOM     12  C   UNL     1      48.549   5.664  16.493  0.00  0.00    +0.000 A 
ENDBRANCH   5   7
BRANCH   3  13
ATOM     13  O   UNL     1      45.788   6.671  11.058  0.00  0.00    +0.000 OA
BRANCH  13  14
ATOM     14  C   UNL     1      44.857   5.600  11.241  0.00  0.00    +0.000 C 
BRANCH  14  15
ATOM     15  C   UNL     1      44.998   4.571  10.153  0.00  0.00    +0.000 A 
ATOM     16  C   UNL     1      45.658   4.852   8.955  0.00  0.00    +0.000 A 
ATOM     17  C   UNL     1      45.771   3.844   8.012  0.00  0.00    +0.000 A 
ATOM     18  N   UNL     1      45.293   2.592   8.184  0.00  0.00    +0.000 NA
ATOM     19  C   UNL     1      44.673   2.335   9.355  0.00  0.00    +0.000 A 
ATOM     20  C   UNL     1      44.511   3.275  10.359  0.00  0.00    +0.000 A 
ENDBRANCH  14  15
ENDBRANCH  13  14
ENDBRANCH   3  13
TORSDOF 4
ENDMDL
MODEL 8
REMARK VINA RESULT:    -6.024      3.862      7.473
REMARK INTER + INTRA:          -8.041
REMARK INTER:                  -7.429
REMARK INTRA:                  -0.613
REMARK UNBOUND:                -0.609
REMARK  Name = 
REMARK  4 active torsions:
REMARK  status: ('A' for Active; 'I' for Inactive)
REMARK    1  A    between atoms: C_3  and  O_4
REMARK    2  A    between atoms: O_4  and  C_5
REMARK    3  A    between atoms: C_5  and  C_6
REMARK    4  A    between atoms: C_13  and  C_14
REMARK                            x       y       z     vdW  Elec       q    Type
REMARK                         _______ _______ _______ _____ _____    ______ ____
ROOT
ATOM      1  C   UNL     1      46.979   8.144  12.147  0.00  0.00    +0.000 A 
ATOM      2  C   UNL     1      47.962   7.867  13.095  0.00  0.00    +0.000 A 
ATOM      3  C   UNL     1      48.064   6.590  13.636  0.00  0.00    +0.000 A 
ATOM      4  C   UNL     1      47.130   5.617  13.273  0.00  0.00    +0.000 A 
ATOM      5  C   UNL     1      46.108   5.871  12.340  0.00  0.00    +0.000 A 
ATOM      6  C   UNL     1      46.069   7.150  11.762  0.00  0.00    +0.000 A 
ENDROOT
BRANCH   5   7
ATOM      7  C   UNL     1      45.126   4.823  12.020  0.00  0.00    +0.000 A 
ATOM      8  C   UNL     1      44.664   3.916  12.969  0.00  0.00    +0.000 A 
ATOM      9  N   UNL     1      43.773   2.925  12.736  0.00  0.00    +0.000 NA
ATOM     10  C   UNL     1      43.324   2.847  11.479  0.00  0.00    +0.000 A 
ATOM     11  N   UNL     1      43.675   3.652  10.468  0.00  0.00    +0.000 NA
ATOM     12  C   UNL     1      44.573   4.621  10.768  0.00  0.00    +0.000 A 
ENDBRANCH   5   7
BRANCH   3  13
ATOM     13  O   UNL     1      49.101   6.380  14.509  0.00  0.00    +0.000 OA
BRANCH  13  14
ATOM     14  C   UNL     1      48.789   6.646  15.879  0.00  0.00    +0.000 C 
BRANCH  14  15
ATOM     15  C   UNL     1      48.719   5.371  16.673  0.00  0.00    +0.000 A 
ATOM     16  C   UNL     1      47.567   4.582  16.700  0.00  0.00    +0.000 A 
ATOM     17  C   UNL     1      47.588   3.407  17.433  0.00  0.00    +0.000 A 
ATOM     18  N   UNL     1      48.665   2.965  18.118  0.00  0.00    +0.000 NA
ATOM     19  C   UNL     1      49.774   3.732  18.067  0.00  0.00    +0.000 A 
ATOM     20  C   UNL     1      49.852   4.921  17.362  0.00  0.00    +0.000 A 
ENDBRANCH  14  15
ENDBRANCH  13  14
ENDBRANCH   3  13
TORSDOF 4
ENDMDL
MODEL 9
REMARK VINA RESULT:    -5.906      3.741      4.793
REMARK INTER + INTRA:          -7.896
REMARK INTER:                  -7.327
REMARK INTRA:                  -0.568
REMARK UNBOUND:                -0.609
REMARK  Name = 
REMARK  4 active torsions:
REMARK  status: ('A' for Active; 'I' for Inactive)
REMARK    1  A    between atoms: C_3  and  O_4
REMARK    2  A    between atoms: O_4  and  C_5
REMARK    3  A    between atoms: C_5  and  C_6
REMARK    4  A    between atoms: C_13  and  C_14
REMARK                            x       y       z     vdW  Elec       q    Type
REMARK                         _______ _______ _______ _____ _____    ______ ____
ROOT
ATOM      1  C   UNL     1      46.221   7.927  13.135  0.00  0.00    +0.000 A 
ATOM      2  C   UNL     1      46.033   6.581  12.824  0.00  0.00    +0.000 A 
ATOM      3  C   UNL     1      45.154   6.220  11.808  0.00  0.00    +0.000 A 
ATOM      4  C   UNL     1      44.415   7.212  11.158  0.00  0.00    +0.000 A 
ATOM      5  C   UNL     1      44.561   8.577  11.466  0.00  0.00    +0.000 A 
ATOM      6  C   UNL     1      45.501   8.917  12.451  0.00  0.00    +0.000 A 
ENDROOT
BRANCH   5   7
ATOM      7  C   UNL     1      43.730   9.578  10.779  0.00  0.00    +0.000 A 
ATOM      8  C   UNL     1      42.341   9.582  10.861  0.00  0.00    +0.000 A 
ATOM      9  N   UNL     1      41.523  10.467  10.246  0.00  0.00    +0.000 NA
ATOM     10  C   UNL     1      42.141  11.396   9.508  0.00  0.00    +0.000 A 
ATOM     11  N   UNL     1      43.464  11.516   9.343  0.00  0.00    +0.000 NA
ATOM     12  C   UNL     1      44.226  10.597   9.984  0.00  0.00    +0.000 A 
ENDBRANCH   5   7
BRANCH   3  13
ATOM     13  O   UNL     1      45.079   4.882  11.518  0.00  0.00    +0.000 OA
BRANCH  13  14
ATOM     14  C   UNL     1      44.239   4.561  10.406  0.00  0.00    +0.000 C 
BRANCH  14  15
ATOM     15  C   UNL     1      44.994   3.777   9.368  0.00  0.00    +0.000 A 
ATOM     16  C   UNL     1      45.707   4.406   8.344  0.00  0.00    +0.000 A 
ATOM     17  C   UNL     1      46.401   3.617   7.442  0.00  0.00    +0.000 A 
ATOM     18  N   UNL     1      46.443   2.268   7.497  0.00  0.00    +0.000 NA
ATOM     19  C   UNL     1      45.762   1.679   8.502  0.00  0.00    +0.000 A 
ATOM     20  C   UNL     1      45.040   2.380   9.452  0.00  0.00    +0.000 A 
ENDBRANCH  14  15
ENDBRANCH  13  14
ENDBRANCH   3  13
TORSDOF 4
ENDMDL
