MODEL 1
REMARK VINA RESULT:    -8.036      0.000      0.000
REMARK INTER + INTRA:         -11.947
REMARK INTER:                 -10.854
REMARK INTRA:                  -1.093
REMARK UNBOUND:                -1.093
REMARK  Name = 
REMARK  6 active torsions:
REMARK  status: ('A' for Active; 'I' for Inactive)
REMARK    1  A    between atoms: C_2  and  C_25
REMARK    2  A    between atoms: N_3  and  C_4
REMARK    3  A    between atoms: C_4  and  C_5
REMARK    4  A    between atoms: C_8  and  C_9
REMARK    5  A    between atoms: C_9  and  N_10
REMARK    6  A    between atoms: C_11  and  C_13
REMARK                            x       y       z     vdW  Elec       q    Type
REMARK                         _______ _______ _______ _____ _____    ______ ____
ROOT
ATOM      1  C   UNL     1      44.863   5.607  10.777  0.00  0.00    +0.000 A 
ATOM      2  C   UNL     1      44.252   6.029  11.961  0.00  0.00    +0.000 A 
ATOM      3  C   UNL     1      44.946   6.856  12.839  0.00  0.00    +0.000 A 
ATOM      4  C   UNL     1      46.241   7.245  12.518  0.00  0.00    +0.000 A 
ATOM      5  N   UNL     1      46.839   6.883  11.353  0.00  0.00    +0.000 NA
ATOM      6  C   UNL     1      46.141   6.080  10.517  0.00  0.00    +0.000 A 
ENDROOT
BRANCH   1   7
ATOM      7  C   UNL     1      44.173   4.665   9.838  0.00  0.00    +0.000 C 
BRANCH   7  10
ATOM      8  O   UNL     1      45.216   2.154   9.579  0.00  0.00    +0.000 OA
ATOM      9  C   UNL     1      45.489   2.955   8.690  0.00  0.00    +0.000 C 
ATOM     10  N   UNL     1      45.015   4.253   8.740  0.00  0.00    +0.000 N 
ATOM     11  H   UNL     1      45.178   4.885   7.968  0.00  0.00    +0.000 HD
BRANCH   9  12
ATOM     12  C   UNL     1      46.307   2.593   7.552  0.00  0.00    +0.000 A 
ATOM     13  C   UNL     1      46.539   3.332   6.406  0.00  0.00    +0.000 A 
ATOM     14  C   UNL     1      47.375   2.613   5.508  0.00  0.00    +0.000 A 
ATOM     15  N   UNL     1      47.782   1.410   5.905  0.00  0.00    +0.000 NA
ATOM     16  S   UNL     1      47.145   1.114   7.407  0.00  0.00    +0.000 S 
ENDBRANCH   9  12
ENDBRANCH   7  10
ENDBRANCH   1   7
BRANCH   4  17
ATOM     17  C   UNL     1      47.037   8.104  13.470  0.00  0.00    +0.000 C 
BRANCH  17  18
ATOM     18  N   UNL     1      47.497   7.366  14.621  0.00  0.00    +0.000 N 
ATOM     19  C   UNL     1      48.761   6.854  14.722  0.00  0.00    +0.000 C 
ATOM     20  O   UNL     1      49.596   6.988  13.830  0.00  0.00    +0.000 OA
ATOM     21  H   UNL     1      46.766   7.031  15.241  0.00  0.00    +0.000 HD
BRANCH  19  22
ATOM     22  C   UNL     1      49.092   6.194  15.991  0.00  0.00    +0.000 A 
ATOM     23  C   UNL     1      50.125   6.683  16.779  0.00  0.00    +0.000 A 
ATOM     24  S   UNL     1      50.347   5.815  18.231  0.00  0.00    +0.000 S 
ATOM     25  C   UNL     1      49.098   4.730  17.837  0.00  0.00    +0.000 A 
ATOM     26  N   UNL     1      48.784   3.693  18.663  0.00  0.00    +0.000 NA
ATOM     27  C   UNL     1      47.836   2.933  18.226  0.00  0.00    +0.000 A 
ATOM     28  N   UNL     1      47.166   3.121  17.044  0.00  0.00    +0.000 N 
ATOM     29  C   UNL     1      47.417   4.177  16.204  0.00  0.00    +0.000 A 
ATOM     30  O   UNL     1      46.735   4.367  15.203  0.00  0.00    +0.000 OA
ATOM     31  C   UNL     1      48.500   5.043  16.630  0.00  0.00    +0.000 A 
ATOM     32  H   UNL     1      46.415   2.505  16.771  0.00  0.00    +0.000 HD
ENDBRANCH  19  22
ENDBRANCH  17  18
ENDBRANCH   4  17
TORSDOF 6
ENDMDL
MODEL 2
REMARK VINA RESULT:    -7.565      2.227      3.686
REMARK INTER + INTRA:         -11.312
REMARK INTER:                 -10.380
REMARK INTRA:                  -0.931
REMARK UNBOUND:                -1.093
REMARK  Name = 
REMARK  6 active torsions:
REMARK  status: ('A' for Active; 'I' for Inactive)
REMARK    1  A    between atoms: C_2  and  C_25
REMARK    2  A    between atoms: N_3  and  C_4
REMARK    3  A    between atoms: C_4  and  C_5
REMARK    4  A    between atoms: C_8  and  C_9
REMARK    5  A    between atoms: C_9  and  N_10
REMARK    6  A    between atoms: C_11  and  C_13
REMARK                            x       y       z     vdW  Elec       q    Type
REMARK                         _______ _______ _______ _____ _____    ______ ____
ROOT
ATOM      1  C   UNL     1      44.761   4.322  11.327  0.00  0.00    +0.000 A 
ATOM      2  C   UNL     1      45.023   5.583  11.868  0.00  0.00    +0.000 A 
ATOM      3  C   UNL     1      45.696   5.689  13.083  0.00  0.00    +0.000 A 
ATOM      4  C   UNL     1      46.091   4.527  13.736  0.00  0.00    +0.000 A 
ATOM      5  N   UNL     1      45.886   3.293  13.210  0.00  0.00    +0.000 NA
ATOM      6  C   UNL     1      45.232   3.219  12.027  0.00  0.00    +0.000 A 
ENDROOT
BRANCH   1   7
ATOM      7  C   UNL     1      43.984   4.166  10.057  0.00  0.00    +0.000 C 
BRANCH   7  10
ATOM      8  O   UNL     1      45.965   5.152   8.455  0.00  0.00    +0.000 OA
ATOM      9  C   UNL     1      45.679   3.968   8.306  0.00  0.00    +0.000 C 
ATOM     10  N   UNL     1      44.683   3.382   9.066  0.00  0.00    +0.000 N 
ATOM     11  H   UNL     1      44.505   2.389   8.994  0.00  0.00    +0.000 HD
BRANCH   9  12
ATOM     12  C   UNL     1      46.362   3.126   7.348  0.00  0.00    +0.000 A 
ATOM     13  C   UNL     1      46.781   3.460   6.072  0.00  0.00    +0.000 A 
ATOM     14  C   UNL     1      47.386   2.342   5.435  0.00  0.00    +0.000 A 
ATOM     15  N   UNL     1      47.452   1.217   6.140  0.00  0.00    +0.000 NA
ATOM     16  S   UNL     1      46.765   1.491   7.625  0.00  0.00    +0.000 S 
ENDBRANCH   9  12
ENDBRANCH   7  10
ENDBRANCH   1   7
BRANCH   4  17
ATOM     17  C   UNL     1      46.782   4.606  15.076  0.00  0.00    +0.000 C 
BRANCH  17  18
ATOM     18  N   UNL     1      47.598   5.789  15.204  0.00  0.00    +0.000 N 
ATOM     19  C   UNL     1      48.716   5.842  15.991  0.00  0.00    +0.000 C 
ATOM     20  O   UNL     1      49.102   4.878  16.648  0.00  0.00    +0.000 OA
ATOM     21  H   UNL     1      47.167   6.650  14.882  0.00  0.00    +0.000 HD
BRANCH  19  22
ATOM     22  C   UNL     1      49.475   7.098  15.950  0.00  0.00    +0.000 A 
ATOM     23  C   UNL     1      49.844   7.724  17.134  0.00  0.00    +0.000 A 
ATOM     24  S   UNL     1      50.748   9.152  16.898  0.00  0.00    +0.000 S 
ATOM     25  C   UNL     1      50.641   9.006  15.206  0.00  0.00    +0.000 A 
ATOM     26  N   UNL     1      51.191   9.943  14.386  0.00  0.00    +0.000 NA
ATOM     27  C   UNL     1      51.010   9.721  13.127  0.00  0.00    +0.000 A 
ATOM     28  N   UNL     1      50.338   8.641  12.614  0.00  0.00    +0.000 N 
ATOM     29  C   UNL     1      49.809   7.649  13.400  0.00  0.00    +0.000 A 
ATOM     30  O   UNL     1      49.298   6.650  12.903  0.00  0.00    +0.000 OA
ATOM     31  C   UNL     1      49.953   7.868  14.826  0.00  0.00    +0.000 A 
ATOM     32  H   UNL     1      50.253   8.510  11.616  0.00  0.00    +0.000 HD
ENDBRANCH  19  22
ENDBRANCH  17  18
ENDBRANCH   4  17
TORSDOF 6
ENDMDL
MODEL 3
REMARK VINA RESULT:    -7.342      2.488      2.929
REMARK INTER + INTRA:         -11.011
REMARK INTER:                 -10.087
REMARK INTRA:                  -0.924
REMARK UNBOUND:                -1.093
REMARK  Name = 
REMARK  6 active torsions:
REMARK  status: ('A' for Active; 'I' for Inactive)
REMARK    1  A    between atoms: C_2  and  C_25
REMARK    2  A    between atoms: N_3  and  C_4
REMARK    3  A    between atoms: C_4  and  C_5
REMARK    4  A    between atoms: C_8  and  C_9
REMARK    5  A    between atoms: C_9  and  N_10
REMARK    6  A    between atoms: C_11  and  C_13
REMARK                            x       y       z     vdW  Elec       q    Type
REMARK                         _______ _______ _______ _____ _____    ______ ____
ROOT
ATOM      1  C   UNL     1      45.241   5.251  11.595  0.00  0.00    +0.000 A 
ATOM      2  C   UNL     1      45.762   4.553  12.688  0.00  0.00    +0.000 A 
ATOM      3  C   UNL     1      46.699   5.164  13.516  0.00  0.00    +0.000 A 
ATOM      4  C   UNL     1      47.101   6.464  13.233  0.00  0.00    +0.000 A 
ATOM      5  N   UNL     1      46.578   7.177  12.203  0.00  0.00    +0.000 NA
ATOM      6  C   UNL     1      45.667   6.560  11.415  0.00  0.00    +0.000 A 
ENDROOT
BRANCH   1   7
ATOM      7  C   UNL     1      44.280   4.605  10.646  0.00  0.00    +0.000 C 
BRANCH   7  10
ATOM      8  O   UNL     1      45.631   4.944   8.295  0.00  0.00    +0.000 OA
ATOM      9  C   UNL     1      45.547   3.795   8.719  0.00  0.00    +0.000 C 
ATOM     10  N   UNL     1      44.875   3.524   9.896  0.00  0.00    +0.000 N 
ATOM     11  H   UNL     1      44.876   2.588  10.280  0.00  0.00    +0.000 HD
BRANCH   9  12
ATOM     12  C   UNL     1      46.145   2.674   8.025  0.00  0.00    +0.000 A 
ATOM     13  C   UNL     1      46.057   1.332   8.349  0.00  0.00    +0.000 A 
ATOM     14  C   UNL     1      46.811   0.546   7.436  0.00  0.00    +0.000 A 
ATOM     15  N   UNL     1      47.440   1.200   6.463  0.00  0.00    +0.000 NA
ATOM     16  S   UNL     1      47.127   2.819   6.637  0.00  0.00    +0.000 S 
ENDBRANCH   9  12
ENDBRANCH   7  10
ENDBRANCH   1   7
BRANCH   4  17
ATOM     17  C   UNL     1      48.149   7.139  14.085  0.00  0.00    +0.000 C 
BRANCH  17  18
ATOM     18  N   UNL     1      48.000   6.829  15.486  0.00  0.00    +0.000 N 
ATOM     19  C   UNL     1      49.040   6.418  16.273  0.00  0.00    +0.000 C 
ATOM     20  O   UNL     1      50.181   6.283  15.835  0.00  0.00    +0.000 OA
ATOM     21  H   UNL     1      47.044   6.690  15.800  0.00  0.00    +0.000 HD
BRANCH  19  22
ATOM     22  C   UNL     1      48.734   6.216  17.695  0.00  0.00    +0.000 A 
ATOM     23  C   UNL     1      48.946   4.975  18.281  0.00  0.00    +0.000 A 
ATOM     24  S   UNL     1      48.567   4.931  19.944  0.00  0.00    +0.000 S 
ATOM     25  C   UNL     1      48.067   6.557  19.929  0.00  0.00    +0.000 A 
ATOM     26  N   UNL     1      47.583   7.152  21.054  0.00  0.00    +0.000 NA
ATOM     27  C   UNL     1      47.214   8.378  20.892  0.00  0.00    +0.000 A 
ATOM     28  N   UNL     1      47.296   9.068  19.708  0.00  0.00    +0.000 N 
ATOM     29  C   UNL     1      47.819   8.524  18.563  0.00  0.00    +0.000 A 
ATOM     30  O   UNL     1      47.963   9.199  17.549  0.00  0.00    +0.000 OA
ATOM     31  C   UNL     1      48.215   7.134  18.681  0.00  0.00    +0.000 A 
ATOM     32  H   UNL     1      47.015  10.036  19.653  0.00  0.00    +0.000 HD
ENDBRANCH  19  22
ENDBRANCH  17  18
ENDBRANCH   4  17
TORSDOF 6
ENDMDL
MODEL 4
REMARK VINA RESULT:    -7.222      2.407      3.251
REMARK INTER + INTRA:         -10.848
REMARK INTER:                 -10.158
REMARK INTRA:                  -0.690
REMARK UNBOUND:                -1.093
REMARK  Name = 
REMARK  6 active torsions:
REMARK  status: ('A' for Active; 'I' for Inactive)
REMARK    1  A    between atoms: C_2  and  C_25
REMARK    2  A    between atoms: N_3  and  C_4
REMARK    3  A    between atoms: C_4  and  C_5
REMARK    4  A    between atoms: C_8  and  C_9
REMARK    5  A    between atoms: C_9  and  N_10
REMARK    6  A    between atoms: C_11  and  C_13
REMARK                            x       y       z     vdW  Elec       q    Type
REMARK                         _______ _______ _______ _____ _____    ______ ____
ROOT
ATOM      1  C   UNL     1      45.202   4.588  11.272  0.00  0.00    +0.000 A 
ATOM      2  C   UNL     1      45.752   5.750  11.819  0.00  0.00    +0.000 A 
ATOM      3  C   UNL     1      46.302   5.720  13.098  0.00  0.00    +0.000 A 
ATOM      4  C   UNL     1      46.287   4.526  13.809  0.00  0.00    +0.000 A 
ATOM      5  N   UNL     1      45.797   3.374  13.282  0.00  0.00    +0.000 NA
ATOM      6  C   UNL     1      45.271   3.431  12.037  0.00  0.00    +0.000 A 
ENDROOT
BRANCH   1   7
ATOM      7  C   UNL     1      44.545   4.597   9.927  0.00  0.00    +0.000 C 
BRANCH   7  10
ATOM      8  O   UNL     1      44.758   2.067   8.917  0.00  0.00    +0.000 OA
ATOM      9  C   UNL     1      45.478   2.923   8.410  0.00  0.00    +0.000 C 
ATOM     10  N   UNL     1      45.446   4.229   8.861  0.00  0.00    +0.000 N 
ATOM     11  H   UNL     1      45.984   4.944   8.389  0.00  0.00    +0.000 HD
BRANCH   9  12
ATOM     12  C   UNL     1      46.383   2.620   7.322  0.00  0.00    +0.000 A 
ATOM     13  C   UNL     1      46.609   3.361   6.176  0.00  0.00    +0.000 A 
ATOM     14  C   UNL     1      47.552   2.708   5.336  0.00  0.00    +0.000 A 
ATOM     15  N   UNL     1      48.042   1.552   5.773  0.00  0.00    +0.000 NA
ATOM     16  S   UNL     1      47.355   1.219   7.246  0.00  0.00    +0.000 S 
ENDBRANCH   9  12
ENDBRANCH   7  10
ENDBRANCH   1   7
BRANCH   4  17
ATOM     17  C   UNL     1      46.834   4.470  15.215  0.00  0.00    +0.000 C 
BRANCH  17  18
ATOM     18  N   UNL     1      47.820   5.495  15.460  0.00  0.00    +0.000 N 
ATOM     19  C   UNL     1      48.350   5.737  16.698  0.00  0.00    +0.000 C 
ATOM     20  O   UNL     1      48.019   5.093  17.691  0.00  0.00    +0.000 OA
ATOM     21  H   UNL     1      47.916   6.189  14.726  0.00  0.00    +0.000 HD
BRANCH  19  22
ATOM     22  C   UNL     1      49.398   6.765  16.762  0.00  0.00    +0.000 A 
ATOM     23  C   UNL     1      49.059   8.107  16.656  0.00  0.00    +0.000 A 
ATOM     24  S   UNL     1      50.395   9.161  16.784  0.00  0.00    +0.000 S 
ATOM     25  C   UNL     1      51.477   7.857  16.943  0.00  0.00    +0.000 A 
ATOM     26  N   UNL     1      52.817   8.069  17.061  0.00  0.00    +0.000 NA
ATOM     27  C   UNL     1      53.521   6.990  17.145  0.00  0.00    +0.000 A 
ATOM     28  N   UNL     1      53.006   5.719  17.132  0.00  0.00    +0.000 N 
ATOM     29  C   UNL     1      51.661   5.460  17.062  0.00  0.00    +0.000 A 
ATOM     30  O   UNL     1      51.230   4.314  17.149  0.00  0.00    +0.000 OA
ATOM     31  C   UNL     1      50.826   6.637  16.929  0.00  0.00    +0.000 A 
ATOM     32  H   UNL     1      53.610   4.915  17.229  0.00  0.00    +0.000 HD
ENDBRANCH  19  22
ENDBRANCH  17  18
ENDBRANCH   4  17
TORSDOF 6
ENDMDL
MODEL 5
REMARK VINA RESULT:    -7.120      2.191      2.439
REMARK INTER + INTRA:         -10.710
REMARK INTER:                  -9.863
REMARK INTRA:                  -0.847
REMARK UNBOUND:                -1.093
REMARK  Name = 
REMARK  6 active torsions:
REMARK  status: ('A' for Active; 'I' for Inactive)
REMARK    1  A    between atoms: C_2  and  C_25
REMARK    2  A    between atoms: N_3  and  C_4
REMARK    3  A    between atoms: C_4  and  C_5
REMARK    4  A    between atoms: C_8  and  C_9
REMARK    5  A    between atoms: C_9  and  N_10
REMARK    6  A    between atoms: C_11  and  C_13
REMARK                            x       y       z     vdW  Elec       q    Type
REMARK                         _______ _______ _______ _____ _____    ______ ____
ROOT
ATOM      1  C   UNL     1      45.667   4.356  12.373  0.00  0.00    +0.000 A 
ATOM      2  C   UNL     1      45.550   5.735  12.176  0.00  0.00    +0.000 A 
ATOM      3  C   UNL     1      46.316   6.610  12.941  0.00  0.00    +0.000 A 
ATOM      4  C   UNL     1      47.185   6.089  13.893  0.00  0.00    +0.000 A 
ATOM      5  N   UNL     1      47.347   4.753  14.072  0.00  0.00    +0.000 NA
ATOM      6  C   UNL     1      46.592   3.925  13.314  0.00  0.00    +0.000 A 
ENDROOT
BRANCH   1   7
ATOM      7  C   UNL     1      44.814   3.386  11.616  0.00  0.00    +0.000 C 
BRANCH   7  10
ATOM      8  O   UNL     1      44.324   4.193   9.052  0.00  0.00    +0.000 OA
ATOM      9  C   UNL     1      45.172   3.317   9.199  0.00  0.00    +0.000 C 
ATOM     10  N   UNL     1      45.481   2.838  10.459  0.00  0.00    +0.000 N 
ATOM     11  H   UNL     1      46.234   2.174  10.581  0.00  0.00    +0.000 HD
BRANCH   9  12
ATOM     12  C   UNL     1      45.892   2.747   8.080  0.00  0.00    +0.000 A 
ATOM     13  C   UNL     1      46.287   3.381   6.916  0.00  0.00    +0.000 A 
ATOM     14  C   UNL     1      46.945   2.467   6.047  0.00  0.00    +0.000 A 
ATOM     15  N   UNL     1      47.071   1.217   6.481  0.00  0.00    +0.000 NA
ATOM     16  S   UNL     1      46.379   1.114   7.985  0.00  0.00    +0.000 S 
ENDBRANCH   9  12
ENDBRANCH   7  10
ENDBRANCH   1   7
BRANCH   4  17
ATOM     17  C   UNL     1      47.996   7.012  14.769  0.00  0.00    +0.000 C 
BRANCH  17  18
ATOM     18  N   UNL     1      49.101   6.335  15.403  0.00  0.00    +0.000 N 
ATOM     19  C   UNL     1      49.078   5.933  16.711  0.00  0.00    +0.000 C 
ATOM     20  O   UNL     1      48.106   6.125  17.439  0.00  0.00    +0.000 OA
ATOM     21  H   UNL     1      49.986   6.394  14.910  0.00  0.00    +0.000 HD
BRANCH  19  22
ATOM     22  C   UNL     1      50.255   5.191  17.180  0.00  0.00    +0.000 A 
ATOM     23  C   UNL     1      51.364   5.878  17.655  0.00  0.00    +0.000 A 
ATOM     24  S   UNL     1      52.624   4.857  18.187  0.00  0.00    +0.000 S 
ATOM     25  C   UNL     1      51.747   3.462  17.761  0.00  0.00    +0.000 A 
ATOM     26  N   UNL     1      52.279   2.221  17.930  0.00  0.00    +0.000 NA
ATOM     27  C   UNL     1      51.516   1.256  17.538  0.00  0.00    +0.000 A 
ATOM     28  N   UNL     1      50.264   1.420  17.002  0.00  0.00    +0.000 N 
ATOM     29  C   UNL     1      49.670   2.647  16.857  0.00  0.00    +0.000 A 
ATOM     30  O   UNL     1      48.512   2.749  16.463  0.00  0.00    +0.000 OA
ATOM     31  C   UNL     1      50.499   3.770  17.249  0.00  0.00    +0.000 A 
ATOM     32  H   UNL     1      49.705   0.621  16.739  0.00  0.00    +0.000 HD
ENDBRANCH  19  22
ENDBRANCH  17  18
ENDBRANCH   4  17
TORSDOF 6
ENDMDL
MODEL 6
REMARK VINA RESULT:    -6.603      1.423      2.222
REMARK INTER + INTRA:         -10.011
REMARK INTER:                  -9.269
REMARK INTRA:                  -0.743
REMARK UNBOUND:                -1.093
REMARK  Name = 
REMARK  6 active torsions:
REMARK  status: ('A' for Active; 'I' for Inactive)
REMARK    1  A    between atoms: C_2  and  C_25
REMARK    2  A    between atoms: N_3  and  C_4
REMARK    3  A    between atoms: C_4  and  C_5
REMARK    4  A    between atoms: C_8  and  C_9
REMARK    5  A    between atoms: C_9  and  N_10
REMARK    6  A    between atoms: C_11  and  C_13
REMARK                            x       y       z     vdW  Elec       q    Type
REMARK                         _______ _______ _______ _____ _____    ______ ____
ROOT
ATOM      1  C   UNL     1      44.790   5.377  10.610  0.00  0.00    +0.000 A 
ATOM      2  C   UNL     1      44.216   5.676  11.848  0.00  0.00    +0.000 A 
ATOM      3  C   UNL     1      44.877   6.528  12.729  0.00  0.00    +0.000 A 
ATOM      4  C   UNL     1      46.104   7.064  12.354  0.00  0.00    +0.000 A 
ATOM      5  N   UNL     1      46.660   6.821  11.139  0.00  0.00    +0.000 NA
ATOM      6  C   UNL     1      45.996   5.991  10.302  0.00  0.00    +0.000 A 
ENDROOT
BRANCH   1   7
ATOM      7  C   UNL     1      44.140   4.415   9.664  0.00  0.00    +0.000 C 
BRANCH   7  10
ATOM      8  O   UNL     1      45.553   2.086   9.453  0.00  0.00    +0.000 OA
ATOM      9  C   UNL     1      45.652   2.874   8.517  0.00  0.00    +0.000 C 
ATOM     10  N   UNL     1      44.981   4.083   8.538  0.00  0.00    +0.000 N 
ATOM     11  H   UNL     1      45.004   4.693   7.732  0.00  0.00    +0.000 HD
BRANCH   9  12
ATOM     12  C   UNL     1      46.459   2.586   7.350  0.00  0.00    +0.000 A 
ATOM     13  C   UNL     1      46.610   3.358   6.213  0.00  0.00    +0.000 A 
ATOM     14  C   UNL     1      47.466   2.711   5.279  0.00  0.00    +0.000 A 
ATOM     15  N   UNL     1      47.961   1.531   5.641  0.00  0.00    +0.000 NA
ATOM     16  S   UNL     1      47.387   1.167   7.155  0.00  0.00    +0.000 S 
ENDBRANCH   9  12
ENDBRANCH   7  10
ENDBRANCH   1   7
BRANCH   4  17
ATOM     17  C   UNL     1      46.868   7.955  13.303  0.00  0.00    +0.000 C 
BRANCH  17  18
ATOM     18  N   UNL     1      47.274   7.260  14.500  0.00  0.00    +0.000 N 
ATOM     19  C   UNL     1      48.418   6.514  14.577  0.00  0.00    +0.000 C 
ATOM     20  O   UNL     1      49.182   6.384  13.623  0.00  0.00    +0.000 OA
ATOM     21  H   UNL     1      46.549   7.145  15.202  0.00  0.00    +0.000 HD
BRANCH  19  22
ATOM     22  C   UNL     1      48.723   5.933  15.891  0.00  0.00    +0.000 A 
ATOM     23  C   UNL     1      47.865   4.996  16.452  0.00  0.00    +0.000 A 
ATOM     24  S   UNL     1      48.392   4.406  17.963  0.00  0.00    +0.000 S 
ATOM     25  C   UNL     1      49.763   5.412  17.940  0.00  0.00    +0.000 A 
ATOM     26  N   UNL     1      50.642   5.423  18.980  0.00  0.00    +0.000 NA
ATOM     27  C   UNL     1      51.620   6.254  18.842  0.00  0.00    +0.000 A 
ATOM     28  N   UNL     1      51.806   7.068  17.753  0.00  0.00    +0.000 N 
ATOM     29  C   UNL     1      50.972   7.057  16.664  0.00  0.00    +0.000 A 
ATOM     30  O   UNL     1      51.221   7.728  15.667  0.00  0.00    +0.000 OA
ATOM     31  C   UNL     1      49.835   6.165  16.783  0.00  0.00    +0.000 A 
ATOM     32  H   UNL     1      52.608   7.679  17.693  0.00  0.00    +0.000 HD
ENDBRANCH  19  22
ENDBRANCH  17  18
ENDBRANCH   4  17
TORSDOF 6
ENDMDL
MODEL 7
REMARK VINA RESULT:    -6.433      2.210      2.675
REMARK INTER + INTRA:          -9.782
REMARK INTER:                  -9.095
REMARK INTRA:                  -0.687
REMARK UNBOUND:                -1.093
REMARK  Name = 
REMARK  6 active torsions:
REMARK  status: ('A' for Active; 'I' for Inactive)
REMARK    1  A    between atoms: C_2  and  C_25
REMARK    2  A    between atoms: N_3  and  C_4
REMARK    3  A    between atoms: C_4  and  C_5
REMARK    4  A    between atoms: C_8  and  C_9
REMARK    5  A    between atoms: C_9  and  N_10
REMARK    6  A    between atoms: C_11  and  C_13
REMARK                            x       y       z     vdW  Elec       q    Type
REMARK                         _______ _______ _______ _____ _____    ______ ____
ROOT
ATOM      1  C   UNL     1      45.255   4.974  11.737  0.00  0.00    +0.000 A 
ATOM      2  C   UNL     1      45.315   6.344  11.469  0.00  0.00    +0.000 A 
ATOM      3  C   UNL     1      46.144   7.162  12.230  0.00  0.00    +0.000 A 
ATOM      4  C   UNL     1      46.898   6.594  13.250  0.00  0.00    +0.000 A 
ATOM      5  N   UNL     1      46.889   5.259  13.502  0.00  0.00    +0.000 NA
ATOM      6  C   UNL     1      46.076   4.487  12.745  0.00  0.00    +0.000 A 
ENDROOT
BRANCH   1   7
ATOM      7  C   UNL     1      44.328   4.072  10.982  0.00  0.00    +0.000 C 
BRANCH   7  10
ATOM      8  O   UNL     1      45.139   4.596   8.427  0.00  0.00    +0.000 OA
ATOM      9  C   UNL     1      45.404   3.481   8.869  0.00  0.00    +0.000 C 
ATOM     10  N   UNL     1      45.025   3.122  10.149  0.00  0.00    +0.000 N 
ATOM     11  H   UNL     1      45.314   2.232  10.535  0.00  0.00    +0.000 HD
BRANCH   9  12
ATOM     12  C   UNL     1      46.122   2.496   8.090  0.00  0.00    +0.000 A 
ATOM     13  C   UNL     1      46.021   1.118   8.164  0.00  0.00    +0.000 A 
ATOM     14  C   UNL     1      46.919   0.500   7.251  0.00  0.00    +0.000 A 
ATOM     15  N   UNL     1      47.667   1.311   6.508  0.00  0.00    +0.000 NA
ATOM     16  S   UNL     1      47.293   2.877   6.908  0.00  0.00    +0.000 S 
ENDBRANCH   9  12
ENDBRANCH   7  10
ENDBRANCH   1   7
BRANCH   4  17
ATOM     17  C   UNL     1      47.773   7.460  14.124  0.00  0.00    +0.000 C 
BRANCH  17  18
ATOM     18  N   UNL     1      48.071   6.837  15.390  0.00  0.00    +0.000 N 
ATOM     19  C   UNL     1      48.942   7.374  16.298  0.00  0.00    +0.000 C 
ATOM     20  O   UNL     1      49.535   8.431  16.093  0.00  0.00    +0.000 OA
ATOM     21  H   UNL     1      47.799   5.862  15.469  0.00  0.00    +0.000 HD
BRANCH  19  22
ATOM     22  C   UNL     1      49.076   6.652  17.570  0.00  0.00    +0.000 A 
ATOM     23  C   UNL     1      48.000   6.583  18.445  0.00  0.00    +0.000 A 
ATOM     24  S   UNL     1      48.323   5.679  19.855  0.00  0.00    +0.000 S 
ATOM     25  C   UNL     1      49.925   5.383  19.365  0.00  0.00    +0.000 A 
ATOM     26  N   UNL     1      50.781   4.676  20.153  0.00  0.00    +0.000 NA
ATOM     27  C   UNL     1      51.972   4.553  19.671  0.00  0.00    +0.000 A 
ATOM     28  N   UNL     1      52.382   5.064  18.465  0.00  0.00    +0.000 N 
ATOM     29  C   UNL     1      51.544   5.742  17.619  0.00  0.00    +0.000 A 
ATOM     30  O   UNL     1      51.919   6.103  16.508  0.00  0.00    +0.000 OA
ATOM     31  C   UNL     1      50.201   5.941  18.129  0.00  0.00    +0.000 A 
ATOM     32  H   UNL     1      53.323   4.910  18.131  0.00  0.00    +0.000 HD
ENDBRANCH  19  22
ENDBRANCH  17  18
ENDBRANCH   4  17
TORSDOF 6
ENDMDL
MODEL 8
REMARK VINA RESULT:    -6.409      2.784      3.787
REMARK INTER + INTRA:          -9.750
REMARK INTER:                  -9.014
REMARK INTRA:                  -0.737
REMARK UNBOUND:                -1.093
REMARK  Name = 
REMARK  6 active torsions:
REMARK  status: ('A' for Active; 'I' for Inactive)
REMARK    1  A    between atoms: C_2  and  C_25
REMARK    2  A    between atoms: N_3  and  C_4
REMARK    3  A    between atoms: C_4  and  C_5
REMARK    4  A    between atoms: C_8  and  C_9
REMARK    5  A    between atoms: C_9  and  N_10
REMARK    6  A    between atoms: C_11  and  C_13
REMARK                            x       y       z     vdW  Elec       q    Type
REMARK                         _______ _______ _______ _____ _____    ______ ____
ROOT
ATOM      1  C   UNL     1      45.165   4.498  11.696  0.00  0.00    +0.000 A 
ATOM      2  C   UNL     1      45.523   5.739  12.228  0.00  0.00    +0.000 A 
ATOM      3  C   UNL     1      46.200   5.802  13.443  0.00  0.00    +0.000 A 
ATOM      4  C   UNL     1      46.503   4.618  14.107  0.00  0.00    +0.000 A 
ATOM      5  N   UNL     1      46.203   3.399  13.589  0.00  0.00    +0.000 NA
ATOM      6  C   UNL     1      45.548   3.367  12.406  0.00  0.00    +0.000 A 
ENDROOT
BRANCH   1   7
ATOM      7  C   UNL     1      44.382   4.392  10.425  0.00  0.00    +0.000 C 
BRANCH   7  10
ATOM      8  O   UNL     1      46.043   5.037   8.354  0.00  0.00    +0.000 OA
ATOM      9  C   UNL     1      45.773   3.847   8.491  0.00  0.00    +0.000 C 
ATOM     10  N   UNL     1      44.933   3.426   9.505  0.00  0.00    +0.000 N 
ATOM     11  H   UNL     1      44.777   2.439   9.660  0.00  0.00    +0.000 HD
BRANCH   9  12
ATOM     12  C   UNL     1      46.316   2.830   7.616  0.00  0.00    +0.000 A 
ATOM     13  C   UNL     1      46.530   1.493   7.901  0.00  0.00    +0.000 A 
ATOM     14  C   UNL     1      47.108   0.830   6.784  0.00  0.00    +0.000 A 
ATOM     15  N   UNL     1      47.331   1.568   5.701  0.00  0.00    +0.000 NA
ATOM     16  S   UNL     1      46.834   3.119   6.016  0.00  0.00    +0.000 S 
ENDBRANCH   9  12
ENDBRANCH   7  10
ENDBRANCH   1   7
BRANCH   4  17
ATOM     17  C   UNL     1      47.195   4.654  15.448  0.00  0.00    +0.000 C 
BRANCH  17  18
ATOM     18  N   UNL     1      48.048   5.808  15.594  0.00  0.00    +0.000 N 
ATOM     19  C   UNL     1      48.676   6.127  16.767  0.00  0.00    +0.000 C 
ATOM     20  O   UNL     1      48.553   5.446  17.783  0.00  0.00    +0.000 OA
ATOM     21  H   UNL     1      47.961   6.507  14.863  0.00  0.00    +0.000 HD
BRANCH  19  22
ATOM     22  C   UNL     1      49.568   7.293  16.726  0.00  0.00    +0.000 A 
ATOM     23  C   UNL     1      50.709   7.265  15.934  0.00  0.00    +0.000 A 
ATOM     24  S   UNL     1      51.608   8.714  15.982  0.00  0.00    +0.000 S 
ATOM     25  C   UNL     1      50.528   9.412  17.096  0.00  0.00    +0.000 A 
ATOM     26  N   UNL     1      50.739  10.664  17.587  0.00  0.00    +0.000 NA
ATOM     27  C   UNL     1      49.857  11.056  18.444  0.00  0.00    +0.000 A 
ATOM     28  N   UNL     1      48.776  10.314  18.847  0.00  0.00    +0.000 N 
ATOM     29  C   UNL     1      48.498   9.068  18.345  0.00  0.00    +0.000 A 
ATOM     30  O   UNL     1      47.472   8.473  18.657  0.00  0.00    +0.000 OA
ATOM     31  C   UNL     1      49.480   8.564  17.403  0.00  0.00    +0.000 A 
ATOM     32  H   UNL     1      48.106  10.689  19.503  0.00  0.00    +0.000 HD
ENDBRANCH  19  22
ENDBRANCH  17  18
ENDBRANCH   4  17
TORSDOF 6
ENDMDL
MODEL 9
REMARK VINA RESULT:    -6.366      4.313      7.262
REMARK INTER + INTRA:          -9.691
REMARK INTER:                  -8.845
REMARK INTRA:                  -0.846
REMARK UNBOUND:                -1.093
REMARK  Name = 
REMARK  6 active torsions:
REMARK  status: ('A' for Active; 'I' for Inactive)
REMARK    1  A    between atoms: C_2  and  C_25
REMARK    2  A    between atoms: N_3  and  C_4
REMARK    3  A    between atoms: C_4  and  C_5
REMARK    4  A    between atoms: C_8  and  C_9
REMARK    5  A    between atoms: C_9  and  N_10
REMARK    6  A    between atoms: C_11  and  C_13
REMARK                            x       y       z     vdW  Elec       q    Type
REMARK                         _______ _______ _______ _____ _____    ______ ____
ROOT
ATOM      1  C   UNL     1      50.465   8.314  12.392  0.00  0.00    +0.000 A 
ATOM      2  C   UNL     1      49.479   8.873  11.574  0.00  0.00    +0.000 A 
ATOM      3  C   UNL     1      48.140   8.777  11.941  0.00  0.00    +0.000 A 
ATOM      4  C   UNL     1      47.811   8.118  13.120  0.00  0.00    +0.000 A 
ATOM      5  N   UNL     1      48.753   7.604  13.951  0.00  0.00    +0.000 NA
ATOM      6  C   UNL     1      50.048   7.714  13.572  0.00  0.00    +0.000 A 
ENDROOT
BRANCH   1   7
ATOM      7  C   UNL     1      51.910   8.341  11.999  0.00  0.00    +0.000 C 
BRANCH   7  10
ATOM      8  O   UNL     1      53.076   9.020   9.623  0.00  0.00    +0.000 OA
ATOM      9  C   UNL     1      52.824   7.830   9.791  0.00  0.00    +0.000 C 
ATOM     10  N   UNL     1      52.225   7.392  10.958  0.00  0.00    +0.000 N 
ATOM     11  H   UNL     1      52.092   6.403  11.122  0.00  0.00    +0.000 HD
BRANCH   9  12
ATOM     12  C   UNL     1      53.140   6.829   8.794  0.00  0.00    +0.000 A 
ATOM     13  C   UNL     1      53.937   5.708   8.942  0.00  0.00    +0.000 A 
ATOM     14  C   UNL     1      54.024   4.991   7.717  0.00  0.00    +0.000 A 
ATOM     15  N   UNL     1      53.351   5.490   6.684  0.00  0.00    +0.000 NA
ATOM     16  S   UNL     1      52.580   6.872   7.183  0.00  0.00    +0.000 S 
ENDBRANCH   9  12
ENDBRANCH   7  10
ENDBRANCH   1   7
BRANCH   4  17
ATOM     17  C   UNL     1      46.365   7.956  13.523  0.00  0.00    +0.000 C 
BRANCH  17  18
ATOM     18  N   UNL     1      45.814   6.694  13.094  0.00  0.00    +0.000 N 
ATOM     19  C   UNL     1      45.013   6.567  11.992  0.00  0.00    +0.000 C 
ATOM     20  O   UNL     1      44.705   7.527  11.290  0.00  0.00    +0.000 OA
ATOM     21  H   UNL     1      45.843   5.950  13.784  0.00  0.00    +0.000 HD
BRANCH  19  22
ATOM     22  C   UNL     1      44.597   5.200  11.650  0.00  0.00    +0.000 A 
ATOM     23  C   UNL     1      43.842   4.459  12.550  0.00  0.00    +0.000 A 
ATOM     24  S   UNL     1      43.423   2.908  11.974  0.00  0.00    +0.000 S 
ATOM     25  C   UNL     1      44.271   3.158  10.521  0.00  0.00    +0.000 A 
ATOM     26  N   UNL     1      44.341   2.183   9.573  0.00  0.00    +0.000 NA
ATOM     27  C   UNL     1      45.040   2.498   8.535  0.00  0.00    +0.000 A 
ATOM     28  N   UNL     1      45.667   3.705   8.353  0.00  0.00    +0.000 N 
ATOM     29  C   UNL     1      45.585   4.731   9.258  0.00  0.00    +0.000 A 
ATOM     30  O   UNL     1      46.079   5.829   9.019  0.00  0.00    +0.000 OA
ATOM     31  C   UNL     1      44.840   4.417  10.462  0.00  0.00    +0.000 A 
ATOM     32  H   UNL     1      46.178   3.899   7.504  0.00  0.00    +0.000 HD
ENDBRANCH  19  22
ENDBRANCH  17  18
ENDBRANCH   4  17
TORSDOF 6
ENDMDL
