MODEL 1
REMARK VINA RESULT:    -8.120      0.000      0.000
REMARK INTER + INTRA:         -13.021
REMARK INTER:                 -12.155
REMARK INTRA:                  -0.866
REMARK UNBOUND:                -0.866
REMARK  Name = 
REMARK  10 active torsions:
REMARK  status: ('A' for Active; 'I' for Inactive)
REMARK    1  A    between atoms: C_1  and  C_2
REMARK    2  A    between atoms: C_2  and  N_3
REMARK    3  A    between atoms: C_2  and  C_19
REMARK    4  A    between atoms: N_3  and  C_4
REMARK    5  A    between atoms: C_4  and  C_5
REMARK    6  A    between atoms: C_8  and  C_9
REMARK    7  A    between atoms: C_9  and  O_10
REMARK    8  A    between atoms: C_9  and  C_11
REMARK    9  A    between atoms: C_11  and  N_12
REMARK   10  A    between atoms: C_19  and  C_21
REMARK                            x       y       z     vdW  Elec       q    Type
REMARK                         _______ _______ _______ _____ _____    ______ ____
ROOT
ATOM      1  N   UNL     1      48.227   5.584  15.600  0.00  0.00    +0.000 NA
ATOM      2  H   UNL     1      48.462   4.697  15.144  0.00  0.00    +0.000 HD
ENDROOT
BRANCH   1   4
ATOM      3  C   UNL     1      48.934   7.257  17.124  0.00  0.00    +0.000 C 
ATOM      4  C   UNL     1      49.324   5.911  16.527  0.00  0.00    +0.000 C 
BRANCH   4   5
ATOM      5  C   UNL     1      49.477   4.733  17.551  0.00  0.00    +0.000 C 
ATOM      6  O   UNL     1      48.502   4.153  17.991  0.00  0.00    +0.000 OA
BRANCH   5   7
ATOM      7  C   UNL     1      50.840   4.290  17.882  0.00  0.00    +0.000 A 
ATOM      8  C   UNL     1      51.791   5.119  18.443  0.00  0.00    +0.000 A 
ATOM      9  S   UNL     1      53.237   4.308  18.853  0.00  0.00    +0.000 S 
ATOM     10  C   UNL     1      52.635   2.823  18.281  0.00  0.00    +0.000 A 
ATOM     11  N   UNL     1      53.353   1.674  18.391  0.00  0.00    +0.000 NA
ATOM     12  C   UNL     1      52.728   0.619  17.981  0.00  0.00    +0.000 A 
ATOM     13  N   UNL     1      51.471   0.619  17.425  0.00  0.00    +0.000 N 
ATOM     14  C   UNL     1      50.841   1.784  17.061  0.00  0.00    +0.000 A 
ATOM     15  O   UNL     1      49.995   1.809  16.164  0.00  0.00    +0.000 OA
ATOM     16  C   UNL     1      51.382   2.965  17.709  0.00  0.00    +0.000 A 
ATOM     17  H   UNL     1      51.098  -0.226  17.021  0.00  0.00    +0.000 HD
ENDBRANCH   5   7
ENDBRANCH   4   5
ENDBRANCH   1   4
BRANCH   1  18
ATOM     18  C   UNL     1      48.102   6.590  14.555  0.00  0.00    +0.000 C 
BRANCH  18  19
ATOM     19  C   UNL     1      47.185   6.097  13.478  0.00  0.00    +0.000 A 
ATOM     20  C   UNL     1      47.115   6.791  12.267  0.00  0.00    +0.000 A 
ATOM     21  C   UNL     1      46.311   6.321  11.234  0.00  0.00    +0.000 A 
ATOM     22  C   UNL     1      45.550   5.152  11.413  0.00  0.00    +0.000 A 
ATOM     23  C   UNL     1      45.615   4.479  12.637  0.00  0.00    +0.000 A 
ATOM     24  C   UNL     1      46.414   4.946  13.666  0.00  0.00    +0.000 A 
BRANCH  22  25
ATOM     25  C   UNL     1      44.643   4.621  10.326  0.00  0.00    +0.000 C 
BRANCH  25  26
ATOM     26  O   UNL     1      43.471   5.438  10.230  0.00  0.00    +0.000 OA
ATOM     27  H   UNL     1      43.764   6.334   9.996  0.00  0.00    +0.000 HD
ENDBRANCH  25  26
BRANCH  25  28
ATOM     28  C   UNL     1      45.344   4.555   8.929  0.00  0.00    +0.000 C 
BRANCH  28  29
ATOM     29  N   UNL     1      44.851   3.438   8.101  0.00  0.00    +0.000 NA
ATOM     30  C   UNL     1      45.795   3.105   7.034  0.00  0.00    +0.000 C 
ATOM     31  C   UNL     1      46.695   2.049   7.627  0.00  0.00    +0.000 C 
ATOM     32  O   UNL     1      45.943   1.413   8.660  0.00  0.00    +0.000 OA
ATOM     33  C   UNL     1      44.754   2.183   8.841  0.00  0.00    +0.000 C 
ENDBRANCH  28  29
ENDBRANCH  25  28
ENDBRANCH  22  25
ENDBRANCH  18  19
ENDBRANCH   1  18
TORSDOF 9
ENDMDL
MODEL 2
REMARK VINA RESULT:    -7.799      3.125      3.748
REMARK INTER + INTRA:         -12.540
REMARK INTER:                 -10.553
REMARK INTRA:                  -1.986
REMARK UNBOUND:                -0.866
REMARK  Name = 
REMARK  10 active torsions:
REMARK  status: ('A' for Active; 'I' for Inactive)
REMARK    1  A    between atoms: C_1  and  C_2
REMARK    2  A    between atoms: C_2  and  N_3
REMARK    3  A    between atoms: C_2  and  C_19
REMARK    4  A    between atoms: N_3  and  C_4
REMARK    5  A    between atoms: C_4  and  C_5
REMARK    6  A    between atoms: C_8  and  C_9
REMARK    7  A    between atoms: C_9  and  O_10
REMARK    8  A    between atoms: C_9  and  C_11
REMARK    9  A    between atoms: C_11  and  N_12
REMARK   10  A    between atoms: C_19  and  C_21
REMARK                            x       y       z     vdW  Elec       q    Type
REMARK                         _______ _______ _______ _____ _____    ______ ____
ROOT
ATOM      1  N   UNL     1      49.749   7.057  13.522  0.00  0.00    +0.000 NA
ATOM      2  H   UNL     1      50.491   6.597  12.986  0.00  0.00    +0.000 HD
ENDROOT
BRANCH   1   4
ATOM      3  C   UNL     1      50.690   9.091  14.295  0.00  0.00    +0.000 C 
ATOM      4  C   UNL     1      50.371   7.661  14.713  0.00  0.00    +0.000 C 
BRANCH   4   5
ATOM      5  C   UNL     1      49.382   7.510  15.921  0.00  0.00    +0.000 C 
ATOM      6  O   UNL     1      48.460   8.288  16.078  0.00  0.00    +0.000 OA
BRANCH   5   7
ATOM      7  C   UNL     1      49.548   6.340  16.795  0.00  0.00    +0.000 A 
ATOM      8  C   UNL     1      50.510   6.261  17.783  0.00  0.00    +0.000 A 
ATOM      9  S   UNL     1      50.385   4.852  18.739  0.00  0.00    +0.000 S 
ATOM     10  C   UNL     1      49.042   4.299  17.851  0.00  0.00    +0.000 A 
ATOM     11  N   UNL     1      48.387   3.156  18.188  0.00  0.00    +0.000 NA
ATOM     12  C   UNL     1      47.344   2.913  17.465  0.00  0.00    +0.000 A 
ATOM     13  N   UNL     1      46.927   3.682  16.405  0.00  0.00    +0.000 N 
ATOM     14  C   UNL     1      47.713   4.680  15.883  0.00  0.00    +0.000 A 
ATOM     15  O   UNL     1      47.612   5.034  14.706  0.00  0.00    +0.000 OA
ATOM     16  C   UNL     1      48.751   5.138  16.788  0.00  0.00    +0.000 A 
ATOM     17  H   UNL     1      46.173   3.364  15.817  0.00  0.00    +0.000 HD
ENDBRANCH   5   7
ENDBRANCH   4   5
ENDBRANCH   1   4
BRANCH   1  18
ATOM     18  C   UNL     1      49.159   8.074  12.662  0.00  0.00    +0.000 C 
BRANCH  18  19
ATOM     19  C   UNL     1      47.727   7.738  12.380  0.00  0.00    +0.000 A 
ATOM     20  C   UNL     1      47.429   6.667  11.533  0.00  0.00    +0.000 A 
ATOM     21  C   UNL     1      46.106   6.303  11.300  0.00  0.00    +0.000 A 
ATOM     22  C   UNL     1      45.063   7.027  11.905  0.00  0.00    +0.000 A 
ATOM     23  C   UNL     1      45.376   8.108  12.734  0.00  0.00    +0.000 A 
ATOM     24  C   UNL     1      46.692   8.471  12.966  0.00  0.00    +0.000 A 
BRANCH  22  25
ATOM     25  C   UNL     1      43.611   6.683  11.658  0.00  0.00    +0.000 C 
BRANCH  25  26
ATOM     26  O   UNL     1      42.954   7.784  11.020  0.00  0.00    +0.000 OA
ATOM     27  H   UNL     1      42.531   8.310  11.718  0.00  0.00    +0.000 HD
ENDBRANCH  25  26
BRANCH  25  28
ATOM     28  C   UNL     1      43.433   5.397  10.784  0.00  0.00    +0.000 C 
BRANCH  28  29
ATOM     29  N   UNL     1      42.972   4.238  11.571  0.00  0.00    +0.000 NA
ATOM     30  C   UNL     1      43.757   3.040  11.271  0.00  0.00    +0.000 C 
ATOM     31  C   UNL     1      44.888   3.057  12.270  0.00  0.00    +0.000 C 
ATOM     32  O   UNL     1      44.424   3.808  13.391  0.00  0.00    +0.000 OA
ATOM     33  C   UNL     1      43.185   4.406  13.006  0.00  0.00    +0.000 C 
ENDBRANCH  28  29
ENDBRANCH  25  28
ENDBRANCH  22  25
ENDBRANCH  18  19
ENDBRANCH   1  18
TORSDOF 9
ENDMDL
MODEL 3
REMARK VINA RESULT:    -7.428      2.647      3.233
REMARK INTER + INTRA:         -11.984
REMARK INTER:                 -10.705
REMARK INTRA:                  -1.279
REMARK UNBOUND:                -0.866
REMARK  Name = 
REMARK  10 active torsions:
REMARK  status: ('A' for Active; 'I' for Inactive)
REMARK    1  A    between atoms: C_1  and  C_2
REMARK    2  A    between atoms: C_2  and  N_3
REMARK    3  A    between atoms: C_2  and  C_19
REMARK    4  A    between atoms: N_3  and  C_4
REMARK    5  A    between atoms: C_4  and  C_5
REMARK    6  A    between atoms: C_8  and  C_9
REMARK    7  A    between atoms: C_9  and  O_10
REMARK    8  A    between atoms: C_9  and  C_11
REMARK    9  A    between atoms: C_11  and  N_12
REMARK   10  A    between atoms: C_19  and  C_21
REMARK                            x       y       z     vdW  Elec       q    Type
REMARK                         _______ _______ _______ _____ _____    ______ ____
ROOT
ATOM      1  N   UNL     1      47.199   8.741  14.800  0.00  0.00    +0.000 NA
ATOM      2  H   UNL     1      47.004   7.735  14.842  0.00  0.00    +0.000 HD
ENDROOT
BRANCH   1   4
ATOM      3  C   UNL     1      48.212   9.232  16.887  0.00  0.00    +0.000 C 
ATOM      4  C   UNL     1      48.518   8.963  15.419  0.00  0.00    +0.000 C 
BRANCH   4   5
ATOM      5  C   UNL     1      49.418   7.712  15.132  0.00  0.00    +0.000 C 
ATOM      6  O   UNL     1      50.073   7.631  14.109  0.00  0.00    +0.000 OA
BRANCH   5   7
ATOM      7  C   UNL     1      49.522   6.691  16.185  0.00  0.00    +0.000 A 
ATOM      8  C   UNL     1      50.457   6.740  17.199  0.00  0.00    +0.000 A 
ATOM      9  S   UNL     1      50.259   5.505  18.362  0.00  0.00    +0.000 S 
ATOM     10  C   UNL     1      48.919   4.861  17.534  0.00  0.00    +0.000 A 
ATOM     11  N   UNL     1      48.216   3.808  18.029  0.00  0.00    +0.000 NA
ATOM     12  C   UNL     1      47.182   3.485  17.324  0.00  0.00    +0.000 A 
ATOM     13  N   UNL     1      46.818   4.089  16.143  0.00  0.00    +0.000 N 
ATOM     14  C   UNL     1      47.650   4.966  15.493  0.00  0.00    +0.000 A 
ATOM     15  O   UNL     1      47.589   5.131  14.273  0.00  0.00    +0.000 OA
ATOM     16  C   UNL     1      48.683   5.529  16.345  0.00  0.00    +0.000 A 
ATOM     17  H   UNL     1      46.066   3.705  15.592  0.00  0.00    +0.000 HD
ENDBRANCH   5   7
ENDBRANCH   4   5
ENDBRANCH   1   4
BRANCH   1  18
ATOM     18  C   UNL     1      47.204   9.124  13.395  0.00  0.00    +0.000 C 
BRANCH  18  19
ATOM     19  C   UNL     1      46.571   8.047  12.570  0.00  0.00    +0.000 A 
ATOM     20  C   UNL     1      47.341   7.369  11.620  0.00  0.00    +0.000 A 
ATOM     21  C   UNL     1      46.787   6.329  10.880  0.00  0.00    +0.000 A 
ATOM     22  C   UNL     1      45.442   5.967  11.075  0.00  0.00    +0.000 A 
ATOM     23  C   UNL     1      44.680   6.667  12.015  0.00  0.00    +0.000 A 
ATOM     24  C   UNL     1      45.228   7.702  12.751  0.00  0.00    +0.000 A 
BRANCH  22  25
ATOM     25  C   UNL     1      44.794   4.861  10.274  0.00  0.00    +0.000 C 
BRANCH  25  26
ATOM     26  O   UNL     1      43.431   5.201   9.993  0.00  0.00    +0.000 OA
ATOM     27  H   UNL     1      43.337   6.156  10.139  0.00  0.00    +0.000 HD
ENDBRANCH  25  26
BRANCH  25  28
ATOM     28  C   UNL     1      45.541   4.567   8.931  0.00  0.00    +0.000 C 
BRANCH  28  29
ATOM     29  N   UNL     1      44.934   3.453   8.178  0.00  0.00    +0.000 NA
ATOM     30  C   UNL     1      45.752   3.076   7.026  0.00  0.00    +0.000 C 
ATOM     31  C   UNL     1      46.679   2.003   7.541  0.00  0.00    +0.000 C 
ATOM     32  O   UNL     1      46.021   1.405   8.658  0.00  0.00    +0.000 OA
ATOM     33  C   UNL     1      44.879   2.213   8.947  0.00  0.00    +0.000 C 
ENDBRANCH  28  29
ENDBRANCH  25  28
ENDBRANCH  22  25
ENDBRANCH  18  19
ENDBRANCH   1  18
TORSDOF 9
ENDMDL
MODEL 4
REMARK VINA RESULT:    -7.194      1.290      2.153
REMARK INTER + INTRA:         -11.634
REMARK INTER:                 -10.670
REMARK INTRA:                  -0.964
REMARK UNBOUND:                -0.866
REMARK  Name = 
REMARK  10 active torsions:
REMARK  status: ('A' for Active; 'I' for Inactive)
REMARK    1  A    between atoms: C_1  and  C_2
REMARK    2  A    between atoms: C_2  and  N_3
REMARK    3  A    between atoms: C_2  and  C_19
REMARK    4  A    between atoms: N_3  and  C_4
REMARK    5  A    between atoms: C_4  and  C_5
REMARK    6  A    between atoms: C_8  and  C_9
REMARK    7  A    between atoms: C_9  and  O_10
REMARK    8  A    between atoms: C_9  and  C_11
REMARK    9  A    between atoms: C_11  and  N_12
REMARK   10  A    between atoms: C_19  and  C_21
REMARK                            x       y       z     vdW  Elec       q    Type
REMARK                         _______ _______ _______ _____ _____    ______ ____
ROOT
ATOM      1  N   UNL     1      47.943   5.318  15.623  0.00  0.00    +0.000 NA
ATOM      2  H   UNL     1      48.087   4.387  15.219  0.00  0.00    +0.000 HD
ENDROOT
BRANCH   1   4
ATOM      3  C   UNL     1      48.774   6.963  17.114  0.00  0.00    +0.000 C 
ATOM      4  C   UNL     1      49.028   5.555  16.590  0.00  0.00    +0.000 C 
BRANCH   4   5
ATOM      5  C   UNL     1      48.994   4.414  17.665  0.00  0.00    +0.000 C 
ATOM      6  O   UNL     1      48.009   4.230  18.354  0.00  0.00    +0.000 OA
BRANCH   5   7
ATOM      7  C   UNL     1      50.155   3.514  17.739  0.00  0.00    +0.000 A 
ATOM      8  C   UNL     1      50.119   2.196  17.329  0.00  0.00    +0.000 A 
ATOM      9  S   UNL     1      51.642   1.426  17.394  0.00  0.00    +0.000 S 
ATOM     10  C   UNL     1      52.394   2.834  17.985  0.00  0.00    +0.000 A 
ATOM     11  N   UNL     1      53.734   2.888  18.202  0.00  0.00    +0.000 NA
ATOM     12  C   UNL     1      54.163   4.048  18.578  0.00  0.00    +0.000 A 
ATOM     13  N   UNL     1      53.363   5.144  18.803  0.00  0.00    +0.000 N 
ATOM     14  C   UNL     1      51.995   5.044  18.848  0.00  0.00    +0.000 A 
ATOM     15  O   UNL     1      51.310   5.836  19.498  0.00  0.00    +0.000 OA
ATOM     16  C   UNL     1      51.477   3.848  18.208  0.00  0.00    +0.000 A 
ATOM     17  H   UNL     1      53.757   5.980  19.206  0.00  0.00    +0.000 HD
ENDBRANCH   5   7
ENDBRANCH   4   5
ENDBRANCH   1   4
BRANCH   1  18
ATOM     18  C   UNL     1      47.992   6.277  14.528  0.00  0.00    +0.000 C 
BRANCH  18  19
ATOM     19  C   UNL     1      47.100   5.826  13.413  0.00  0.00    +0.000 A 
ATOM     20  C   UNL     1      46.351   4.656  13.564  0.00  0.00    +0.000 A 
ATOM     21  C   UNL     1      45.476   4.248  12.563  0.00  0.00    +0.000 A 
ATOM     22  C   UNL     1      45.356   5.006  11.384  0.00  0.00    +0.000 A 
ATOM     23  C   UNL     1      46.126   6.164  11.239  0.00  0.00    +0.000 A 
ATOM     24  C   UNL     1      46.997   6.571  12.234  0.00  0.00    +0.000 A 
BRANCH  22  25
ATOM     25  C   UNL     1      44.437   4.585  10.260  0.00  0.00    +0.000 C 
BRANCH  25  26
ATOM     26  O   UNL     1      43.324   5.482  10.181  0.00  0.00    +0.000 OA
ATOM     27  H   UNL     1      43.154   5.648   9.240  0.00  0.00    +0.000 HD
ENDBRANCH  25  26
BRANCH  25  28
ATOM     28  C   UNL     1      45.161   4.534   8.873  0.00  0.00    +0.000 C 
BRANCH  28  29
ATOM     29  N   UNL     1      44.753   3.369   8.065  0.00  0.00    +0.000 NA
ATOM     30  C   UNL     1      45.742   3.061   7.032  0.00  0.00    +0.000 C 
ATOM     31  C   UNL     1      46.684   2.075   7.677  0.00  0.00    +0.000 C 
ATOM     32  O   UNL     1      45.943   1.425   8.709  0.00  0.00    +0.000 OA
ATOM     33  C   UNL     1      44.708   2.131   8.838  0.00  0.00    +0.000 C 
ENDBRANCH  28  29
ENDBRANCH  25  28
ENDBRANCH  22  25
ENDBRANCH  18  19
ENDBRANCH   1  18
TORSDOF 9
ENDMDL
MODEL 5
REMARK VINA RESULT:    -7.064      2.478      4.120
REMARK INTER + INTRA:         -11.440
REMARK INTER:                 -10.533
REMARK INTRA:                  -0.907
REMARK UNBOUND:                -0.866
REMARK  Name = 
REMARK  10 active torsions:
REMARK  status: ('A' for Active; 'I' for Inactive)
REMARK    1  A    between atoms: C_1  and  C_2
REMARK    2  A    between atoms: C_2  and  N_3
REMARK    3  A    between atoms: C_2  and  C_19
REMARK    4  A    between atoms: N_3  and  C_4
REMARK    5  A    between atoms: C_4  and  C_5
REMARK    6  A    between atoms: C_8  and  C_9
REMARK    7  A    between atoms: C_9  and  O_10
REMARK    8  A    between atoms: C_9  and  C_11
REMARK    9  A    between atoms: C_11  and  N_12
REMARK   10  A    between atoms: C_19  and  C_21
REMARK                            x       y       z     vdW  Elec       q    Type
REMARK                         _______ _______ _______ _____ _____    ______ ____
ROOT
ATOM      1  N   UNL     1      47.907   4.097  15.635  0.00  0.00    +0.000 NA
ATOM      2  H   UNL     1      48.890   3.893  15.426  0.00  0.00    +0.000 HD
ENDROOT
BRANCH   1   4
ATOM      3  C   UNL     1      47.200   2.859  17.529  0.00  0.00    +0.000 C 
ATOM      4  C   UNL     1      47.778   4.202  17.099  0.00  0.00    +0.000 C 
BRANCH   4   5
ATOM      5  C   UNL     1      49.182   4.560  17.697  0.00  0.00    +0.000 C 
ATOM      6  O   UNL     1      49.896   3.702  18.181  0.00  0.00    +0.000 OA
BRANCH   5   7
ATOM      7  C   UNL     1      49.646   5.949  17.562  0.00  0.00    +0.000 A 
ATOM      8  C   UNL     1      50.837   6.294  16.957  0.00  0.00    +0.000 A 
ATOM      9  S   UNL     1      51.058   7.982  16.810  0.00  0.00    +0.000 S 
ATOM     10  C   UNL     1      49.565   8.300  17.563  0.00  0.00    +0.000 A 
ATOM     11  N   UNL     1      49.095   9.568  17.705  0.00  0.00    +0.000 NA
ATOM     12  C   UNL     1      47.915   9.638  18.227  0.00  0.00    +0.000 A 
ATOM     13  N   UNL     1      47.186   8.559  18.666  0.00  0.00    +0.000 N 
ATOM     14  C   UNL     1      47.741   7.308  18.778  0.00  0.00    +0.000 A 
ATOM     15  O   UNL     1      47.310   6.480  19.583  0.00  0.00    +0.000 OA
ATOM     16  C   UNL     1      48.951   7.136  17.995  0.00  0.00    +0.000 A 
ATOM     17  H   UNL     1      46.324   8.704  19.168  0.00  0.00    +0.000 HD
ENDBRANCH   5   7
ENDBRANCH   4   5
ENDBRANCH   1   4
BRANCH   1  18
ATOM     18  C   UNL     1      47.578   5.357  14.984  0.00  0.00    +0.000 C 
BRANCH  18  19
ATOM     19  C   UNL     1      46.767   5.100  13.751  0.00  0.00    +0.000 A 
ATOM     20  C   UNL     1      46.339   3.799  13.471  0.00  0.00    +0.000 A 
ATOM     21  C   UNL     1      45.540   3.547  12.361  0.00  0.00    +0.000 A 
ATOM     22  C   UNL     1      45.174   4.601  11.505  0.00  0.00    +0.000 A 
ATOM     23  C   UNL     1      45.626   5.894  11.788  0.00  0.00    +0.000 A 
ATOM     24  C   UNL     1      46.421   6.146  12.891  0.00  0.00    +0.000 A 
BRANCH  22  25
ATOM     25  C   UNL     1      44.329   4.367  10.273  0.00  0.00    +0.000 C 
BRANCH  25  26
ATOM     26  O   UNL     1      43.316   5.374  10.182  0.00  0.00    +0.000 OA
ATOM     27  H   UNL     1      43.250   5.633   9.249  0.00  0.00    +0.000 HD
ENDBRANCH  25  26
BRANCH  25  28
ATOM     28  C   UNL     1      45.171   4.358   8.954  0.00  0.00    +0.000 C 
BRANCH  28  29
ATOM     29  N   UNL     1      44.838   3.218   8.079  0.00  0.00    +0.000 NA
ATOM     30  C   UNL     1      45.788   3.097   6.973  0.00  0.00    +0.000 C 
ATOM     31  C   UNL     1      46.866   2.174   7.486  0.00  0.00    +0.000 C 
ATOM     32  O   UNL     1      46.262   1.374   8.501  0.00  0.00    +0.000 OA
ATOM     33  C   UNL     1      44.970   1.929   8.752  0.00  0.00    +0.000 C 
ENDBRANCH  28  29
ENDBRANCH  25  28
ENDBRANCH  22  25
ENDBRANCH  18  19
ENDBRANCH   1  18
TORSDOF 9
ENDMDL
MODEL 6
REMARK VINA RESULT:    -7.061      2.140      2.823
REMARK INTER + INTRA:         -11.435
REMARK INTER:                 -10.166
REMARK INTRA:                  -1.269
REMARK UNBOUND:                -0.866
REMARK  Name = 
REMARK  10 active torsions:
REMARK  status: ('A' for Active; 'I' for Inactive)
REMARK    1  A    between atoms: C_1  and  C_2
REMARK    2  A    between atoms: C_2  and  N_3
REMARK    3  A    between atoms: C_2  and  C_19
REMARK    4  A    between atoms: N_3  and  C_4
REMARK    5  A    between atoms: C_4  and  C_5
REMARK    6  A    between atoms: C_8  and  C_9
REMARK    7  A    between atoms: C_9  and  O_10
REMARK    8  A    between atoms: C_9  and  C_11
REMARK    9  A    between atoms: C_11  and  N_12
REMARK   10  A    between atoms: C_19  and  C_21
REMARK                            x       y       z     vdW  Elec       q    Type
REMARK                         _______ _______ _______ _____ _____    ______ ____
ROOT
ATOM      1  N   UNL     1      49.278   6.596  14.773  0.00  0.00    +0.000 NA
ATOM      2  H   UNL     1      50.050   6.386  14.132  0.00  0.00    +0.000 HD
ENDROOT
BRANCH   1   4
ATOM      3  C   UNL     1      49.719   8.732  15.702  0.00  0.00    +0.000 C 
ATOM      4  C   UNL     1      49.856   7.238  15.967  0.00  0.00    +0.000 C 
BRANCH   4   5
ATOM      5  C   UNL     1      49.104   6.701  17.233  0.00  0.00    +0.000 C 
ATOM      6  O   UNL     1      48.645   7.464  18.062  0.00  0.00    +0.000 OA
BRANCH   5   7
ATOM      7  C   UNL     1      48.885   5.250  17.331  0.00  0.00    +0.000 A 
ATOM      8  C   UNL     1      47.638   4.664  17.242  0.00  0.00    +0.000 A 
ATOM      9  S   UNL     1      47.691   2.957  17.245  0.00  0.00    +0.000 S 
ATOM     10  C   UNL     1      49.388   2.952  17.376  0.00  0.00    +0.000 A 
ATOM     11  N   UNL     1      50.099   1.794  17.366  0.00  0.00    +0.000 NA
ATOM     12  C   UNL     1      51.380   1.961  17.397  0.00  0.00    +0.000 A 
ATOM     13  N   UNL     1      52.011   3.179  17.487  0.00  0.00    +0.000 N 
ATOM     14  C   UNL     1      51.319   4.332  17.764  0.00  0.00    +0.000 A 
ATOM     15  O   UNL     1      51.860   5.294  18.315  0.00  0.00    +0.000 OA
ATOM     16  C   UNL     1      49.894   4.235  17.502  0.00  0.00    +0.000 A 
ATOM     17  H   UNL     1      53.008   3.221  17.623  0.00  0.00    +0.000 HD
ENDBRANCH   5   7
ENDBRANCH   4   5
ENDBRANCH   1   4
BRANCH   1  18
ATOM     18  C   UNL     1      48.370   7.497  14.077  0.00  0.00    +0.000 C 
BRANCH  18  19
ATOM     19  C   UNL     1      47.145   6.753  13.643  0.00  0.00    +0.000 A 
ATOM     20  C   UNL     1      47.048   5.383  13.900  0.00  0.00    +0.000 A 
ATOM     21  C   UNL     1      45.897   4.683  13.554  0.00  0.00    +0.000 A 
ATOM     22  C   UNL     1      44.830   5.352  12.927  0.00  0.00    +0.000 A 
ATOM     23  C   UNL     1      44.949   6.719  12.659  0.00  0.00    +0.000 A 
ATOM     24  C   UNL     1      46.095   7.417  13.002  0.00  0.00    +0.000 A 
BRANCH  22  25
ATOM     25  C   UNL     1      43.572   4.625  12.510  0.00  0.00    +0.000 C 
BRANCH  25  26
ATOM     26  O   UNL     1      42.422   5.388  12.893  0.00  0.00    +0.000 OA
ATOM     27  H   UNL     1      42.585   5.724  13.789  0.00  0.00    +0.000 HD
ENDBRANCH  25  26
BRANCH  25  28
ATOM     28  C   UNL     1      43.516   4.344  10.972  0.00  0.00    +0.000 C 
BRANCH  28  29
ATOM     29  N   UNL     1      44.810   3.880  10.434  0.00  0.00    +0.000 NA
ATOM     30  C   UNL     1      44.655   2.664   9.637  0.00  0.00    +0.000 C 
ATOM     31  C   UNL     1      44.432   3.150   8.226  0.00  0.00    +0.000 C 
ATOM     32  O   UNL     1      45.035   4.441   8.145  0.00  0.00    +0.000 OA
ATOM     33  C   UNL     1      45.394   4.815   9.476  0.00  0.00    +0.000 C 
ENDBRANCH  28  29
ENDBRANCH  25  28
ENDBRANCH  22  25
ENDBRANCH  18  19
ENDBRANCH   1  18
TORSDOF 9
ENDMDL
MODEL 7
REMARK VINA RESULT:    -6.885      2.454      3.269
REMARK INTER + INTRA:         -11.171
REMARK INTER:                 -10.053
REMARK INTRA:                  -1.119
REMARK UNBOUND:                -0.866
REMARK  Name = 
REMARK  10 active torsions:
REMARK  status: ('A' for Active; 'I' for Inactive)
REMARK    1  A    between atoms: C_1  and  C_2
REMARK    2  A    between atoms: C_2  and  N_3
REMARK    3  A    between atoms: C_2  and  C_19
REMARK    4  A    between atoms: N_3  and  C_4
REMARK    5  A    between atoms: C_4  and  C_5
REMARK    6  A    between atoms: C_8  and  C_9
REMARK    7  A    between atoms: C_9  and  O_10
REMARK    8  A    between atoms: C_9  and  C_11
REMARK    9  A    between atoms: C_11  and  N_12
REMARK   10  A    between atoms: C_19  and  C_21
REMARK                            x       y       z     vdW  Elec       q    Type
REMARK                         _______ _______ _______ _____ _____    ______ ____
ROOT
ATOM      1  N   UNL     1      47.970   7.106  14.511  0.00  0.00    +0.000 NA
ATOM      2  H   UNL     1      47.618   7.586  15.346  0.00  0.00    +0.000 HD
ENDROOT
BRANCH   1   4
ATOM      3  C   UNL     1      49.784   7.869  13.189  0.00  0.00    +0.000 C 
ATOM      4  C   UNL     1      49.439   7.217  14.522  0.00  0.00    +0.000 C 
BRANCH   4   5
ATOM      5  C   UNL     1      49.867   8.017  15.800  0.00  0.00    +0.000 C 
ATOM      6  O   UNL     1      50.646   8.949  15.726  0.00  0.00    +0.000 OA
BRANCH   5   7
ATOM      7  C   UNL     1      49.219   7.666  17.073  0.00  0.00    +0.000 A 
ATOM      8  C   UNL     1      48.430   8.544  17.789  0.00  0.00    +0.000 A 
ATOM      9  S   UNL     1      47.688   7.831  19.152  0.00  0.00    +0.000 S 
ATOM     10  C   UNL     1      48.411   6.324  18.828  0.00  0.00    +0.000 A 
ATOM     11  N   UNL     1      48.144   5.229  19.588  0.00  0.00    +0.000 NA
ATOM     12  C   UNL     1      48.711   4.145  19.169  0.00  0.00    +0.000 A 
ATOM     13  N   UNL     1      49.558   4.070  18.089  0.00  0.00    +0.000 N 
ATOM     14  C   UNL     1      50.049   5.196  17.475  0.00  0.00    +0.000 A 
ATOM     15  O   UNL     1      51.125   5.187  16.875  0.00  0.00    +0.000 OA
ATOM     16  C   UNL     1      49.272   6.392  17.745  0.00  0.00    +0.000 A 
ATOM     17  H   UNL     1      50.052   3.213  17.896  0.00  0.00    +0.000 HD
ENDBRANCH   5   7
ENDBRANCH   4   5
ENDBRANCH   1   4
BRANCH   1  18
ATOM     18  C   UNL     1      47.545   5.716  14.599  0.00  0.00    +0.000 C 
BRANCH  18  19
ATOM     19  C   UNL     1      46.715   5.358  13.404  0.00  0.00    +0.000 A 
ATOM     20  C   UNL     1      46.580   6.281  12.362  0.00  0.00    +0.000 A 
ATOM     21  C   UNL     1      45.860   5.949  11.220  0.00  0.00    +0.000 A 
ATOM     22  C   UNL     1      45.249   4.686  11.117  0.00  0.00    +0.000 A 
ATOM     23  C   UNL     1      45.377   3.781  12.175  0.00  0.00    +0.000 A 
ATOM     24  C   UNL     1      46.093   4.110  13.313  0.00  0.00    +0.000 A 
BRANCH  22  25
ATOM     25  C   UNL     1      44.435   4.294   9.905  0.00  0.00    +0.000 C 
BRANCH  25  26
ATOM     26  O   UNL     1      43.304   5.163   9.779  0.00  0.00    +0.000 OA
ATOM     27  H   UNL     1      42.508   4.613   9.851  0.00  0.00    +0.000 HD
ENDBRANCH  25  26
BRANCH  25  28
ATOM     28  C   UNL     1      45.266   4.329   8.580  0.00  0.00    +0.000 C 
BRANCH  28  29
ATOM     29  N   UNL     1      45.036   3.141   7.737  0.00  0.00    +0.000 NA
ATOM     30  C   UNL     1      46.067   3.006   6.709  0.00  0.00    +0.000 C 
ATOM     31  C   UNL     1      47.135   2.146   7.339  0.00  0.00    +0.000 C 
ATOM     32  O   UNL     1      46.486   1.369   8.344  0.00  0.00    +0.000 OA
ATOM     33  C   UNL     1      45.161   1.888   8.477  0.00  0.00    +0.000 C 
ENDBRANCH  28  29
ENDBRANCH  25  28
ENDBRANCH  22  25
ENDBRANCH  18  19
ENDBRANCH   1  18
TORSDOF 9
ENDMDL
MODEL 8
REMARK VINA RESULT:    -6.843      2.369      3.135
REMARK INTER + INTRA:         -11.110
REMARK INTER:                  -9.712
REMARK INTRA:                  -1.397
REMARK UNBOUND:                -0.866
REMARK  Name = 
REMARK  10 active torsions:
REMARK  status: ('A' for Active; 'I' for Inactive)
REMARK    1  A    between atoms: C_1  and  C_2
REMARK    2  A    between atoms: C_2  and  N_3
REMARK    3  A    between atoms: C_2  and  C_19
REMARK    4  A    between atoms: N_3  and  C_4
REMARK    5  A    between atoms: C_4  and  C_5
REMARK    6  A    between atoms: C_8  and  C_9
REMARK    7  A    between atoms: C_9  and  O_10
REMARK    8  A    between atoms: C_9  and  C_11
REMARK    9  A    between atoms: C_11  and  N_12
REMARK   10  A    between atoms: C_19  and  C_21
REMARK                            x       y       z     vdW  Elec       q    Type
REMARK                         _______ _______ _______ _____ _____    ______ ____
ROOT
ATOM      1  N   UNL     1      50.143   6.703  14.886  0.00  0.00    +0.000 NA
ATOM      2  H   UNL     1      50.670   6.257  14.128  0.00  0.00    +0.000 HD
ENDROOT
BRANCH   1   4
ATOM      3  C   UNL     1      50.680   8.861  15.705  0.00  0.00    +0.000 C 
ATOM      4  C   UNL     1      51.112   7.401  15.748  0.00  0.00    +0.000 C 
BRANCH   4   5
ATOM      5  C   UNL     1      51.091   6.728  17.164  0.00  0.00    +0.000 C 
ATOM      6  O   UNL     1      52.118   6.559  17.794  0.00  0.00    +0.000 OA
BRANCH   5   7
ATOM      7  C   UNL     1      49.780   6.403  17.745  0.00  0.00    +0.000 A 
ATOM      8  C   UNL     1      49.028   7.304  18.471  0.00  0.00    +0.000 A 
ATOM      9  S   UNL     1      47.487   6.707  18.903  0.00  0.00    +0.000 S 
ATOM     10  C   UNL     1      47.786   5.217  18.138  0.00  0.00    +0.000 A 
ATOM     11  N   UNL     1      46.837   4.246  18.074  0.00  0.00    +0.000 NA
ATOM     12  C   UNL     1      47.191   3.205  17.394  0.00  0.00    +0.000 A 
ATOM     13  N   UNL     1      48.426   3.028  16.817  0.00  0.00    +0.000 N 
ATOM     14  C   UNL     1      49.479   3.866  17.090  0.00  0.00    +0.000 A 
ATOM     15  O   UNL     1      50.648   3.484  17.003  0.00  0.00    +0.000 OA
ATOM     16  C   UNL     1      49.075   5.149  17.636  0.00  0.00    +0.000 A 
ATOM     17  H   UNL     1      48.666   2.140  16.404  0.00  0.00    +0.000 HD
ENDBRANCH   5   7
ENDBRANCH   4   5
ENDBRANCH   1   4
BRANCH   1  18
ATOM     18  C   UNL     1      49.211   7.639  14.273  0.00  0.00    +0.000 C 
BRANCH  18  19
ATOM     19  C   UNL     1      48.164   6.892  13.507  0.00  0.00    +0.000 A 
ATOM     20  C   UNL     1      47.531   5.797  14.101  0.00  0.00    +0.000 A 
ATOM     21  C   UNL     1      46.517   5.122  13.429  0.00  0.00    +0.000 A 
ATOM     22  C   UNL     1      46.138   5.530  12.137  0.00  0.00    +0.000 A 
ATOM     23  C   UNL     1      46.794   6.615  11.548  0.00  0.00    +0.000 A 
ATOM     24  C   UNL     1      47.803   7.288  12.216  0.00  0.00    +0.000 A 
BRANCH  22  25
ATOM     25  C   UNL     1      45.061   4.809  11.361  0.00  0.00    +0.000 C 
BRANCH  25  26
ATOM     26  O   UNL     1      43.779   5.359  11.684  0.00  0.00    +0.000 OA
ATOM     27  H   UNL     1      43.692   5.336  12.651  0.00  0.00    +0.000 HD
ENDBRANCH  25  26
BRANCH  25  28
ATOM     28  C   UNL     1      45.279   4.881   9.813  0.00  0.00    +0.000 C 
BRANCH  28  29
ATOM     29  N   UNL     1      44.508   3.854   9.085  0.00  0.00    +0.000 NA
ATOM     30  C   UNL     1      45.078   3.594   7.763  0.00  0.00    +0.000 C 
ATOM     31  C   UNL     1      46.058   2.467   7.978  0.00  0.00    +0.000 C 
ATOM     32  O   UNL     1      45.613   1.761   9.135  0.00  0.00    +0.000 OA
ATOM     33  C   UNL     1      44.570   2.541   9.721  0.00  0.00    +0.000 C 
ENDBRANCH  28  29
ENDBRANCH  25  28
ENDBRANCH  22  25
ENDBRANCH  18  19
ENDBRANCH   1  18
TORSDOF 9
ENDMDL
MODEL 9
REMARK VINA RESULT:    -6.406      3.274      4.279
REMARK INTER + INTRA:         -10.455
REMARK INTER:                  -9.508
REMARK INTRA:                  -0.947
REMARK UNBOUND:                -0.866
REMARK  Name = 
REMARK  10 active torsions:
REMARK  status: ('A' for Active; 'I' for Inactive)
REMARK    1  A    between atoms: C_1  and  C_2
REMARK    2  A    between atoms: C_2  and  N_3
REMARK    3  A    between atoms: C_2  and  C_19
REMARK    4  A    between atoms: N_3  and  C_4
REMARK    5  A    between atoms: C_4  and  C_5
REMARK    6  A    between atoms: C_8  and  C_9
REMARK    7  A    between atoms: C_9  and  O_10
REMARK    8  A    between atoms: C_9  and  C_11
REMARK    9  A    between atoms: C_11  and  N_12
REMARK   10  A    between atoms: C_19  and  C_21
REMARK                            x       y       z     vdW  Elec       q    Type
REMARK                         _______ _______ _______ _____ _____    ______ ____
ROOT
ATOM      1  N   UNL     1      48.152   7.309  14.805  0.00  0.00    +0.000 NA
ATOM      2  H   UNL     1      47.967   7.585  15.775  0.00  0.00    +0.000 HD
ENDROOT
BRANCH   1   4
ATOM      3  C   UNL     1      49.428   8.883  13.575  0.00  0.00    +0.000 C 
ATOM      4  C   UNL     1      49.545   7.676  14.497  0.00  0.00    +0.000 C 
BRANCH   4   5
ATOM      5  C   UNL     1      50.304   7.923  15.846  0.00  0.00    +0.000 C 
ATOM      6  O   UNL     1      51.235   8.703  15.910  0.00  0.00    +0.000 OA
BRANCH   5   7
ATOM      7  C   UNL     1      49.787   7.256  17.051  0.00  0.00    +0.000 A 
ATOM      8  C   UNL     1      50.178   5.992  17.445  0.00  0.00    +0.000 A 
ATOM      9  S   UNL     1      49.529   5.522  18.953  0.00  0.00    +0.000 S 
ATOM     10  C   UNL     1      48.696   6.997  19.119  0.00  0.00    +0.000 A 
ATOM     11  N   UNL     1      47.977   7.287  20.236  0.00  0.00    +0.000 NA
ATOM     12  C   UNL     1      47.467   8.475  20.243  0.00  0.00    +0.000 A 
ATOM     13  N   UNL     1      47.569   9.377  19.211  0.00  0.00    +0.000 N 
ATOM     14  C   UNL     1      48.055   9.016  17.979  0.00  0.00    +0.000 A 
ATOM     15  O   UNL     1      47.720   9.610  16.952  0.00  0.00    +0.000 OA
ATOM     16  C   UNL     1      48.844   7.797  17.999  0.00  0.00    +0.000 A 
ATOM     17  H   UNL     1      47.046  10.239  19.242  0.00  0.00    +0.000 HD
ENDBRANCH   5   7
ENDBRANCH   4   5
ENDBRANCH   1   4
BRANCH   1  18
ATOM     18  C   UNL     1      47.954   5.869  14.720  0.00  0.00    +0.000 C 
BRANCH  18  19
ATOM     19  C   UNL     1      47.025   5.546  13.591  0.00  0.00    +0.000 A 
ATOM     20  C   UNL     1      46.899   6.445  12.528  0.00  0.00    +0.000 A 
ATOM     21  C   UNL     1      46.083   6.140  11.443  0.00  0.00    +0.000 A 
ATOM     22  C   UNL     1      45.366   4.930  11.422  0.00  0.00    +0.000 A 
ATOM     23  C   UNL     1      45.488   4.049  12.501  0.00  0.00    +0.000 A 
ATOM     24  C   UNL     1      46.299   4.351  13.581  0.00  0.00    +0.000 A 
BRANCH  22  25
ATOM     25  C   UNL     1      44.448   4.571  10.276  0.00  0.00    +0.000 C 
BRANCH  25  26
ATOM     26  O   UNL     1      43.374   5.515  10.202  0.00  0.00    +0.000 OA
ATOM     27  H   UNL     1      43.451   5.972   9.349  0.00  0.00    +0.000 HD
ENDBRANCH  25  26
BRANCH  25  28
ATOM     28  C   UNL     1      45.189   4.521   8.899  0.00  0.00    +0.000 C 
BRANCH  28  29
ATOM     29  N   UNL     1      44.788   3.359   8.083  0.00  0.00    +0.000 NA
ATOM     30  C   UNL     1      45.755   3.093   7.018  0.00  0.00    +0.000 C 
ATOM     31  C   UNL     1      46.738   2.121   7.620  0.00  0.00    +0.000 C 
ATOM     32  O   UNL     1      46.043   1.436   8.660  0.00  0.00    +0.000 OA
ATOM     33  C   UNL     1      44.795   2.108   8.836  0.00  0.00    +0.000 C 
ENDBRANCH  28  29
ENDBRANCH  25  28
ENDBRANCH  22  25
ENDBRANCH  18  19
ENDBRANCH   1  18
TORSDOF 9
ENDMDL
