MODEL 1
REMARK VINA RESULT:    -7.700      0.000      0.000
REMARK INTER + INTRA:         -13.242
REMARK INTER:                 -12.201
REMARK INTRA:                  -1.041
REMARK UNBOUND:                -1.041
REMARK  Name = 
REMARK  13 active torsions:
REMARK  status: ('A' for Active; 'I' for Inactive)
REMARK    1  A    between atoms: C_1  and  C_2
REMARK    2  A    between atoms: C_2  and  O_3
REMARK    3  A    between atoms: O_3  and  C_4
REMARK    4  A    between atoms: C_4  and  C_6
REMARK    5  A    between atoms: C_6  and  O_7
REMARK    6  A    between atoms: O_7  and  C_8
REMARK    7  A    between atoms: C_11  and  C_12
REMARK    8  A    between atoms: C_12  and  C_13
REMARK    9  A    between atoms: C_12  and  C_14
REMARK   10  A    between atoms: C_12  and  C_15
REMARK   11  A    between atoms: C_15  and  O_16
REMARK   12  A    between atoms: O_16  and  C_17
REMARK   13  A    between atoms: C_20  and  C_21
REMARK                            x       y       z     vdW  Elec       q    Type
REMARK                         _______ _______ _______ _____ _____    ______ ____
ROOT
ATOM      1  C   UNL     1      47.493   5.537  13.960  0.00  0.00    +0.000 A 
ATOM      2  C   UNL     1      46.765   6.454  13.239  0.00  0.00    +0.000 A 
ATOM      3  N   UNL     1      45.592   6.155  12.639  0.00  0.00    +0.000 NA
ATOM      4  C   UNL     1      45.125   4.898  12.758  0.00  0.00    +0.000 A 
ATOM      5  N   UNL     1      45.788   3.921  13.408  0.00  0.00    +0.000 NA
ATOM      6  C   UNL     1      46.955   4.266  13.976  0.00  0.00    +0.000 A 
ENDROOT
BRANCH   4   7
ATOM      7  C   UNL     1      43.792   4.525  12.120  0.00  0.00    +0.000 C 
ATOM      8  C   UNL     1      43.471   3.050  12.451  0.00  0.00    +0.000 C 
ATOM      9  C   UNL     1      42.672   5.417  12.688  0.00  0.00    +0.000 C 
BRANCH   7  10
ATOM     10  C   UNL     1      43.857   4.684  10.583  0.00  0.00    +0.000 C 
BRANCH  10  11
ATOM     11  O   UNL     1      43.712   3.415   9.927  0.00  0.00    +0.000 OA
BRANCH  11  12
ATOM     12  C   UNL     1      44.743   3.023   9.120  0.00  0.00    +0.000 A 
ATOM     13  C   UNL     1      45.199   1.712   8.985  0.00  0.00    +0.000 A 
ATOM     14  C   UNL     1      46.199   1.407   8.060  0.00  0.00    +0.000 A 
ATOM     15  C   UNL     1      46.759   2.416   7.270  0.00  0.00    +0.000 A 
ATOM     16  C   UNL     1      46.325   3.736   7.426  0.00  0.00    +0.000 A 
ATOM     17  C   UNL     1      45.324   4.036   8.353  0.00  0.00    +0.000 A 
BRANCH  15  18
ATOM     18  C   UNL     1      47.748   2.088   6.290  0.00  0.00    +0.000 C 
ATOM     19  N   UNL     1      48.566   1.822   5.498  0.00  0.00    +0.000 NA
ENDBRANCH  15  18
ENDBRANCH  11  12
ENDBRANCH  10  11
ENDBRANCH   7  10
ENDBRANCH   4   7
BRANCH   1  20
ATOM     20  O   UNL     1      48.662   5.875  14.564  0.00  0.00    +0.000 OA
BRANCH  20  21
ATOM     21  C   UNL     1      48.509   6.601  15.793  0.00  0.00    +0.000 C 
BRANCH  21  22
ATOM     22  C   UNL     1      48.656   5.634  16.945  0.00  0.00    +0.000 C 
ATOM     23  O   UNL     1      48.072   5.727  18.023  0.00  0.00    +0.000 OA
BRANCH  22  24
ATOM     24  O   UNL     1      49.614   4.704  16.665  0.00  0.00    +0.000 OA
BRANCH  24  26
ATOM     25  C   UNL     1      48.623   2.540  16.758  0.00  0.00    +0.000 C 
ATOM     26  C   UNL     1      49.530   3.524  17.475  0.00  0.00    +0.000 C 
ENDBRANCH  24  26
ENDBRANCH  22  24
ENDBRANCH  21  22
ENDBRANCH  20  21
ENDBRANCH   1  20
TORSDOF 10
ENDMDL
MODEL 2
REMARK VINA RESULT:    -7.136      1.298      1.876
REMARK INTER + INTRA:         -12.349
REMARK INTER:                 -11.521
REMARK INTRA:                  -0.828
REMARK UNBOUND:                -1.041
REMARK  Name = 
REMARK  13 active torsions:
REMARK  status: ('A' for Active; 'I' for Inactive)
REMARK    1  A    between atoms: C_1  and  C_2
REMARK    2  A    between atoms: C_2  and  O_3
REMARK    3  A    between atoms: O_3  and  C_4
REMARK    4  A    between atoms: C_4  and  C_6
REMARK    5  A    between atoms: C_6  and  O_7
REMARK    6  A    between atoms: O_7  and  C_8
REMARK    7  A    between atoms: C_11  and  C_12
REMARK    8  A    between atoms: C_12  and  C_13
REMARK    9  A    between atoms: C_12  and  C_14
REMARK   10  A    between atoms: C_12  and  C_15
REMARK   11  A    between atoms: C_15  and  O_16
REMARK   12  A    between atoms: O_16  and  C_17
REMARK   13  A    between atoms: C_20  and  C_21
REMARK                            x       y       z     vdW  Elec       q    Type
REMARK                         _______ _______ _______ _____ _____    ______ ____
ROOT
ATOM      1  C   UNL     1      47.763   6.060  13.236  0.00  0.00    +0.000 A 
ATOM      2  C   UNL     1      47.108   5.076  13.938  0.00  0.00    +0.000 A 
ATOM      3  N   UNL     1      45.886   4.613  13.592  0.00  0.00    +0.000 NA
ATOM      4  C   UNL     1      45.292   5.149  12.509  0.00  0.00    +0.000 A 
ATOM      5  N   UNL     1      45.838   6.146  11.783  0.00  0.00    +0.000 NA
ATOM      6  C   UNL     1      47.046   6.579  12.176  0.00  0.00    +0.000 A 
ENDROOT
BRANCH   4   7
ATOM      7  C   UNL     1      43.926   4.637  12.067  0.00  0.00    +0.000 C 
ATOM      8  C   UNL     1      43.798   3.147  12.456  0.00  0.00    +0.000 C 
ATOM      9  C   UNL     1      42.815   5.433  12.777  0.00  0.00    +0.000 C 
BRANCH   7  10
ATOM     10  C   UNL     1      43.763   4.766  10.535  0.00  0.00    +0.000 C 
BRANCH  10  11
ATOM     11  O   UNL     1      43.631   3.475   9.921  0.00  0.00    +0.000 OA
BRANCH  11  12
ATOM     12  C   UNL     1      44.675   3.060   9.141  0.00  0.00    +0.000 A 
ATOM     13  C   UNL     1      45.111   1.741   9.025  0.00  0.00    +0.000 A 
ATOM     14  C   UNL     1      46.128   1.414   8.126  0.00  0.00    +0.000 A 
ATOM     15  C   UNL     1      46.724   2.409   7.344  0.00  0.00    +0.000 A 
ATOM     16  C   UNL     1      46.309   3.736   7.482  0.00  0.00    +0.000 A 
ATOM     17  C   UNL     1      45.291   4.059   8.382  0.00  0.00    +0.000 A 
BRANCH  15  18
ATOM     18  C   UNL     1      47.730   2.057   6.390  0.00  0.00    +0.000 C 
ATOM     19  N   UNL     1      48.542   1.765   5.602  0.00  0.00    +0.000 NA
ENDBRANCH  15  18
ENDBRANCH  11  12
ENDBRANCH  10  11
ENDBRANCH   7  10
ENDBRANCH   4   7
BRANCH   1  20
ATOM     20  O   UNL     1      48.997   6.492  13.602  0.00  0.00    +0.000 OA
BRANCH  20  21
ATOM     21  C   UNL     1      48.999   7.428  14.692  0.00  0.00    +0.000 C 
BRANCH  21  22
ATOM     22  C   UNL     1      49.327   6.683  15.965  0.00  0.00    +0.000 C 
ATOM     23  O   UNL     1      48.569   6.558  16.925  0.00  0.00    +0.000 OA
BRANCH  22  24
ATOM     24  O   UNL     1      50.625   6.262  15.948  0.00  0.00    +0.000 OA
BRANCH  24  26
ATOM     25  C   UNL     1      52.846   7.112  16.073  0.00  0.00    +0.000 C 
ATOM     26  C   UNL     1      51.499   7.047  16.770  0.00  0.00    +0.000 C 
ENDBRANCH  24  26
ENDBRANCH  22  24
ENDBRANCH  21  22
ENDBRANCH  20  21
ENDBRANCH   1  20
TORSDOF 10
ENDMDL
MODEL 3
REMARK VINA RESULT:    -6.987      1.833      2.656
REMARK INTER + INTRA:         -12.113
REMARK INTER:                 -11.015
REMARK INTRA:                  -1.097
REMARK UNBOUND:                -1.041
REMARK  Name = 
REMARK  13 active torsions:
REMARK  status: ('A' for Active; 'I' for Inactive)
REMARK    1  A    between atoms: C_1  and  C_2
REMARK    2  A    between atoms: C_2  and  O_3
REMARK    3  A    between atoms: O_3  and  C_4
REMARK    4  A    between atoms: C_4  and  C_6
REMARK    5  A    between atoms: C_6  and  O_7
REMARK    6  A    between atoms: O_7  and  C_8
REMARK    7  A    between atoms: C_11  and  C_12
REMARK    8  A    between atoms: C_12  and  C_13
REMARK    9  A    between atoms: C_12  and  C_14
REMARK   10  A    between atoms: C_12  and  C_15
REMARK   11  A    between atoms: C_15  and  O_16
REMARK   12  A    between atoms: O_16  and  C_17
REMARK   13  A    between atoms: C_20  and  C_21
REMARK                            x       y       z     vdW  Elec       q    Type
REMARK                         _______ _______ _______ _____ _____    ______ ____
ROOT
ATOM      1  C   UNL     1      47.651   6.179  12.931  0.00  0.00    +0.000 A 
ATOM      2  C   UNL     1      46.949   5.380  13.801  0.00  0.00    +0.000 A 
ATOM      3  N   UNL     1      45.721   4.890  13.523  0.00  0.00    +0.000 NA
ATOM      4  C   UNL     1      45.168   5.208  12.337  0.00  0.00    +0.000 A 
ATOM      5  N   UNL     1      45.762   6.019  11.438  0.00  0.00    +0.000 NA
ATOM      6  C   UNL     1      46.975   6.490  11.768  0.00  0.00    +0.000 A 
ENDROOT
BRANCH   4   7
ATOM      7  C   UNL     1      43.796   4.655  11.971  0.00  0.00    +0.000 C 
ATOM      8  C   UNL     1      43.656   3.232  12.555  0.00  0.00    +0.000 C 
ATOM      9  C   UNL     1      42.694   5.549  12.570  0.00  0.00    +0.000 C 
BRANCH   7  10
ATOM     10  C   UNL     1      43.628   4.580  10.436  0.00  0.00    +0.000 C 
BRANCH  10  11
ATOM     11  O   UNL     1      43.685   3.220   9.978  0.00  0.00    +0.000 OA
BRANCH  11  12
ATOM     12  C   UNL     1      44.715   2.900   9.138  0.00  0.00    +0.000 A 
ATOM     13  C   UNL     1      45.242   1.620   8.970  0.00  0.00    +0.000 A 
ATOM     14  C   UNL     1      46.234   1.388   8.015  0.00  0.00    +0.000 A 
ATOM     15  C   UNL     1      46.713   2.440   7.228  0.00  0.00    +0.000 A 
ATOM     16  C   UNL     1      46.208   3.729   7.417  0.00  0.00    +0.000 A 
ATOM     17  C   UNL     1      45.217   3.957   8.374  0.00  0.00    +0.000 A 
BRANCH  15  18
ATOM     18  C   UNL     1      47.694   2.183   6.218  0.00  0.00    +0.000 C 
ATOM     19  N   UNL     1      48.484   1.972   5.383  0.00  0.00    +0.000 NA
ENDBRANCH  15  18
ENDBRANCH  11  12
ENDBRANCH  10  11
ENDBRANCH   7  10
ENDBRANCH   4   7
BRANCH   1  20
ATOM     20  O   UNL     1      48.891   6.644  13.236  0.00  0.00    +0.000 OA
BRANCH  20  21
ATOM     21  C   UNL     1      49.075   6.983  14.619  0.00  0.00    +0.000 C 
BRANCH  21  22
ATOM     22  C   UNL     1      48.889   8.474  14.778  0.00  0.00    +0.000 C 
ATOM     23  O   UNL     1      49.511   9.333  14.155  0.00  0.00    +0.000 OA
BRANCH  22  24
ATOM     24  O   UNL     1      48.014   8.738  15.790  0.00  0.00    +0.000 OA
BRANCH  24  26
ATOM     25  C   UNL     1      48.013  10.297  17.591  0.00  0.00    +0.000 C 
ATOM     26  C   UNL     1      48.649   9.032  17.042  0.00  0.00    +0.000 C 
ENDBRANCH  24  26
ENDBRANCH  22  24
ENDBRANCH  21  22
ENDBRANCH  20  21
ENDBRANCH   1  20
TORSDOF 10
ENDMDL
MODEL 4
REMARK VINA RESULT:    -5.921      2.856      8.691
REMARK INTER + INTRA:         -10.424
REMARK INTER:                  -9.157
REMARK INTRA:                  -1.267
REMARK UNBOUND:                -1.041
REMARK  Name = 
REMARK  13 active torsions:
REMARK  status: ('A' for Active; 'I' for Inactive)
REMARK    1  A    between atoms: C_1  and  C_2
REMARK    2  A    between atoms: C_2  and  O_3
REMARK    3  A    between atoms: O_3  and  C_4
REMARK    4  A    between atoms: C_4  and  C_6
REMARK    5  A    between atoms: C_6  and  O_7
REMARK    6  A    between atoms: O_7  and  C_8
REMARK    7  A    between atoms: C_11  and  C_12
REMARK    8  A    between atoms: C_12  and  C_13
REMARK    9  A    between atoms: C_12  and  C_14
REMARK   10  A    between atoms: C_12  and  C_15
REMARK   11  A    between atoms: C_15  and  O_16
REMARK   12  A    between atoms: O_16  and  C_17
REMARK   13  A    between atoms: C_20  and  C_21
REMARK                            x       y       z     vdW  Elec       q    Type
REMARK                         _______ _______ _______ _____ _____    ______ ____
ROOT
ATOM      1  C   UNL     1      45.560   4.966  13.306  0.00  0.00    +0.000 A 
ATOM      2  C   UNL     1      45.296   6.254  12.904  0.00  0.00    +0.000 A 
ATOM      3  N   UNL     1      46.255   7.198  12.782  0.00  0.00    +0.000 NA
ATOM      4  C   UNL     1      47.523   6.851  13.072  0.00  0.00    +0.000 A 
ATOM      5  N   UNL     1      47.872   5.625  13.514  0.00  0.00    +0.000 NA
ATOM      6  C   UNL     1      46.881   4.728  13.631  0.00  0.00    +0.000 A 
ENDROOT
BRANCH   4   7
ATOM      7  C   UNL     1      48.640   7.877  12.921  0.00  0.00    +0.000 C 
ATOM      8  C   UNL     1      49.398   7.605  11.603  0.00  0.00    +0.000 C 
ATOM      9  C   UNL     1      48.042   9.296  12.867  0.00  0.00    +0.000 C 
BRANCH   7  10
ATOM     10  C   UNL     1      49.638   7.776  14.097  0.00  0.00    +0.000 C 
BRANCH  10  11
ATOM     11  O   UNL     1      49.349   8.759  15.104  0.00  0.00    +0.000 OA
BRANCH  11  12
ATOM     12  C   UNL     1      48.940   8.287  16.319  0.00  0.00    +0.000 A 
ATOM     13  C   UNL     1      48.262   9.034  17.281  0.00  0.00    +0.000 A 
ATOM     14  C   UNL     1      47.807   8.427  18.453  0.00  0.00    +0.000 A 
ATOM     15  C   UNL     1      48.038   7.065  18.675  0.00  0.00    +0.000 A 
ATOM     16  C   UNL     1      48.744   6.321  17.726  0.00  0.00    +0.000 A 
ATOM     17  C   UNL     1      49.198   6.933  16.556  0.00  0.00    +0.000 A 
BRANCH  15  18
ATOM     18  C   UNL     1      47.524   6.439  19.854  0.00  0.00    +0.000 C 
ATOM     19  N   UNL     1      47.118   5.928  20.824  0.00  0.00    +0.000 NA
ENDBRANCH  15  18
ENDBRANCH  11  12
ENDBRANCH  10  11
ENDBRANCH   7  10
ENDBRANCH   4   7
BRANCH   1  20
ATOM     20  O   UNL     1      44.574   4.036  13.405  0.00  0.00    +0.000 OA
BRANCH  20  21
ATOM     21  C   UNL     1      43.354   4.391  12.736  0.00  0.00    +0.000 C 
BRANCH  21  22
ATOM     22  C   UNL     1      43.211   3.526  11.505  0.00  0.00    +0.000 C 
ATOM     23  O   UNL     1      43.005   2.314  11.514  0.00  0.00    +0.000 OA
BRANCH  22  24
ATOM     24  O   UNL     1      43.455   4.258  10.380  0.00  0.00    +0.000 OA
BRANCH  24  26
ATOM     25  C   UNL     1      44.630   3.693   8.388  0.00  0.00    +0.000 C 
ATOM     26  C   UNL     1      44.775   4.081   9.848  0.00  0.00    +0.000 C 
ENDBRANCH  24  26
ENDBRANCH  22  24
ENDBRANCH  21  22
ENDBRANCH  20  21
ENDBRANCH   1  20
TORSDOF 10
ENDMDL
MODEL 5
REMARK VINA RESULT:    -5.718      2.514      8.342
REMARK INTER + INTRA:         -10.102
REMARK INTER:                  -8.973
REMARK INTRA:                  -1.129
REMARK UNBOUND:                -1.041
REMARK  Name = 
REMARK  13 active torsions:
REMARK  status: ('A' for Active; 'I' for Inactive)
REMARK    1  A    between atoms: C_1  and  C_2
REMARK    2  A    between atoms: C_2  and  O_3
REMARK    3  A    between atoms: O_3  and  C_4
REMARK    4  A    between atoms: C_4  and  C_6
REMARK    5  A    between atoms: C_6  and  O_7
REMARK    6  A    between atoms: O_7  and  C_8
REMARK    7  A    between atoms: C_11  and  C_12
REMARK    8  A    between atoms: C_12  and  C_13
REMARK    9  A    between atoms: C_12  and  C_14
REMARK   10  A    between atoms: C_12  and  C_15
REMARK   11  A    between atoms: C_15  and  O_16
REMARK   12  A    between atoms: O_16  and  C_17
REMARK   13  A    between atoms: C_20  and  C_21
REMARK                            x       y       z     vdW  Elec       q    Type
REMARK                         _______ _______ _______ _____ _____    ______ ____
ROOT
ATOM      1  C   UNL     1      44.730   6.326  11.740  0.00  0.00    +0.000 A 
ATOM      2  C   UNL     1      45.885   6.098  11.030  0.00  0.00    +0.000 A 
ATOM      3  N   UNL     1      47.079   6.627  11.377  0.00  0.00    +0.000 NA
ATOM      4  C   UNL     1      47.128   7.413  12.469  0.00  0.00    +0.000 A 
ATOM      5  N   UNL     1      46.041   7.727  13.204  0.00  0.00    +0.000 NA
ATOM      6  C   UNL     1      44.877   7.187  12.809  0.00  0.00    +0.000 A 
ENDROOT
BRANCH   4   7
ATOM      7  C   UNL     1      48.459   8.007  12.913  0.00  0.00    +0.000 C 
ATOM      8  C   UNL     1      49.596   7.366  12.086  0.00  0.00    +0.000 C 
ATOM      9  C   UNL     1      48.462   9.527  12.666  0.00  0.00    +0.000 C 
BRANCH   7  10
ATOM     10  C   UNL     1      48.714   7.721  14.411  0.00  0.00    +0.000 C 
BRANCH  10  11
ATOM     11  O   UNL     1      48.807   6.310  14.657  0.00  0.00    +0.000 OA
BRANCH  11  12
ATOM     12  C   UNL     1      48.645   5.903  15.952  0.00  0.00    +0.000 A 
ATOM     13  C   UNL     1      47.851   4.833  16.362  0.00  0.00    +0.000 A 
ATOM     14  C   UNL     1      47.831   4.444  17.702  0.00  0.00    +0.000 A 
ATOM     15  C   UNL     1      48.599   5.134  18.646  0.00  0.00    +0.000 A 
ATOM     16  C   UNL     1      49.372   6.226  18.243  0.00  0.00    +0.000 A 
ATOM     17  C   UNL     1      49.389   6.611  16.901  0.00  0.00    +0.000 A 
BRANCH  15  18
ATOM     18  C   UNL     1      48.612   4.698  20.009  0.00  0.00    +0.000 C 
ATOM     19  N   UNL     1      48.610   4.337  21.121  0.00  0.00    +0.000 NA
ENDBRANCH  15  18
ENDBRANCH  11  12
ENDBRANCH  10  11
ENDBRANCH   7  10
ENDBRANCH   4   7
BRANCH   1  20
ATOM     20  O   UNL     1      43.548   5.767  11.371  0.00  0.00    +0.000 OA
BRANCH  20  21
ATOM     21  C   UNL     1      43.011   4.834  12.320  0.00  0.00    +0.000 C 
BRANCH  21  22
ATOM     22  C   UNL     1      43.383   3.435  11.884  0.00  0.00    +0.000 C 
ATOM     23  O   UNL     1      43.718   2.526  12.640  0.00  0.00    +0.000 OA
BRANCH  22  24
ATOM     24  O   UNL     1      43.403   3.353  10.523  0.00  0.00    +0.000 OA
BRANCH  24  26
ATOM     25  C   UNL     1      44.732   3.173   8.554  0.00  0.00    +0.000 C 
ATOM     26  C   UNL     1      44.584   2.729   9.998  0.00  0.00    +0.000 C 
ENDBRANCH  24  26
ENDBRANCH  22  24
ENDBRANCH  21  22
ENDBRANCH  20  21
ENDBRANCH   1  20
TORSDOF 10
ENDMDL
MODEL 6
REMARK VINA RESULT:    -5.584      3.599      8.769
REMARK INTER + INTRA:          -9.890
REMARK INTER:                  -8.892
REMARK INTRA:                  -0.998
REMARK UNBOUND:                -1.041
REMARK  Name = 
REMARK  13 active torsions:
REMARK  status: ('A' for Active; 'I' for Inactive)
REMARK    1  A    between atoms: C_1  and  C_2
REMARK    2  A    between atoms: C_2  and  O_3
REMARK    3  A    between atoms: O_3  and  C_4
REMARK    4  A    between atoms: C_4  and  C_6
REMARK    5  A    between atoms: C_6  and  O_7
REMARK    6  A    between atoms: O_7  and  C_8
REMARK    7  A    between atoms: C_11  and  C_12
REMARK    8  A    between atoms: C_12  and  C_13
REMARK    9  A    between atoms: C_12  and  C_14
REMARK   10  A    between atoms: C_12  and  C_15
REMARK   11  A    between atoms: C_15  and  O_16
REMARK   12  A    between atoms: O_16  and  C_17
REMARK   13  A    between atoms: C_20  and  C_21
REMARK                            x       y       z     vdW  Elec       q    Type
REMARK                         _______ _______ _______ _____ _____    ______ ____
ROOT
ATOM      1  C   UNL     1      47.433   5.623  13.564  0.00  0.00    +0.000 A 
ATOM      2  C   UNL     1      48.198   6.300  14.484  0.00  0.00    +0.000 A 
ATOM      3  N   UNL     1      48.353   5.885  15.760  0.00  0.00    +0.000 NA
ATOM      4  C   UNL     1      47.723   4.757  16.138  0.00  0.00    +0.000 A 
ATOM      5  N   UNL     1      46.919   4.049  15.319  0.00  0.00    +0.000 NA
ATOM      6  C   UNL     1      46.788   4.510  14.065  0.00  0.00    +0.000 A 
ENDROOT
BRANCH   4   7
ATOM      7  C   UNL     1      47.892   4.238  17.561  0.00  0.00    +0.000 C 
ATOM      8  C   UNL     1      47.210   5.220  18.539  0.00  0.00    +0.000 C 
ATOM      9  C   UNL     1      47.225   2.856  17.697  0.00  0.00    +0.000 C 
BRANCH   7  10
ATOM     10  C   UNL     1      49.390   4.132  17.930  0.00  0.00    +0.000 C 
BRANCH  10  11
ATOM     11  O   UNL     1      50.094   3.306  16.990  0.00  0.00    +0.000 OA
BRANCH  11  12
ATOM     12  C   UNL     1      51.294   2.797  17.403  0.00  0.00    +0.000 A 
ATOM     13  C   UNL     1      52.348   3.551  17.917  0.00  0.00    +0.000 A 
ATOM     14  C   UNL     1      53.496   2.918  18.397  0.00  0.00    +0.000 A 
ATOM     15  C   UNL     1      53.602   1.525  18.354  0.00  0.00    +0.000 A 
ATOM     16  C   UNL     1      52.560   0.769  17.811  0.00  0.00    +0.000 A 
ATOM     17  C   UNL     1      51.413   1.406  17.331  0.00  0.00    +0.000 A 
BRANCH  15  18
ATOM     18  C   UNL     1      54.761   0.881  18.894  0.00  0.00    +0.000 C 
ATOM     19  N   UNL     1      55.714   0.368  19.334  0.00  0.00    +0.000 NA
ENDBRANCH  15  18
ENDBRANCH  11  12
ENDBRANCH  10  11
ENDBRANCH   7  10
ENDBRANCH   4   7
BRANCH   1  20
ATOM     20  O   UNL     1      47.310   6.060  12.283  0.00  0.00    +0.000 OA
BRANCH  20  21
ATOM     21  C   UNL     1      46.346   7.109  12.104  0.00  0.00    +0.000 C 
BRANCH  21  22
ATOM     22  C   UNL     1      45.187   6.566  11.300  0.00  0.00    +0.000 C 
ATOM     23  O   UNL     1      44.023   6.949  11.393  0.00  0.00    +0.000 OA
BRANCH  22  24
ATOM     24  O   UNL     1      45.593   5.512  10.535  0.00  0.00    +0.000 OA
BRANCH  24  26
ATOM     25  C   UNL     1      44.883   3.297  11.049  0.00  0.00    +0.000 C 
ATOM     26  C   UNL     1      44.557   4.557  10.268  0.00  0.00    +0.000 C 
ENDBRANCH  24  26
ENDBRANCH  22  24
ENDBRANCH  21  22
ENDBRANCH  20  21
ENDBRANCH   1  20
TORSDOF 10
ENDMDL
MODEL 7
REMARK VINA RESULT:    -5.565      3.069      8.765
REMARK INTER + INTRA:          -9.859
REMARK INTER:                  -9.035
REMARK INTRA:                  -0.825
REMARK UNBOUND:                -1.041
REMARK  Name = 
REMARK  13 active torsions:
REMARK  status: ('A' for Active; 'I' for Inactive)
REMARK    1  A    between atoms: C_1  and  C_2
REMARK    2  A    between atoms: C_2  and  O_3
REMARK    3  A    between atoms: O_3  and  C_4
REMARK    4  A    between atoms: C_4  and  C_6
REMARK    5  A    between atoms: C_6  and  O_7
REMARK    6  A    between atoms: O_7  and  C_8
REMARK    7  A    between atoms: C_11  and  C_12
REMARK    8  A    between atoms: C_12  and  C_13
REMARK    9  A    between atoms: C_12  and  C_14
REMARK   10  A    between atoms: C_12  and  C_15
REMARK   11  A    between atoms: C_15  and  O_16
REMARK   12  A    between atoms: O_16  and  C_17
REMARK   13  A    between atoms: C_20  and  C_21
REMARK                            x       y       z     vdW  Elec       q    Type
REMARK                         _______ _______ _______ _____ _____    ______ ____
ROOT
ATOM      1  C   UNL     1      46.747   4.308  13.947  0.00  0.00    +0.000 A 
ATOM      2  C   UNL     1      47.277   5.494  13.497  0.00  0.00    +0.000 A 
ATOM      3  N   UNL     1      48.091   6.268  14.248  0.00  0.00    +0.000 NA
ATOM      4  C   UNL     1      48.388   5.850  15.493  0.00  0.00    +0.000 A 
ATOM      5  N   UNL     1      47.883   4.724  16.035  0.00  0.00    +0.000 NA
ATOM      6  C   UNL     1      47.069   3.997  15.253  0.00  0.00    +0.000 A 
ENDROOT
BRANCH   4   7
ATOM      7  C   UNL     1      49.325   6.679  16.364  0.00  0.00    +0.000 C 
ATOM      8  C   UNL     1      49.702   7.972  15.607  0.00  0.00    +0.000 C 
ATOM      9  C   UNL     1      48.617   7.060  17.678  0.00  0.00    +0.000 C 
BRANCH   7  10
ATOM     10  C   UNL     1      50.619   5.893  16.677  0.00  0.00    +0.000 C 
BRANCH  10  11
ATOM     11  O   UNL     1      50.465   5.101  17.865  0.00  0.00    +0.000 OA
BRANCH  11  12
ATOM     12  C   UNL     1      51.111   3.897  17.885  0.00  0.00    +0.000 A 
ATOM     13  C   UNL     1      50.599   2.706  17.372  0.00  0.00    +0.000 A 
ATOM     14  C   UNL     1      51.383   1.551  17.360  0.00  0.00    +0.000 A 
ATOM     15  C   UNL     1      52.684   1.577  17.871  0.00  0.00    +0.000 A 
ATOM     16  C   UNL     1      53.189   2.762  18.413  0.00  0.00    +0.000 A 
ATOM     17  C   UNL     1      52.401   3.916  18.425  0.00  0.00    +0.000 A 
BRANCH  15  18
ATOM     18  C   UNL     1      53.498   0.402  17.809  0.00  0.00    +0.000 C 
ATOM     19  N   UNL     1      54.170  -0.553  17.769  0.00  0.00    +0.000 NA
ENDBRANCH  15  18
ENDBRANCH  11  12
ENDBRANCH  10  11
ENDBRANCH   7  10
ENDBRANCH   4   7
BRANCH   1  20
ATOM     20  O   UNL     1      45.942   3.546  13.161  0.00  0.00    +0.000 OA
BRANCH  20  21
ATOM     21  C   UNL     1      44.745   4.205  12.721  0.00  0.00    +0.000 C 
BRANCH  21  22
ATOM     22  C   UNL     1      44.191   3.455  11.532  0.00  0.00    +0.000 C 
ATOM     23  O   UNL     1      43.158   2.789  11.536  0.00  0.00    +0.000 OA
BRANCH  22  24
ATOM     24  O   UNL     1      45.058   3.526  10.481  0.00  0.00    +0.000 OA
BRANCH  24  26
ATOM     25  C   UNL     1      44.979   3.362   8.106  0.00  0.00    +0.000 C 
ATOM     26  C   UNL     1      44.748   2.622   9.412  0.00  0.00    +0.000 C 
ENDBRANCH  24  26
ENDBRANCH  22  24
ENDBRANCH  21  22
ENDBRANCH  20  21
ENDBRANCH   1  20
TORSDOF 10
ENDMDL
MODEL 8
REMARK VINA RESULT:    -5.253      3.361      5.110
REMARK INTER + INTRA:          -9.365
REMARK INTER:                  -8.084
REMARK INTRA:                  -1.281
REMARK UNBOUND:                -1.041
REMARK  Name = 
REMARK  13 active torsions:
REMARK  status: ('A' for Active; 'I' for Inactive)
REMARK    1  A    between atoms: C_1  and  C_2
REMARK    2  A    between atoms: C_2  and  O_3
REMARK    3  A    between atoms: O_3  and  C_4
REMARK    4  A    between atoms: C_4  and  C_6
REMARK    5  A    between atoms: C_6  and  O_7
REMARK    6  A    between atoms: O_7  and  C_8
REMARK    7  A    between atoms: C_11  and  C_12
REMARK    8  A    between atoms: C_12  and  C_13
REMARK    9  A    between atoms: C_12  and  C_14
REMARK   10  A    between atoms: C_12  and  C_15
REMARK   11  A    between atoms: C_15  and  O_16
REMARK   12  A    between atoms: O_16  and  C_17
REMARK   13  A    between atoms: C_20  and  C_21
REMARK                            x       y       z     vdW  Elec       q    Type
REMARK                         _______ _______ _______ _____ _____    ______ ____
ROOT
ATOM      1  C   UNL     1      49.055   7.802  16.385  0.00  0.00    +0.000 A 
ATOM      2  C   UNL     1      48.588   8.958  15.805  0.00  0.00    +0.000 A 
ATOM      3  N   UNL     1      48.632   9.183  14.473  0.00  0.00    +0.000 NA
ATOM      4  C   UNL     1      49.161   8.226  13.688  0.00  0.00    +0.000 A 
ATOM      5  N   UNL     1      49.682   7.079  14.169  0.00  0.00    +0.000 NA
ATOM      6  C   UNL     1      49.626   6.909  15.500  0.00  0.00    +0.000 A 
ENDROOT
BRANCH   4   7
ATOM      7  C   UNL     1      49.205   8.427  12.178  0.00  0.00    +0.000 C 
ATOM      8  C   UNL     1      48.761   9.871  11.850  0.00  0.00    +0.000 C 
ATOM      9  C   UNL     1      50.642   8.220  11.664  0.00  0.00    +0.000 C 
BRANCH   7  10
ATOM     10  C   UNL     1      48.250   7.442  11.467  0.00  0.00    +0.000 C 
BRANCH  10  11
ATOM     11  O   UNL     1      46.897   7.624  11.913  0.00  0.00    +0.000 OA
BRANCH  11  12
ATOM     12  C   UNL     1      46.058   6.553  11.774  0.00  0.00    +0.000 A 
ATOM     13  C   UNL     1      45.763   5.920  10.567  0.00  0.00    +0.000 A 
ATOM     14  C   UNL     1      44.965   4.774  10.552  0.00  0.00    +0.000 A 
ATOM     15  C   UNL     1      44.448   4.260  11.745  0.00  0.00    +0.000 A 
ATOM     16  C   UNL     1      44.717   4.911  12.952  0.00  0.00    +0.000 A 
ATOM     17  C   UNL     1      45.515   6.058  12.963  0.00  0.00    +0.000 A 
BRANCH  15  18
ATOM     18  C   UNL     1      43.673   3.057  11.726  0.00  0.00    +0.000 C 
ATOM     19  N   UNL     1      43.029   2.082  11.711  0.00  0.00    +0.000 NA
ENDBRANCH  15  18
ENDBRANCH  11  12
ENDBRANCH  10  11
ENDBRANCH   7  10
ENDBRANCH   4   7
BRANCH   1  20
ATOM     20  O   UNL     1      48.984   7.601  17.727  0.00  0.00    +0.000 OA
BRANCH  20  21
ATOM     21  C   UNL     1      49.439   6.310  18.159  0.00  0.00    +0.000 C 
BRANCH  21  22
ATOM     22  C   UNL     1      48.249   5.519  18.650  0.00  0.00    +0.000 C 
ATOM     23  O   UNL     1      47.428   5.917  19.475  0.00  0.00    +0.000 OA
BRANCH  22  24
ATOM     24  O   UNL     1      48.273   4.256  18.135  0.00  0.00    +0.000 OA
BRANCH  24  26
ATOM     25  C   UNL     1      47.439   4.068  15.912  0.00  0.00    +0.000 C 
ATOM     26  C   UNL     1      47.100   3.915  17.383  0.00  0.00    +0.000 C 
ENDBRANCH  24  26
ENDBRANCH  22  24
ENDBRANCH  21  22
ENDBRANCH  20  21
ENDBRANCH   1  20
TORSDOF 10
ENDMDL
