MODEL 1
REMARK VINA RESULT:    -8.456      0.000      0.000
REMARK INTER + INTRA:         -13.048
REMARK INTER:                 -12.411
REMARK INTRA:                  -0.637
REMARK UNBOUND:                -0.637
REMARK  Name = 
REMARK  10 active torsions:
REMARK  status: ('A' for Active; 'I' for Inactive)
REMARK    1  A    between atoms: C_1  and  C_2
REMARK    2  A    between atoms: C_2  and  C_3
REMARK    3  A    between atoms: C_2  and  C_4
REMARK    4  A    between atoms: C_2  and  C_6
REMARK    5  A    between atoms: C_9  and  N_10
REMARK    6  A    between atoms: N_10  and  C_11
REMARK    7  A    between atoms: C_11  and  C_12
REMARK    8  A    between atoms: C_12  and  C_13
REMARK    9  A    between atoms: C_15  and  C_16
REMARK   10  A    between atoms: C_19  and  C_20
REMARK                            x       y       z     vdW  Elec       q    Type
REMARK                         _______ _______ _______ _____ _____    ______ ____
ROOT
ATOM      1  C   UNL     1      44.575   6.555  12.316  0.00  0.00    +0.000 A 
ATOM      2  C   UNL     1      45.102   5.956  11.172  0.00  0.00    +0.000 A 
ATOM      3  C   UNL     1      44.772   4.629  10.851  0.00  0.00    +0.000 A 
ATOM      4  C   UNL     1      43.910   3.964  11.732  0.00  0.00    +0.000 A 
ATOM      5  C   UNL     1      43.434   4.625  12.850  0.00  0.00    +0.000 A 
ATOM      6  N   UNL     1      43.754   5.894  13.161  0.00  0.00    +0.000 NA
ENDROOT
BRANCH   3   7
ATOM      7  C   UNL     1      45.316   3.954   9.649  0.00  0.00    +0.000 A 
ATOM      8  C   UNL     1      45.909   4.677   8.600  0.00  0.00    +0.000 A 
ATOM      9  C   UNL     1      46.443   4.035   7.472  0.00  0.00    +0.000 A 
ATOM     10  C   UNL     1      46.406   2.642   7.367  0.00  0.00    +0.000 A 
ATOM     11  C   UNL     1      45.818   1.908   8.399  0.00  0.00    +0.000 A 
ATOM     12  C   UNL     1      45.274   2.553   9.513  0.00  0.00    +0.000 A 
BRANCH  10  13
ATOM     13  C   UNL     1      46.993   1.932   6.173  0.00  0.00    +0.000 C 
ATOM     14  F   UNL     1      46.469   2.340   4.983  0.00  0.00    +0.000 F 
ATOM     15  F   UNL     1      48.339   2.116   6.069  0.00  0.00    +0.000 F 
ATOM     16  F   UNL     1      46.803   0.585   6.223  0.00  0.00    +0.000 F 
ENDBRANCH  10  13
ENDBRANCH   3   7
BRANCH   1  17
ATOM     17  C   UNL     1      44.977   7.963  12.684  0.00  0.00    +0.000 C 
BRANCH  17  18
ATOM     18  C   UNL     1      46.382   8.043  13.290  0.00  0.00    +0.000 C 
BRANCH  18  19
ATOM     19  N   UNL     1      47.150   6.849  12.916  0.00  0.00    +0.000 N 
ATOM     20  H   UNL     1      47.975   7.068  12.366  0.00  0.00    +0.000 HD
BRANCH  19  24
ATOM     21  C   UNL     1      48.103   4.386  16.115  0.00  0.00    +0.000 A 
ATOM     22  C   UNL     1      48.533   5.711  16.058  0.00  0.00    +0.000 A 
ATOM     23  N   UNL     1      48.252   6.549  15.028  0.00  0.00    +0.000 NA
ATOM     24  C   UNL     1      47.529   6.046  14.008  0.00  0.00    +0.000 A 
ATOM     25  C   UNL     1      47.111   4.717  14.057  0.00  0.00    +0.000 A 
ATOM     26  N   UNL     1      47.378   3.873  15.088  0.00  0.00    +0.000 NA
BRANCH  21  28
ATOM     27  C   UNL     1      48.944   4.306  18.497  0.00  0.00    +0.000 C 
ATOM     28  C   UNL     1      48.414   3.482  17.306  0.00  0.00    +0.000 C 
ATOM     29  C   UNL     1      47.149   2.736  17.782  0.00  0.00    +0.000 C 
BRANCH  28  30
ATOM     30  C   UNL     1      49.432   2.476  16.925  0.00  0.00    +0.000 C 
ATOM     31  N   UNL     1      50.216   1.686  16.600  0.00  0.00    +0.000 NA
ENDBRANCH  28  30
ENDBRANCH  21  28
ENDBRANCH  19  24
ENDBRANCH  18  19
ENDBRANCH  17  18
ENDBRANCH   1  17
TORSDOF 8
ENDMDL
MODEL 2
REMARK VINA RESULT:    -7.684      1.633      2.414
REMARK INTER + INTRA:         -11.915
REMARK INTER:                 -10.951
REMARK INTRA:                  -0.964
REMARK UNBOUND:                -0.637
REMARK  Name = 
REMARK  10 active torsions:
REMARK  status: ('A' for Active; 'I' for Inactive)
REMARK    1  A    between atoms: C_1  and  C_2
REMARK    2  A    between atoms: C_2  and  C_3
REMARK    3  A    between atoms: C_2  and  C_4
REMARK    4  A    between atoms: C_2  and  C_6
REMARK    5  A    between atoms: C_9  and  N_10
REMARK    6  A    between atoms: N_10  and  C_11
REMARK    7  A    between atoms: C_11  and  C_12
REMARK    8  A    between atoms: C_12  and  C_13
REMARK    9  A    between atoms: C_15  and  C_16
REMARK   10  A    between atoms: C_19  and  C_20
REMARK                            x       y       z     vdW  Elec       q    Type
REMARK                         _______ _______ _______ _____ _____    ______ ____
ROOT
ATOM      1  C   UNL     1      44.527   6.540  12.391  0.00  0.00    +0.000 A 
ATOM      2  C   UNL     1      45.115   5.949  11.272  0.00  0.00    +0.000 A 
ATOM      3  C   UNL     1      44.701   4.678  10.843  0.00  0.00    +0.000 A 
ATOM      4  C   UNL     1      43.694   4.057  11.593  0.00  0.00    +0.000 A 
ATOM      5  C   UNL     1      43.165   4.705  12.694  0.00  0.00    +0.000 A 
ATOM      6  N   UNL     1      43.565   5.921  13.110  0.00  0.00    +0.000 NA
ENDROOT
BRANCH   3   7
ATOM      7  C   UNL     1      45.305   4.013   9.665  0.00  0.00    +0.000 A 
ATOM      8  C   UNL     1      45.255   2.618   9.496  0.00  0.00    +0.000 A 
ATOM      9  C   UNL     1      45.809   1.992   8.368  0.00  0.00    +0.000 A 
ATOM     10  C   UNL     1      46.423   2.751   7.368  0.00  0.00    +0.000 A 
ATOM     11  C   UNL     1      46.485   4.137   7.521  0.00  0.00    +0.000 A 
ATOM     12  C   UNL     1      45.945   4.755   8.652  0.00  0.00    +0.000 A 
BRANCH  10  13
ATOM     13  C   UNL     1      47.006   2.097   6.139  0.00  0.00    +0.000 C 
ATOM     14  F   UNL     1      48.325   2.378   5.945  0.00  0.00    +0.000 F 
ATOM     15  F   UNL     1      46.916   0.739   6.181  0.00  0.00    +0.000 F 
ATOM     16  F   UNL     1      46.370   2.479   4.998  0.00  0.00    +0.000 F 
ENDBRANCH  10  13
ENDBRANCH   3   7
BRANCH   1  17
ATOM     17  C   UNL     1      45.015   7.883  12.879  0.00  0.00    +0.000 C 
BRANCH  17  18
ATOM     18  C   UNL     1      46.470   8.165  12.492  0.00  0.00    +0.000 C 
BRANCH  18  19
ATOM     19  N   UNL     1      47.060   9.114  13.444  0.00  0.00    +0.000 N 
ATOM     20  H   UNL     1      46.360   9.632  13.967  0.00  0.00    +0.000 HD
BRANCH  19  24
ATOM     21  C   UNL     1      49.695   7.228  16.032  0.00  0.00    +0.000 A 
ATOM     22  C   UNL     1      49.014   8.388  16.398  0.00  0.00    +0.000 A 
ATOM     23  N   UNL     1      48.150   9.042  15.581  0.00  0.00    +0.000 NA
ATOM     24  C   UNL     1      47.969   8.532  14.346  0.00  0.00    +0.000 A 
ATOM     25  C   UNL     1      48.662   7.382  13.974  0.00  0.00    +0.000 A 
ATOM     26  N   UNL     1      49.520   6.713  14.788  0.00  0.00    +0.000 NA
BRANCH  21  28
ATOM     27  C   UNL     1      52.090   6.548  16.472  0.00  0.00    +0.000 C 
ATOM     28  C   UNL     1      50.638   6.502  16.990  0.00  0.00    +0.000 C 
ATOM     29  C   UNL     1      50.621   7.157  18.388  0.00  0.00    +0.000 C 
BRANCH  28  30
ATOM     30  C   UNL     1      50.222   5.087  17.134  0.00  0.00    +0.000 C 
ATOM     31  N   UNL     1      49.884   3.981  17.219  0.00  0.00    +0.000 NA
ENDBRANCH  28  30
ENDBRANCH  21  28
ENDBRANCH  19  24
ENDBRANCH  18  19
ENDBRANCH  17  18
ENDBRANCH   1  17
TORSDOF 8
ENDMDL
MODEL 3
REMARK VINA RESULT:    -7.537      1.247      2.112
REMARK INTER + INTRA:         -11.699
REMARK INTER:                 -11.236
REMARK INTRA:                  -0.463
REMARK UNBOUND:                -0.637
REMARK  Name = 
REMARK  10 active torsions:
REMARK  status: ('A' for Active; 'I' for Inactive)
REMARK    1  A    between atoms: C_1  and  C_2
REMARK    2  A    between atoms: C_2  and  C_3
REMARK    3  A    between atoms: C_2  and  C_4
REMARK    4  A    between atoms: C_2  and  C_6
REMARK    5  A    between atoms: C_9  and  N_10
REMARK    6  A    between atoms: N_10  and  C_11
REMARK    7  A    between atoms: C_11  and  C_12
REMARK    8  A    between atoms: C_12  and  C_13
REMARK    9  A    between atoms: C_15  and  C_16
REMARK   10  A    between atoms: C_19  and  C_20
REMARK                            x       y       z     vdW  Elec       q    Type
REMARK                         _______ _______ _______ _____ _____    ______ ____
ROOT
ATOM      1  C   UNL     1      44.781   6.362  12.535  0.00  0.00    +0.000 A 
ATOM      2  C   UNL     1      45.342   5.754  11.411  0.00  0.00    +0.000 A 
ATOM      3  C   UNL     1      44.724   4.636  10.828  0.00  0.00    +0.000 A 
ATOM      4  C   UNL     1      43.548   4.179  11.434  0.00  0.00    +0.000 A 
ATOM      5  C   UNL     1      43.057   4.832  12.551  0.00  0.00    +0.000 A 
ATOM      6  N   UNL     1      43.651   5.900  13.113  0.00  0.00    +0.000 NA
ENDROOT
BRANCH   3   7
ATOM      7  C   UNL     1      45.292   3.958   9.639  0.00  0.00    +0.000 A 
ATOM      8  C   UNL     1      45.887   4.680   8.590  0.00  0.00    +0.000 A 
ATOM      9  C   UNL     1      46.444   4.035   7.475  0.00  0.00    +0.000 A 
ATOM     10  C   UNL     1      46.427   2.641   7.381  0.00  0.00    +0.000 A 
ATOM     11  C   UNL     1      45.836   1.908   8.413  0.00  0.00    +0.000 A 
ATOM     12  C   UNL     1      45.270   2.555   9.514  0.00  0.00    +0.000 A 
BRANCH  10  13
ATOM     13  C   UNL     1      47.038   1.929   6.200  0.00  0.00    +0.000 C 
ATOM     14  F   UNL     1      48.384   2.112   6.089  0.00  0.00    +0.000 F 
ATOM     15  F   UNL     1      46.848   0.582   6.250  0.00  0.00    +0.000 F 
ATOM     16  F   UNL     1      46.506   2.339   5.016  0.00  0.00    +0.000 F 
ENDBRANCH  10  13
ENDBRANCH   3   7
BRANCH   1  17
ATOM     17  C   UNL     1      45.479   7.530  13.189  0.00  0.00    +0.000 C 
BRANCH  17  18
ATOM     18  C   UNL     1      46.907   7.735  12.673  0.00  0.00    +0.000 C 
BRANCH  18  19
ATOM     19  N   UNL     1      47.674   6.494  12.833  0.00  0.00    +0.000 N 
ATOM     20  H   UNL     1      48.531   6.488  12.287  0.00  0.00    +0.000 HD
BRANCH  19  24
ATOM     21  C   UNL     1      48.745   5.643  16.748  0.00  0.00    +0.000 A 
ATOM     22  C   UNL     1      47.914   4.796  16.016  0.00  0.00    +0.000 A 
ATOM     23  N   UNL     1      47.532   5.039  14.737  0.00  0.00    +0.000 NA
ATOM     24  C   UNL     1      47.980   6.176  14.169  0.00  0.00    +0.000 A 
ATOM     25  C   UNL     1      48.797   7.031  14.906  0.00  0.00    +0.000 A 
ATOM     26  N   UNL     1      49.195   6.792  16.183  0.00  0.00    +0.000 NA
BRANCH  21  28
ATOM     27  C   UNL     1      48.377   4.127  18.737  0.00  0.00    +0.000 C 
ATOM     28  C   UNL     1      49.178   5.320  18.177  0.00  0.00    +0.000 C 
ATOM     29  C   UNL     1      50.674   4.944  18.233  0.00  0.00    +0.000 C 
BRANCH  28  30
ATOM     30  C   UNL     1      48.962   6.498  19.050  0.00  0.00    +0.000 C 
ATOM     31  N   UNL     1      48.789   7.437  19.708  0.00  0.00    +0.000 NA
ENDBRANCH  28  30
ENDBRANCH  21  28
ENDBRANCH  19  24
ENDBRANCH  18  19
ENDBRANCH  17  18
ENDBRANCH   1  17
TORSDOF 8
ENDMDL
MODEL 4
REMARK VINA RESULT:    -7.475      2.077      3.014
REMARK INTER + INTRA:         -11.607
REMARK INTER:                 -10.758
REMARK INTRA:                  -0.849
REMARK UNBOUND:                -0.637
REMARK  Name = 
REMARK  10 active torsions:
REMARK  status: ('A' for Active; 'I' for Inactive)
REMARK    1  A    between atoms: C_1  and  C_2
REMARK    2  A    between atoms: C_2  and  C_3
REMARK    3  A    between atoms: C_2  and  C_4
REMARK    4  A    between atoms: C_2  and  C_6
REMARK    5  A    between atoms: C_9  and  N_10
REMARK    6  A    between atoms: N_10  and  C_11
REMARK    7  A    between atoms: C_11  and  C_12
REMARK    8  A    between atoms: C_12  and  C_13
REMARK    9  A    between atoms: C_15  and  C_16
REMARK   10  A    between atoms: C_19  and  C_20
REMARK                            x       y       z     vdW  Elec       q    Type
REMARK                         _______ _______ _______ _____ _____    ______ ____
ROOT
ATOM      1  C   UNL     1      44.791   4.794  13.116  0.00  0.00    +0.000 A 
ATOM      2  C   UNL     1      45.387   4.302  11.954  0.00  0.00    +0.000 A 
ATOM      3  C   UNL     1      44.665   4.262  10.750  0.00  0.00    +0.000 A 
ATOM      4  C   UNL     1      43.346   4.728  10.791  0.00  0.00    +0.000 A 
ATOM      5  C   UNL     1      42.823   5.195  11.984  0.00  0.00    +0.000 A 
ATOM      6  N   UNL     1      43.512   5.229  13.140  0.00  0.00    +0.000 NA
ENDROOT
BRANCH   3   7
ATOM      7  C   UNL     1      45.260   3.741   9.497  0.00  0.00    +0.000 A 
ATOM      8  C   UNL     1      45.745   4.599   8.495  0.00  0.00    +0.000 A 
ATOM      9  C   UNL     1      46.328   4.103   7.319  0.00  0.00    +0.000 A 
ATOM     10  C   UNL     1      46.448   2.726   7.115  0.00  0.00    +0.000 A 
ATOM     11  C   UNL     1      45.968   1.858   8.098  0.00  0.00    +0.000 A 
ATOM     12  C   UNL     1      45.376   2.357   9.261  0.00  0.00    +0.000 A 
BRANCH  10  13
ATOM     13  C   UNL     1      47.090   2.174   5.866  0.00  0.00    +0.000 C 
ATOM     14  F   UNL     1      46.662   2.776   4.720  0.00  0.00    +0.000 F 
ATOM     15  F   UNL     1      48.445   2.310   5.874  0.00  0.00    +0.000 F 
ATOM     16  F   UNL     1      46.848   0.845   5.701  0.00  0.00    +0.000 F 
ENDBRANCH  10  13
ENDBRANCH   3   7
BRANCH   1  17
ATOM     17  C   UNL     1      45.554   4.784  14.418  0.00  0.00    +0.000 C 
BRANCH  17  18
ATOM     18  C   UNL     1      46.969   4.214  14.275  0.00  0.00    +0.000 C 
BRANCH  18  19
ATOM     19  N   UNL     1      47.391   3.611  15.545  0.00  0.00    +0.000 N 
ATOM     20  H   UNL     1      48.232   3.049  15.453  0.00  0.00    +0.000 HD
BRANCH  19  24
ATOM     21  C   UNL     1      48.104   6.354  18.572  0.00  0.00    +0.000 A 
ATOM     22  C   UNL     1      47.154   5.343  18.710  0.00  0.00    +0.000 A 
ATOM     23  N   UNL     1      46.882   4.430  17.743  0.00  0.00    +0.000 NA
ATOM     24  C   UNL     1      47.570   4.537  16.589  0.00  0.00    +0.000 A 
ATOM     25  C   UNL     1      48.509   5.557  16.445  0.00  0.00    +0.000 A 
ATOM     26  N   UNL     1      48.796   6.469  17.410  0.00  0.00    +0.000 NA
BRANCH  21  28
ATOM     27  C   UNL     1      48.023   8.781  19.275  0.00  0.00    +0.000 C 
ATOM     28  C   UNL     1      48.403   7.346  19.695  0.00  0.00    +0.000 C 
ATOM     29  C   UNL     1      47.599   7.004  20.967  0.00  0.00    +0.000 C 
BRANCH  28  30
ATOM     30  C   UNL     1      49.845   7.308  20.032  0.00  0.00    +0.000 C 
ATOM     31  N   UNL     1      50.975   7.250  20.285  0.00  0.00    +0.000 NA
ENDBRANCH  28  30
ENDBRANCH  21  28
ENDBRANCH  19  24
ENDBRANCH  18  19
ENDBRANCH  17  18
ENDBRANCH   1  17
TORSDOF 8
ENDMDL
MODEL 5
REMARK VINA RESULT:    -7.199      3.388      4.552
REMARK INTER + INTRA:         -11.202
REMARK INTER:                 -10.249
REMARK INTRA:                  -0.953
REMARK UNBOUND:                -0.637
REMARK  Name = 
REMARK  10 active torsions:
REMARK  status: ('A' for Active; 'I' for Inactive)
REMARK    1  A    between atoms: C_1  and  C_2
REMARK    2  A    between atoms: C_2  and  C_3
REMARK    3  A    between atoms: C_2  and  C_4
REMARK    4  A    between atoms: C_2  and  C_6
REMARK    5  A    between atoms: C_9  and  N_10
REMARK    6  A    between atoms: N_10  and  C_11
REMARK    7  A    between atoms: C_11  and  C_12
REMARK    8  A    between atoms: C_12  and  C_13
REMARK    9  A    between atoms: C_15  and  C_16
REMARK   10  A    between atoms: C_19  and  C_20
REMARK                            x       y       z     vdW  Elec       q    Type
REMARK                         _______ _______ _______ _____ _____    ______ ____
ROOT
ATOM      1  C   UNL     1      44.643   6.270  12.606  0.00  0.00    +0.000 A 
ATOM      2  C   UNL     1      45.220   5.710  11.466  0.00  0.00    +0.000 A 
ATOM      3  C   UNL     1      44.663   4.563  10.880  0.00  0.00    +0.000 A 
ATOM      4  C   UNL     1      43.527   4.028  11.500  0.00  0.00    +0.000 A 
ATOM      5  C   UNL     1      43.016   4.637  12.632  0.00  0.00    +0.000 A 
ATOM      6  N   UNL     1      43.552   5.734  13.197  0.00  0.00    +0.000 NA
ENDROOT
BRANCH   3   7
ATOM      7  C   UNL     1      45.250   3.934   9.674  0.00  0.00    +0.000 A 
ATOM      8  C   UNL     1      45.852   4.698   8.659  0.00  0.00    +0.000 A 
ATOM      9  C   UNL     1      46.427   4.099   7.528  0.00  0.00    +0.000 A 
ATOM     10  C   UNL     1      46.424   2.709   7.384  0.00  0.00    +0.000 A 
ATOM     11  C   UNL     1      45.827   1.934   8.381  0.00  0.00    +0.000 A 
ATOM     12  C   UNL     1      45.243   2.536   9.498  0.00  0.00    +0.000 A 
BRANCH  10  13
ATOM     13  C   UNL     1      47.055   2.046   6.185  0.00  0.00    +0.000 C 
ATOM     14  F   UNL     1      46.603   2.528   4.993  0.00  0.00    +0.000 F 
ATOM     15  F   UNL     1      48.408   2.200   6.159  0.00  0.00    +0.000 F 
ATOM     16  F   UNL     1      46.830   0.704   6.155  0.00  0.00    +0.000 F 
ENDBRANCH  10  13
ENDBRANCH   3   7
BRANCH   1  17
ATOM     17  C   UNL     1      45.279   7.472  13.261  0.00  0.00    +0.000 C 
BRANCH  17  18
ATOM     18  C   UNL     1      45.703   8.546  12.254  0.00  0.00    +0.000 C 
BRANCH  18  19
ATOM     19  N   UNL     1      46.701   9.431  12.865  0.00  0.00    +0.000 N 
ATOM     20  H   UNL     1      46.717   9.364  13.879  0.00  0.00    +0.000 HD
BRANCH  19  24
ATOM     21  C   UNL     1      50.600   8.828  11.587  0.00  0.00    +0.000 A 
ATOM     22  C   UNL     1      49.820   9.871  11.089  0.00  0.00    +0.000 A 
ATOM     23  N   UNL     1      48.539  10.100  11.473  0.00  0.00    +0.000 NA
ATOM     24  C   UNL     1      48.007   9.250  12.374  0.00  0.00    +0.000 A 
ATOM     25  C   UNL     1      48.781   8.198  12.860  0.00  0.00    +0.000 A 
ATOM     26  N   UNL     1      50.068   7.967  12.491  0.00  0.00    +0.000 NA
BRANCH  21  28
ATOM     27  C   UNL     1      52.182   7.369  10.261  0.00  0.00    +0.000 C 
ATOM     28  C   UNL     1      52.050   8.620  11.153  0.00  0.00    +0.000 C 
ATOM     29  C   UNL     1      52.566   9.828  10.342  0.00  0.00    +0.000 C 
BRANCH  28  30
ATOM     30  C   UNL     1      52.916   8.456  12.345  0.00  0.00    +0.000 C 
ATOM     31  N   UNL     1      53.613   8.314  13.260  0.00  0.00    +0.000 NA
ENDBRANCH  28  30
ENDBRANCH  21  28
ENDBRANCH  19  24
ENDBRANCH  18  19
ENDBRANCH  17  18
ENDBRANCH   1  17
TORSDOF 8
ENDMDL
MODEL 6
REMARK VINA RESULT:    -7.113      4.813      8.124
REMARK INTER + INTRA:         -11.077
REMARK INTER:                  -9.843
REMARK INTRA:                  -1.233
REMARK UNBOUND:                -0.637
REMARK  Name = 
REMARK  10 active torsions:
REMARK  status: ('A' for Active; 'I' for Inactive)
REMARK    1  A    between atoms: C_1  and  C_2
REMARK    2  A    between atoms: C_2  and  C_3
REMARK    3  A    between atoms: C_2  and  C_4
REMARK    4  A    between atoms: C_2  and  C_6
REMARK    5  A    between atoms: C_9  and  N_10
REMARK    6  A    between atoms: N_10  and  C_11
REMARK    7  A    between atoms: C_11  and  C_12
REMARK    8  A    between atoms: C_12  and  C_13
REMARK    9  A    between atoms: C_15  and  C_16
REMARK   10  A    between atoms: C_19  and  C_20
REMARK                            x       y       z     vdW  Elec       q    Type
REMARK                         _______ _______ _______ _____ _____    ______ ____
ROOT
ATOM      1  C   UNL     1      46.002   6.321  12.425  0.00  0.00    +0.000 A 
ATOM      2  C   UNL     1      47.330   6.679  12.189  0.00  0.00    +0.000 A 
ATOM      3  C   UNL     1      47.697   8.033  12.125  0.00  0.00    +0.000 A 
ATOM      4  C   UNL     1      46.674   8.972  12.301  0.00  0.00    +0.000 A 
ATOM      5  C   UNL     1      45.380   8.538  12.525  0.00  0.00    +0.000 A 
ATOM      6  N   UNL     1      45.025   7.241  12.582  0.00  0.00    +0.000 NA
ENDROOT
BRANCH   3   7
ATOM      7  C   UNL     1      49.095   8.454  11.869  0.00  0.00    +0.000 A 
ATOM      8  C   UNL     1      49.568   9.720  12.257  0.00  0.00    +0.000 A 
ATOM      9  C   UNL     1      50.898  10.109  12.033  0.00  0.00    +0.000 A 
ATOM     10  C   UNL     1      51.798   9.234  11.420  0.00  0.00    +0.000 A 
ATOM     11  C   UNL     1      51.344   7.974  11.025  0.00  0.00    +0.000 A 
ATOM     12  C   UNL     1      50.015   7.596  11.237  0.00  0.00    +0.000 A 
BRANCH  10  13
ATOM     13  C   UNL     1      53.236   9.627  11.190  0.00  0.00    +0.000 C 
ATOM     14  F   UNL     1      53.954   9.772  12.339  0.00  0.00    +0.000 F 
ATOM     15  F   UNL     1      53.912   8.712  10.442  0.00  0.00    +0.000 F 
ATOM     16  F   UNL     1      53.351  10.810  10.526  0.00  0.00    +0.000 F 
ENDBRANCH  10  13
ENDBRANCH   3   7
BRANCH   1  17
ATOM     17  C   UNL     1      45.604   4.864  12.439  0.00  0.00    +0.000 C 
BRANCH  17  18
ATOM     18  C   UNL     1      44.142   4.642  12.040  0.00  0.00    +0.000 C 
BRANCH  18  19
ATOM     19  N   UNL     1      43.922   5.130  10.673  0.00  0.00    +0.000 N 
ATOM     20  H   UNL     1      44.111   6.123  10.575  0.00  0.00    +0.000 HD
BRANCH  19  24
ATOM     21  C   UNL     1      46.057   2.909   7.896  0.00  0.00    +0.000 A 
ATOM     22  C   UNL     1      46.184   4.295   7.978  0.00  0.00    +0.000 A 
ATOM     23  N   UNL     1      45.500   5.061   8.864  0.00  0.00    +0.000 NA
ATOM     24  C   UNL     1      44.643   4.427   9.691  0.00  0.00    +0.000 A 
ATOM     25  C   UNL     1      44.504   3.043   9.598  0.00  0.00    +0.000 A 
ATOM     26  N   UNL     1      45.193   2.266   8.722  0.00  0.00    +0.000 NA
BRANCH  21  28
ATOM     27  C   UNL     1      46.280   2.192   5.482  0.00  0.00    +0.000 C 
ATOM     28  C   UNL     1      46.867   2.077   6.904  0.00  0.00    +0.000 C 
ATOM     29  C   UNL     1      48.333   2.556   6.843  0.00  0.00    +0.000 C 
BRANCH  28  30
ATOM     30  C   UNL     1      46.860   0.653   7.314  0.00  0.00    +0.000 C 
ATOM     31  N   UNL     1      46.833  -0.467   7.614  0.00  0.00    +0.000 NA
ENDBRANCH  28  30
ENDBRANCH  21  28
ENDBRANCH  19  24
ENDBRANCH  18  19
ENDBRANCH  17  18
ENDBRANCH   1  17
TORSDOF 8
ENDMDL
MODEL 7
REMARK VINA RESULT:    -7.083      3.090      4.836
REMARK INTER + INTRA:         -11.032
REMARK INTER:                  -9.662
REMARK INTRA:                  -1.370
REMARK UNBOUND:                -0.637
REMARK  Name = 
REMARK  10 active torsions:
REMARK  status: ('A' for Active; 'I' for Inactive)
REMARK    1  A    between atoms: C_1  and  C_2
REMARK    2  A    between atoms: C_2  and  C_3
REMARK    3  A    between atoms: C_2  and  C_4
REMARK    4  A    between atoms: C_2  and  C_6
REMARK    5  A    between atoms: C_9  and  N_10
REMARK    6  A    between atoms: N_10  and  C_11
REMARK    7  A    between atoms: C_11  and  C_12
REMARK    8  A    between atoms: C_12  and  C_13
REMARK    9  A    between atoms: C_15  and  C_16
REMARK   10  A    between atoms: C_19  and  C_20
REMARK                            x       y       z     vdW  Elec       q    Type
REMARK                         _______ _______ _______ _____ _____    ______ ____
ROOT
ATOM      1  C   UNL     1      49.806   8.648  12.342  0.00  0.00    +0.000 A 
ATOM      2  C   UNL     1      48.970   7.542  12.181  0.00  0.00    +0.000 A 
ATOM      3  C   UNL     1      47.576   7.705  12.157  0.00  0.00    +0.000 A 
ATOM      4  C   UNL     1      47.092   9.010  12.306  0.00  0.00    +0.000 A 
ATOM      5  C   UNL     1      47.984  10.055  12.467  0.00  0.00    +0.000 A 
ATOM      6  N   UNL     1      49.320   9.899  12.496  0.00  0.00    +0.000 NA
ENDROOT
BRANCH   3   7
ATOM      7  C   UNL     1      46.655   6.555  11.996  0.00  0.00    +0.000 A 
ATOM      8  C   UNL     1      46.306   5.729  13.078  0.00  0.00    +0.000 A 
ATOM      9  C   UNL     1      45.417   4.655  12.929  0.00  0.00    +0.000 A 
ATOM     10  C   UNL     1      44.841   4.380  11.685  0.00  0.00    +0.000 A 
ATOM     11  C   UNL     1      45.179   5.188  10.597  0.00  0.00    +0.000 A 
ATOM     12  C   UNL     1      46.076   6.248  10.748  0.00  0.00    +0.000 A 
BRANCH  10  13
ATOM     13  C   UNL     1      43.867   3.241  11.509  0.00  0.00    +0.000 C 
ATOM     14  F   UNL     1      44.157   2.433  10.451  0.00  0.00    +0.000 F 
ATOM     15  F   UNL     1      43.820   2.425  12.599  0.00  0.00    +0.000 F 
ATOM     16  F   UNL     1      42.592   3.674  11.311  0.00  0.00    +0.000 F 
ENDBRANCH  10  13
ENDBRANCH   3   7
BRANCH   1  17
ATOM     17  C   UNL     1      51.301   8.458  12.421  0.00  0.00    +0.000 C 
BRANCH  17  18
ATOM     18  C   UNL     1      51.796   8.218  13.851  0.00  0.00    +0.000 C 
BRANCH  18  19
ATOM     19  N   UNL     1      50.735   8.561  14.806  0.00  0.00    +0.000 N 
ATOM     20  H   UNL     1      49.940   9.013  14.364  0.00  0.00    +0.000 HD
BRANCH  19  24
ATOM     21  C   UNL     1      49.543   5.257  17.012  0.00  0.00    +0.000 A 
ATOM     22  C   UNL     1      48.619   6.085  16.376  0.00  0.00    +0.000 A 
ATOM     23  N   UNL     1      48.963   7.179  15.651  0.00  0.00    +0.000 NA
ATOM     24  C   UNL     1      50.277   7.472  15.570  0.00  0.00    +0.000 A 
ATOM     25  C   UNL     1      51.200   6.654  16.219  0.00  0.00    +0.000 A 
ATOM     26  N   UNL     1      50.866   5.550  16.937  0.00  0.00    +0.000 NA
BRANCH  21  28
ATOM     27  C   UNL     1      50.054   2.828  17.489  0.00  0.00    +0.000 C 
ATOM     28  C   UNL     1      49.118   4.016  17.794  0.00  0.00    +0.000 C 
ATOM     29  C   UNL     1      49.170   4.272  19.315  0.00  0.00    +0.000 C 
BRANCH  28  30
ATOM     30  C   UNL     1      47.731   3.641  17.432  0.00  0.00    +0.000 C 
ATOM     31  N   UNL     1      46.656   3.330  17.128  0.00  0.00    +0.000 NA
ENDBRANCH  28  30
ENDBRANCH  21  28
ENDBRANCH  19  24
ENDBRANCH  18  19
ENDBRANCH  17  18
ENDBRANCH   1  17
TORSDOF 8
ENDMDL
MODEL 8
REMARK VINA RESULT:    -7.028      3.786      5.333
REMARK INTER + INTRA:         -10.952
REMARK INTER:                  -9.376
REMARK INTRA:                  -1.576
REMARK UNBOUND:                -0.637
REMARK  Name = 
REMARK  10 active torsions:
REMARK  status: ('A' for Active; 'I' for Inactive)
REMARK    1  A    between atoms: C_1  and  C_2
REMARK    2  A    between atoms: C_2  and  C_3
REMARK    3  A    between atoms: C_2  and  C_4
REMARK    4  A    between atoms: C_2  and  C_6
REMARK    5  A    between atoms: C_9  and  N_10
REMARK    6  A    between atoms: N_10  and  C_11
REMARK    7  A    between atoms: C_11  and  C_12
REMARK    8  A    between atoms: C_12  and  C_13
REMARK    9  A    between atoms: C_15  and  C_16
REMARK   10  A    between atoms: C_19  and  C_20
REMARK                            x       y       z     vdW  Elec       q    Type
REMARK                         _______ _______ _______ _____ _____    ______ ____
ROOT
ATOM      1  C   UNL     1      50.020   8.694  13.737  0.00  0.00    +0.000 A 
ATOM      2  C   UNL     1      48.870   7.903  13.736  0.00  0.00    +0.000 A 
ATOM      3  C   UNL     1      48.473   7.231  12.569  0.00  0.00    +0.000 A 
ATOM      4  C   UNL     1      49.278   7.407  11.437  0.00  0.00    +0.000 A 
ATOM      5  C   UNL     1      50.400   8.213  11.515  0.00  0.00    +0.000 A 
ATOM      6  N   UNL     1      50.778   8.861  12.632  0.00  0.00    +0.000 NA
ENDROOT
BRANCH   3   7
ATOM      7  C   UNL     1      47.256   6.388  12.525  0.00  0.00    +0.000 A 
ATOM      8  C   UNL     1      46.904   5.541  13.590  0.00  0.00    +0.000 A 
ATOM      9  C   UNL     1      45.739   4.759  13.556  0.00  0.00    +0.000 A 
ATOM     10  C   UNL     1      44.884   4.811  12.452  0.00  0.00    +0.000 A 
ATOM     11  C   UNL     1      45.219   5.645  11.384  0.00  0.00    +0.000 A 
ATOM     12  C   UNL     1      46.388   6.410  11.416  0.00  0.00    +0.000 A 
BRANCH  10  13
ATOM     13  C   UNL     1      43.617   3.993  12.407  0.00  0.00    +0.000 C 
ATOM     14  F   UNL     1      42.723   4.316  13.384  0.00  0.00    +0.000 F 
ATOM     15  F   UNL     1      42.948   4.137  11.229  0.00  0.00    +0.000 F 
ATOM     16  F   UNL     1      43.854   2.660  12.542  0.00  0.00    +0.000 F 
ENDBRANCH  10  13
ENDBRANCH   3   7
BRANCH   1  17
ATOM     17  C   UNL     1      50.410   9.457  14.980  0.00  0.00    +0.000 C 
BRANCH  17  18
ATOM     18  C   UNL     1      51.655   8.883  15.664  0.00  0.00    +0.000 C 
BRANCH  18  19
ATOM     19  N   UNL     1      51.353   8.581  17.068  0.00  0.00    +0.000 N 
ATOM     20  H   UNL     1      50.867   9.340  17.537  0.00  0.00    +0.000 HD
BRANCH  19  24
ATOM     21  C   UNL     1      49.286   5.006  17.455  0.00  0.00    +0.000 A 
ATOM     22  C   UNL     1      48.799   6.195  17.997  0.00  0.00    +0.000 A 
ATOM     23  N   UNL     1      49.446   7.384  17.901  0.00  0.00    +0.000 NA
ATOM     24  C   UNL     1      50.630   7.389  17.257  0.00  0.00    +0.000 A 
ATOM     25  C   UNL     1      51.124   6.198  16.729  0.00  0.00    +0.000 A 
ATOM     26  N   UNL     1      50.480   5.004  16.809  0.00  0.00    +0.000 NA
BRANCH  21  28
ATOM     27  C   UNL     1      48.371   3.252  19.028  0.00  0.00    +0.000 C 
ATOM     28  C   UNL     1      48.515   3.692  17.557  0.00  0.00    +0.000 C 
ATOM     29  C   UNL     1      47.094   3.835  16.972  0.00  0.00    +0.000 C 
BRANCH  28  30
ATOM     30  C   UNL     1      49.223   2.630  16.804  0.00  0.00    +0.000 C 
ATOM     31  N   UNL     1      49.751   1.789  16.204  0.00  0.00    +0.000 NA
ENDBRANCH  28  30
ENDBRANCH  21  28
ENDBRANCH  19  24
ENDBRANCH  18  19
ENDBRANCH  17  18
ENDBRANCH   1  17
TORSDOF 8
ENDMDL
MODEL 9
REMARK VINA RESULT:    -6.592      4.436      7.442
REMARK INTER + INTRA:         -10.312
REMARK INTER:                  -9.085
REMARK INTRA:                  -1.227
REMARK UNBOUND:                -0.637
REMARK  Name = 
REMARK  10 active torsions:
REMARK  status: ('A' for Active; 'I' for Inactive)
REMARK    1  A    between atoms: C_1  and  C_2
REMARK    2  A    between atoms: C_2  and  C_3
REMARK    3  A    between atoms: C_2  and  C_4
REMARK    4  A    between atoms: C_2  and  C_6
REMARK    5  A    between atoms: C_9  and  N_10
REMARK    6  A    between atoms: N_10  and  C_11
REMARK    7  A    between atoms: C_11  and  C_12
REMARK    8  A    between atoms: C_12  and  C_13
REMARK    9  A    between atoms: C_15  and  C_16
REMARK   10  A    between atoms: C_19  and  C_20
REMARK                            x       y       z     vdW  Elec       q    Type
REMARK                         _______ _______ _______ _____ _____    ______ ____
ROOT
ATOM      1  C   UNL     1      46.815   9.560  12.402  0.00  0.00    +0.000 A 
ATOM      2  C   UNL     1      46.781   8.486  13.293  0.00  0.00    +0.000 A 
ATOM      3  C   UNL     1      47.954   7.773  13.588  0.00  0.00    +0.000 A 
ATOM      4  C   UNL     1      49.124   8.191  12.944  0.00  0.00    +0.000 A 
ATOM      5  C   UNL     1      49.077   9.261  12.069  0.00  0.00    +0.000 A 
ATOM      6  N   UNL     1      47.952   9.943  11.781  0.00  0.00    +0.000 NA
ENDROOT
BRANCH   3   7
ATOM      7  C   UNL     1      47.958   6.623  14.523  0.00  0.00    +0.000 A 
ATOM      8  C   UNL     1      47.216   5.458  14.265  0.00  0.00    +0.000 A 
ATOM      9  C   UNL     1      47.238   4.361  15.141  0.00  0.00    +0.000 A 
ATOM     10  C   UNL     1      48.015   4.398  16.302  0.00  0.00    +0.000 A 
ATOM     11  C   UNL     1      48.756   5.549  16.575  0.00  0.00    +0.000 A 
ATOM     12  C   UNL     1      48.720   6.644  15.708  0.00  0.00    +0.000 A 
BRANCH  10  13
ATOM     13  C   UNL     1      48.067   3.221  17.244  0.00  0.00    +0.000 C 
ATOM     14  F   UNL     1      48.728   3.482  18.407  0.00  0.00    +0.000 F 
ATOM     15  F   UNL     1      46.827   2.791  17.608  0.00  0.00    +0.000 F 
ATOM     16  F   UNL     1      48.691   2.143  16.694  0.00  0.00    +0.000 F 
ENDBRANCH  10  13
ENDBRANCH   3   7
BRANCH   1  17
ATOM     17  C   UNL     1      45.541  10.288  12.049  0.00  0.00    +0.000 C 
BRANCH  17  18
ATOM     18  C   UNL     1      44.836   9.695  10.824  0.00  0.00    +0.000 C 
BRANCH  18  19
ATOM     19  N   UNL     1      43.709   8.861  11.258  0.00  0.00    +0.000 N 
ATOM     20  H   UNL     1      42.853   9.062  10.749  0.00  0.00    +0.000 HD
BRANCH  19  24
ATOM     21  C   UNL     1      44.317   4.759  11.215  0.00  0.00    +0.000 A 
ATOM     22  C   UNL     1      45.364   5.655  11.008  0.00  0.00    +0.000 A 
ATOM     23  N   UNL     1      45.209   7.004  11.005  0.00  0.00    +0.000 NA
ATOM     24  C   UNL     1      43.962   7.478  11.200  0.00  0.00    +0.000 A 
ATOM     25  C   UNL     1      42.913   6.581  11.392  0.00  0.00    +0.000 A 
ATOM     26  N   UNL     1      43.059   5.231  11.407  0.00  0.00    +0.000 NA
BRANCH  21  28
ATOM     27  C   UNL     1      45.670   2.873  12.218  0.00  0.00    +0.000 C 
ATOM     28  C   UNL     1      44.536   3.247  11.241  0.00  0.00    +0.000 C 
ATOM     29  C   UNL     1      43.262   2.509  11.703  0.00  0.00    +0.000 C 
BRANCH  28  30
ATOM     30  C   UNL     1      44.889   2.764   9.886  0.00  0.00    +0.000 C 
ATOM     31  N   UNL     1      45.168   2.358   8.836  0.00  0.00    +0.000 NA
ENDBRANCH  28  30
ENDBRANCH  21  28
ENDBRANCH  19  24
ENDBRANCH  18  19
ENDBRANCH  17  18
ENDBRANCH   1  17
TORSDOF 8
ENDMDL
