MODEL 1
REMARK VINA RESULT:    -7.630      0.000      0.000
REMARK INTER + INTRA:         -10.768
REMARK INTER:                  -9.860
REMARK INTRA:                  -0.908
REMARK UNBOUND:                -0.908
REMARK  Name = 
REMARK  7 active torsions:
REMARK  status: ('A' for Active; 'I' for Inactive)
REMARK    1  A    between atoms: C_1  and  O_2
REMARK    2  A    between atoms: O_2  and  C_3
REMARK    3  A    between atoms: N_6  and  C_7
REMARK    4  A    between atoms: C_7  and  C_8
REMARK    5  A    between atoms: C_12  and  C_13
REMARK    6  A    between atoms: C_17  and  C_18
REMARK    7  A    between atoms: C_23  and  C_24
REMARK                            x       y       z     vdW  Elec       q    Type
REMARK                         _______ _______ _______ _____ _____    ______ ____
ROOT
ATOM      1  C   UNL     1      46.350   1.883   8.119  0.00  0.00    +0.000 A 
ATOM      2  N   UNL     1      45.506   2.096   9.150  0.00  0.00    +0.000 NA
ATOM      3  C   UNL     1      44.754   3.197   9.135  0.00  0.00    +0.000 A 
ATOM      4  N   UNL     1      43.829   3.400  10.144  0.00  0.00    +0.000 N 
ATOM      5  N   UNL     1      44.827   4.122   8.176  0.00  0.00    +0.000 NA
ATOM      6  C   UNL     1      45.695   3.882   7.161  0.00  0.00    +0.000 A 
ATOM      7  C   UNL     1      46.496   2.763   7.068  0.00  0.00    +0.000 A 
ATOM      8  H   UNL     1      43.579   4.382  10.152  0.00  0.00    +0.000 HD
ENDROOT
BRANCH   7   9
ATOM      9  C   UNL     1      47.379   2.606   5.894  0.00  0.00    +0.000 C 
ATOM     10  N   UNL     1      48.691   2.287   6.095  0.00  0.00    +0.000 N 
ATOM     11  O   UNL     1      46.944   2.759   4.759  0.00  0.00    +0.000 OA
ATOM     12  H   UNL     1      49.084   2.140   7.018  0.00  0.00    +0.000 HD
ATOM     13  H   UNL     1      49.281   2.153   5.286  0.00  0.00    +0.000 HD
ENDBRANCH   7   9
BRANCH   1  15
ATOM     14  C   UNL     1      46.406  -0.383   7.527  0.00  0.00    +0.000 C 
ATOM     15  O   UNL     1      47.088   0.714   8.144  0.00  0.00    +0.000 OA
ENDBRANCH   1  15
BRANCH   4  16
ATOM     16  C   UNL     1      44.206   2.821  11.416  0.00  0.00    +0.000 C 
BRANCH  16  17
ATOM     17  C   UNL     1      45.132   3.756  12.152  0.00  0.00    +0.000 A 
ATOM     18  C   UNL     1      46.018   3.290  13.119  0.00  0.00    +0.000 A 
ATOM     19  C   UNL     1      46.825   4.210  13.769  0.00  0.00    +0.000 A 
ATOM     20  N   UNL     1      46.800   5.540  13.526  0.00  0.00    +0.000 NA
ATOM     21  C   UNL     1      45.925   6.000  12.596  0.00  0.00    +0.000 A 
ATOM     22  C   UNL     1      45.089   5.132  11.895  0.00  0.00    +0.000 A 
BRANCH  21  23
ATOM     23  C   UNL     1      45.922   7.459  12.369  0.00  0.00    +0.000 A 
ATOM     24  C   UNL     1      46.986   8.274  12.773  0.00  0.00    +0.000 A 
ATOM     25  C   UNL     1      46.912   9.642  12.564  0.00  0.00    +0.000 A 
ATOM     26  N   UNL     1      45.861  10.253  11.982  0.00  0.00    +0.000 NA
ATOM     27  C   UNL     1      44.837   9.470  11.573  0.00  0.00    +0.000 A 
ATOM     28  C   UNL     1      43.665  10.152  10.936  0.00  0.00    +0.000 C 
ATOM     29  C   UNL     1      44.837   8.087  11.740  0.00  0.00    +0.000 A 
ENDBRANCH  21  23
ENDBRANCH  16  17
ENDBRANCH   4  16
TORSDOF 5
ENDMDL
MODEL 2
REMARK VINA RESULT:    -7.358      3.466      7.622
REMARK INTER + INTRA:         -10.416
REMARK INTER:                  -9.594
REMARK INTRA:                  -0.822
REMARK UNBOUND:                -0.908
REMARK  Name = 
REMARK  7 active torsions:
REMARK  status: ('A' for Active; 'I' for Inactive)
REMARK    1  A    between atoms: C_1  and  O_2
REMARK    2  A    between atoms: O_2  and  C_3
REMARK    3  A    between atoms: N_6  and  C_7
REMARK    4  A    between atoms: C_7  and  C_8
REMARK    5  A    between atoms: C_12  and  C_13
REMARK    6  A    between atoms: C_17  and  C_18
REMARK    7  A    between atoms: C_23  and  C_24
REMARK                            x       y       z     vdW  Elec       q    Type
REMARK                         _______ _______ _______ _____ _____    ______ ____
ROOT
ATOM      1  C   UNL     1      48.404   8.656  12.183  0.00  0.00    +0.000 A 
ATOM      2  N   UNL     1      47.133   8.210  12.272  0.00  0.00    +0.000 NA
ATOM      3  C   UNL     1      46.872   7.205  13.110  0.00  0.00    +0.000 A 
ATOM      4  N   UNL     1      45.565   6.780  13.272  0.00  0.00    +0.000 N 
ATOM      5  N   UNL     1      47.811   6.589  13.830  0.00  0.00    +0.000 NA
ATOM      6  C   UNL     1      49.079   7.055  13.708  0.00  0.00    +0.000 A 
ATOM      7  C   UNL     1      49.449   8.104  12.892  0.00  0.00    +0.000 A 
ATOM      8  H   UNL     1      45.583   5.853  13.681  0.00  0.00    +0.000 HD
ENDROOT
BRANCH   7   9
ATOM      9  C   UNL     1      50.862   8.535  12.871  0.00  0.00    +0.000 C 
ATOM     10  N   UNL     1      51.739   7.876  12.059  0.00  0.00    +0.000 N 
ATOM     11  O   UNL     1      51.242   9.467  13.568  0.00  0.00    +0.000 OA
ATOM     12  H   UNL     1      51.459   7.108  11.457  0.00  0.00    +0.000 HD
ATOM     13  H   UNL     1      52.698   8.195  12.028  0.00  0.00    +0.000 HD
ENDBRANCH   7   9
BRANCH   1  15
ATOM     14  C   UNL     1      47.794  10.845  11.618  0.00  0.00    +0.000 C 
ATOM     15  O   UNL     1      48.635   9.723  11.335  0.00  0.00    +0.000 OA
ENDBRANCH   1  15
BRANCH   4  16
ATOM     16  C   UNL     1      44.739   6.949  12.095  0.00  0.00    +0.000 C 
BRANCH  16  17
ATOM     17  C   UNL     1      44.382   5.602  11.520  0.00  0.00    +0.000 A 
ATOM     18  C   UNL     1      43.359   4.828  12.061  0.00  0.00    +0.000 A 
ATOM     19  C   UNL     1      43.100   3.592  11.494  0.00  0.00    +0.000 A 
ATOM     20  N   UNL     1      43.787   3.083  10.447  0.00  0.00    +0.000 NA
ATOM     21  C   UNL     1      44.796   3.827   9.928  0.00  0.00    +0.000 A 
ATOM     22  C   UNL     1      45.107   5.085  10.439  0.00  0.00    +0.000 A 
BRANCH  21  23
ATOM     23  C   UNL     1      45.528   3.231   8.792  0.00  0.00    +0.000 A 
ATOM     24  C   UNL     1      45.971   4.001   7.710  0.00  0.00    +0.000 A 
ATOM     25  C   UNL     1      46.623   3.381   6.655  0.00  0.00    +0.000 A 
ATOM     26  N   UNL     1      46.868   2.058   6.604  0.00  0.00    +0.000 NA
ATOM     27  C   UNL     1      46.459   1.310   7.653  0.00  0.00    +0.000 A 
ATOM     28  C   UNL     1      46.724  -0.164   7.589  0.00  0.00    +0.000 C 
ATOM     29  C   UNL     1      45.804   1.856   8.754  0.00  0.00    +0.000 A 
ENDBRANCH  21  23
ENDBRANCH  16  17
ENDBRANCH   4  16
TORSDOF 5
ENDMDL
MODEL 3
REMARK VINA RESULT:    -7.162      4.685      8.761
REMARK INTER + INTRA:         -10.164
REMARK INTER:                  -9.212
REMARK INTRA:                  -0.952
REMARK UNBOUND:                -0.908
REMARK  Name = 
REMARK  7 active torsions:
REMARK  status: ('A' for Active; 'I' for Inactive)
REMARK    1  A    between atoms: C_1  and  O_2
REMARK    2  A    between atoms: O_2  and  C_3
REMARK    3  A    between atoms: N_6  and  C_7
REMARK    4  A    between atoms: C_7  and  C_8
REMARK    5  A    between atoms: C_12  and  C_13
REMARK    6  A    between atoms: C_17  and  C_18
REMARK    7  A    between atoms: C_23  and  C_24
REMARK                            x       y       z     vdW  Elec       q    Type
REMARK                         _______ _______ _______ _____ _____    ______ ____
ROOT
ATOM      1  C   UNL     1      49.296   4.735  17.334  0.00  0.00    +0.000 A 
ATOM      2  N   UNL     1      49.408   5.545  16.260  0.00  0.00    +0.000 NA
ATOM      3  C   UNL     1      49.038   6.820  16.387  0.00  0.00    +0.000 A 
ATOM      4  N   UNL     1      49.212   7.686  15.322  0.00  0.00    +0.000 N 
ATOM      5  N   UNL     1      48.520   7.324  17.508  0.00  0.00    +0.000 NA
ATOM      6  C   UNL     1      48.410   6.480  18.565  0.00  0.00    +0.000 A 
ATOM      7  C   UNL     1      48.789   5.153  18.545  0.00  0.00    +0.000 A 
ATOM      8  H   UNL     1      48.620   8.494  15.472  0.00  0.00    +0.000 HD
ENDROOT
BRANCH   7   9
ATOM      9  C   UNL     1      48.644   4.347  19.774  0.00  0.00    +0.000 C 
ATOM     10  N   UNL     1      48.325   3.024  19.659  0.00  0.00    +0.000 N 
ATOM     11  O   UNL     1      48.808   4.852  20.878  0.00  0.00    +0.000 OA
ATOM     12  H   UNL     1      48.195   2.567  18.764  0.00  0.00    +0.000 HD
ATOM     13  H   UNL     1      48.257   2.472  20.504  0.00  0.00    +0.000 HD
ENDBRANCH   7   9
BRANCH   1  15
ATOM     14  C   UNL     1      51.122   3.272  17.443  0.00  0.00    +0.000 C 
ATOM     15  O   UNL     1      49.724   3.430  17.181  0.00  0.00    +0.000 OA
ENDBRANCH   1  15
BRANCH   4  16
ATOM     16  C   UNL     1      49.120   7.051  14.024  0.00  0.00    +0.000 C 
BRANCH  16  17
ATOM     17  C   UNL     1      47.722   7.197  13.479  0.00  0.00    +0.000 A 
ATOM     18  C   UNL     1      47.061   8.422  13.488  0.00  0.00    +0.000 A 
ATOM     19  C   UNL     1      45.771   8.476  12.990  0.00  0.00    +0.000 A 
ATOM     20  N   UNL     1      45.105   7.407  12.499  0.00  0.00    +0.000 NA
ATOM     21  C   UNL     1      45.739   6.208  12.505  0.00  0.00    +0.000 A 
ATOM     22  C   UNL     1      47.043   6.078  12.981  0.00  0.00    +0.000 A 
BRANCH  21  23
ATOM     23  C   UNL     1      44.974   5.063  11.970  0.00  0.00    +0.000 A 
ATOM     24  C   UNL     1      44.096   4.321  12.770  0.00  0.00    +0.000 A 
ATOM     25  C   UNL     1      43.431   3.235  12.222  0.00  0.00    +0.000 A 
ATOM     26  N   UNL     1      43.574   2.840  10.942  0.00  0.00    +0.000 NA
ATOM     27  C   UNL     1      44.406   3.562  10.159  0.00  0.00    +0.000 A 
ATOM     28  C   UNL     1      44.572   3.114   8.739  0.00  0.00    +0.000 C 
ATOM     29  C   UNL     1      45.107   4.670  10.631  0.00  0.00    +0.000 A 
ENDBRANCH  21  23
ENDBRANCH  16  17
ENDBRANCH   4  16
TORSDOF 5
ENDMDL
MODEL 4
REMARK VINA RESULT:    -7.065      1.993      4.011
REMARK INTER + INTRA:         -10.038
REMARK INTER:                  -9.221
REMARK INTRA:                  -0.816
REMARK UNBOUND:                -0.908
REMARK  Name = 
REMARK  7 active torsions:
REMARK  status: ('A' for Active; 'I' for Inactive)
REMARK    1  A    between atoms: C_1  and  O_2
REMARK    2  A    between atoms: O_2  and  C_3
REMARK    3  A    between atoms: N_6  and  C_7
REMARK    4  A    between atoms: C_7  and  C_8
REMARK    5  A    between atoms: C_12  and  C_13
REMARK    6  A    between atoms: C_17  and  C_18
REMARK    7  A    between atoms: C_23  and  C_24
REMARK                            x       y       z     vdW  Elec       q    Type
REMARK                         _______ _______ _______ _____ _____    ______ ____
ROOT
ATOM      1  C   UNL     1      46.420   1.972   8.096  0.00  0.00    +0.000 A 
ATOM      2  N   UNL     1      45.656   2.237   9.177  0.00  0.00    +0.000 NA
ATOM      3  C   UNL     1      44.898   3.334   9.163  0.00  0.00    +0.000 A 
ATOM      4  N   UNL     1      44.052   3.588  10.228  0.00  0.00    +0.000 N 
ATOM      5  N   UNL     1      44.892   4.208   8.154  0.00  0.00    +0.000 NA
ATOM      6  C   UNL     1      45.681   3.917   7.089  0.00  0.00    +0.000 A 
ATOM      7  C   UNL     1      46.479   2.795   6.993  0.00  0.00    +0.000 A 
ATOM      8  H   UNL     1      43.799   4.569  10.204  0.00  0.00    +0.000 HD
ENDROOT
BRANCH   7   9
ATOM      9  C   UNL     1      47.270   2.579   5.765  0.00  0.00    +0.000 C 
ATOM     10  N   UNL     1      48.585   2.235   5.881  0.00  0.00    +0.000 N 
ATOM     11  O   UNL     1      46.757   2.705   4.660  0.00  0.00    +0.000 OA
ATOM     12  H   UNL     1      49.042   2.108   6.778  0.00  0.00    +0.000 HD
ATOM     13  H   UNL     1      49.112   2.060   5.036  0.00  0.00    +0.000 HD
ENDBRANCH   7   9
BRANCH   1  15
ATOM     14  C   UNL     1      46.439  -0.324   7.631  0.00  0.00    +0.000 C 
ATOM     15  O   UNL     1      47.163   0.806   8.126  0.00  0.00    +0.000 OA
ENDBRANCH   1  15
BRANCH   4  16
ATOM     16  C   UNL     1      44.529   3.077  11.496  0.00  0.00    +0.000 C 
BRANCH  16  17
ATOM     17  C   UNL     1      45.278   4.157  12.236  0.00  0.00    +0.000 A 
ATOM     18  C   UNL     1      45.314   5.468  11.769  0.00  0.00    +0.000 A 
ATOM     19  C   UNL     1      46.038   6.403  12.489  0.00  0.00    +0.000 A 
ATOM     20  N   UNL     1      46.722   6.119  13.620  0.00  0.00    +0.000 NA
ATOM     21  C   UNL     1      46.704   4.839  14.069  0.00  0.00    +0.000 A 
ATOM     22  C   UNL     1      45.988   3.846  13.402  0.00  0.00    +0.000 A 
BRANCH  21  23
ATOM     23  C   UNL     1      47.472   4.568  15.301  0.00  0.00    +0.000 A 
ATOM     24  C   UNL     1      47.561   3.284  15.851  0.00  0.00    +0.000 A 
ATOM     25  C   UNL     1      48.268   3.096  17.029  0.00  0.00    +0.000 A 
ATOM     26  N   UNL     1      48.893   4.089  17.691  0.00  0.00    +0.000 NA
ATOM     27  C   UNL     1      48.827   5.329  17.156  0.00  0.00    +0.000 A 
ATOM     28  C   UNL     1      49.513   6.434  17.900  0.00  0.00    +0.000 C 
ATOM     29  C   UNL     1      48.142   5.600  15.974  0.00  0.00    +0.000 A 
ENDBRANCH  21  23
ENDBRANCH  16  17
ENDBRANCH   4  16
TORSDOF 5
ENDMDL
MODEL 5
REMARK VINA RESULT:    -7.019      4.162      8.385
REMARK INTER + INTRA:          -9.978
REMARK INTER:                  -9.200
REMARK INTRA:                  -0.778
REMARK UNBOUND:                -0.908
REMARK  Name = 
REMARK  7 active torsions:
REMARK  status: ('A' for Active; 'I' for Inactive)
REMARK    1  A    between atoms: C_1  and  O_2
REMARK    2  A    between atoms: O_2  and  C_3
REMARK    3  A    between atoms: N_6  and  C_7
REMARK    4  A    between atoms: C_7  and  C_8
REMARK    5  A    between atoms: C_12  and  C_13
REMARK    6  A    between atoms: C_17  and  C_18
REMARK    7  A    between atoms: C_23  and  C_24
REMARK                            x       y       z     vdW  Elec       q    Type
REMARK                         _______ _______ _______ _____ _____    ______ ____
ROOT
ATOM      1  C   UNL     1      48.724   5.358  16.588  0.00  0.00    +0.000 A 
ATOM      2  N   UNL     1      47.688   5.458  15.729  0.00  0.00    +0.000 NA
ATOM      3  C   UNL     1      47.045   4.342  15.381  0.00  0.00    +0.000 A 
ATOM      4  N   UNL     1      45.935   4.428  14.558  0.00  0.00    +0.000 N 
ATOM      5  N   UNL     1      47.402   3.128  15.803  0.00  0.00    +0.000 NA
ATOM      6  C   UNL     1      48.455   3.063  16.657  0.00  0.00    +0.000 A 
ATOM      7  C   UNL     1      49.169   4.158  17.099  0.00  0.00    +0.000 A 
ATOM      8  H   UNL     1      45.767   3.512  14.159  0.00  0.00    +0.000 HD
ENDROOT
BRANCH   7   9
ATOM      9  C   UNL     1      50.278   3.955  18.053  0.00  0.00    +0.000 C 
ATOM     10  N   UNL     1      50.160   4.458  19.316  0.00  0.00    +0.000 N 
ATOM     11  O   UNL     1      51.287   3.345  17.719  0.00  0.00    +0.000 OA
ATOM     12  H   UNL     1      49.335   4.957  19.633  0.00  0.00    +0.000 HD
ATOM     13  H   UNL     1      50.911   4.290  19.972  0.00  0.00    +0.000 HD
ENDBRANCH   7   9
BRANCH   1  15
ATOM     14  C   UNL     1      50.115   7.113  15.901  0.00  0.00    +0.000 C 
ATOM     15  O   UNL     1      49.345   6.536  16.960  0.00  0.00    +0.000 OA
ENDBRANCH   1  15
BRANCH   4  16
ATOM     16  C   UNL     1      45.972   5.539  13.631  0.00  0.00    +0.000 C 
BRANCH  16  17
ATOM     17  C   UNL     1      45.164   5.209  12.402  0.00  0.00    +0.000 A 
ATOM     18  C   UNL     1      43.799   5.478  12.335  0.00  0.00    +0.000 A 
ATOM     19  C   UNL     1      43.117   5.129  11.182  0.00  0.00    +0.000 A 
ATOM     20  N   UNL     1      43.693   4.534  10.114  0.00  0.00    +0.000 NA
ATOM     21  C   UNL     1      45.020   4.254  10.182  0.00  0.00    +0.000 A 
ATOM     22  C   UNL     1      45.774   4.586  11.307  0.00  0.00    +0.000 A 
BRANCH  21  23
ATOM     23  C   UNL     1      45.609   3.594   9.000  0.00  0.00    +0.000 A 
ATOM     24  C   UNL     1      45.987   4.315   7.861  0.00  0.00    +0.000 A 
ATOM     25  C   UNL     1      46.504   3.637   6.768  0.00  0.00    +0.000 A 
ATOM     26  N   UNL     1      46.674   2.301   6.729  0.00  0.00    +0.000 NA
ATOM     27  C   UNL     1      46.328   1.600   7.833  0.00  0.00    +0.000 A 
ATOM     28  C   UNL     1      46.507   0.114   7.784  0.00  0.00    +0.000 C 
ATOM     29  C   UNL     1      45.808   2.206   8.974  0.00  0.00    +0.000 A 
ENDBRANCH  21  23
ENDBRANCH  16  17
ENDBRANCH   4  16
TORSDOF 5
ENDMDL
MODEL 6
REMARK VINA RESULT:    -6.931      2.063      2.504
REMARK INTER + INTRA:          -9.864
REMARK INTER:                  -9.348
REMARK INTRA:                  -0.517
REMARK UNBOUND:                -0.908
REMARK  Name = 
REMARK  7 active torsions:
REMARK  status: ('A' for Active; 'I' for Inactive)
REMARK    1  A    between atoms: C_1  and  O_2
REMARK    2  A    between atoms: O_2  and  C_3
REMARK    3  A    between atoms: N_6  and  C_7
REMARK    4  A    between atoms: C_7  and  C_8
REMARK    5  A    between atoms: C_12  and  C_13
REMARK    6  A    between atoms: C_17  and  C_18
REMARK    7  A    between atoms: C_23  and  C_24
REMARK                            x       y       z     vdW  Elec       q    Type
REMARK                         _______ _______ _______ _____ _____    ______ ____
ROOT
ATOM      1  C   UNL     1      45.800   2.483   8.557  0.00  0.00    +0.000 A 
ATOM      2  N   UNL     1      45.152   3.353   9.359  0.00  0.00    +0.000 NA
ATOM      3  C   UNL     1      45.377   4.657   9.191  0.00  0.00    +0.000 A 
ATOM      4  N   UNL     1      44.669   5.571   9.952  0.00  0.00    +0.000 N 
ATOM      5  N   UNL     1      46.245   5.142   8.302  0.00  0.00    +0.000 NA
ATOM      6  C   UNL     1      46.888   4.239   7.520  0.00  0.00    +0.000 A 
ATOM      7  C   UNL     1      46.706   2.873   7.595  0.00  0.00    +0.000 A 
ATOM      8  H   UNL     1      45.163   6.455   9.924  0.00  0.00    +0.000 HD
ENDROOT
BRANCH   7   9
ATOM      9  C   UNL     1      47.447   1.997   6.665  0.00  0.00    +0.000 C 
ATOM     10  N   UNL     1      48.709   2.355   6.289  0.00  0.00    +0.000 N 
ATOM     11  O   UNL     1      46.941   0.967   6.237  0.00  0.00    +0.000 OA
ATOM     12  H   UNL     1      49.167   3.193   6.631  0.00  0.00    +0.000 HD
ATOM     13  H   UNL     1      49.221   1.736   5.675  0.00  0.00    +0.000 HD
ENDBRANCH   7   9
BRANCH   1  15
ATOM     14  C   UNL     1      44.144   0.904   9.057  0.00  0.00    +0.000 C 
ATOM     15  O   UNL     1      45.516   1.141   8.730  0.00  0.00    +0.000 OA
ENDBRANCH   1  15
BRANCH   4  16
ATOM     16  C   UNL     1      44.294   5.084  11.263  0.00  0.00    +0.000 C 
BRANCH  16  17
ATOM     17  C   UNL     1      45.490   5.106  12.180  0.00  0.00    +0.000 A 
ATOM     18  C   UNL     1      45.718   4.089  13.104  0.00  0.00    +0.000 A 
ATOM     19  C   UNL     1      46.826   4.186  13.928  0.00  0.00    +0.000 A 
ATOM     20  N   UNL     1      47.702   5.215  13.898  0.00  0.00    +0.000 NA
ATOM     21  C   UNL     1      47.474   6.217  13.011  0.00  0.00    +0.000 A 
ATOM     22  C   UNL     1      46.385   6.183  12.142  0.00  0.00    +0.000 A 
BRANCH  21  23
ATOM     23  C   UNL     1      48.447   7.327  13.017  0.00  0.00    +0.000 A 
ATOM     24  C   UNL     1      49.475   7.406  13.964  0.00  0.00    +0.000 A 
ATOM     25  C   UNL     1      50.339   8.490  13.942  0.00  0.00    +0.000 A 
ATOM     26  N   UNL     1      50.255   9.494  13.046  0.00  0.00    +0.000 NA
ATOM     27  C   UNL     1      49.276   9.415  12.117  0.00  0.00    +0.000 A 
ATOM     28  C   UNL     1      49.177  10.537  11.129  0.00  0.00    +0.000 C 
ATOM     29  C   UNL     1      48.372   8.357  12.067  0.00  0.00    +0.000 A 
ENDBRANCH  21  23
ENDBRANCH  16  17
ENDBRANCH   4  16
TORSDOF 5
ENDMDL
MODEL 7
REMARK VINA RESULT:    -6.751      2.148      2.681
REMARK INTER + INTRA:          -9.632
REMARK INTER:                  -9.163
REMARK INTRA:                  -0.470
REMARK UNBOUND:                -0.908
REMARK  Name = 
REMARK  7 active torsions:
REMARK  status: ('A' for Active; 'I' for Inactive)
REMARK    1  A    between atoms: C_1  and  O_2
REMARK    2  A    between atoms: O_2  and  C_3
REMARK    3  A    between atoms: N_6  and  C_7
REMARK    4  A    between atoms: C_7  and  C_8
REMARK    5  A    between atoms: C_12  and  C_13
REMARK    6  A    between atoms: C_17  and  C_18
REMARK    7  A    between atoms: C_23  and  C_24
REMARK                            x       y       z     vdW  Elec       q    Type
REMARK                         _______ _______ _______ _____ _____    ______ ____
ROOT
ATOM      1  C   UNL     1      46.513   1.636   7.862  0.00  0.00    +0.000 A 
ATOM      2  N   UNL     1      45.509   1.925   8.716  0.00  0.00    +0.000 NA
ATOM      3  C   UNL     1      44.833   3.061   8.538  0.00  0.00    +0.000 A 
ATOM      4  N   UNL     1      43.754   3.343   9.357  0.00  0.00    +0.000 N 
ATOM      5  N   UNL     1      45.129   3.948   7.587  0.00  0.00    +0.000 NA
ATOM      6  C   UNL     1      46.152   3.631   6.753  0.00  0.00    +0.000 A 
ATOM      7  C   UNL     1      46.894   2.471   6.835  0.00  0.00    +0.000 A 
ATOM      8  H   UNL     1      43.561   4.336   9.295  0.00  0.00    +0.000 HD
ENDROOT
BRANCH   7   9
ATOM      9  C   UNL     1      47.965   2.232   5.846  0.00  0.00    +0.000 C 
ATOM     10  N   UNL     1      47.931   2.911   4.662  0.00  0.00    +0.000 N 
ATOM     11  O   UNL     1      48.868   1.439   6.081  0.00  0.00    +0.000 OA
ATOM     12  H   UNL     1      47.207   3.584   4.436  0.00  0.00    +0.000 HD
ATOM     13  H   UNL     1      48.682   2.763   4.002  0.00  0.00    +0.000 HD
ENDBRANCH   7   9
BRANCH   1  15
ATOM     14  C   UNL     1      46.484  -0.669   7.445  0.00  0.00    +0.000 C 
ATOM     15  O   UNL     1      47.168   0.433   8.049  0.00  0.00    +0.000 OA
ENDBRANCH   1  15
BRANCH   4  16
ATOM     16  C   UNL     1      43.862   2.789  10.690  0.00  0.00    +0.000 C 
BRANCH  16  17
ATOM     17  C   UNL     1      44.063   3.897  11.691  0.00  0.00    +0.000 A 
ATOM     18  C   UNL     1      42.984   4.527  12.305  0.00  0.00    +0.000 A 
ATOM     19  C   UNL     1      43.243   5.552  13.200  0.00  0.00    +0.000 A 
ATOM     20  N   UNL     1      44.485   5.986  13.512  0.00  0.00    +0.000 NA
ATOM     21  C   UNL     1      45.539   5.386  12.903  0.00  0.00    +0.000 A 
ATOM     22  C   UNL     1      45.355   4.341  11.998  0.00  0.00    +0.000 A 
BRANCH  21  23
ATOM     23  C   UNL     1      46.877   5.896  13.262  0.00  0.00    +0.000 A 
ATOM     24  C   UNL     1      47.408   5.741  14.547  0.00  0.00    +0.000 A 
ATOM     25  C   UNL     1      48.656   6.272  14.836  0.00  0.00    +0.000 A 
ATOM     26  N   UNL     1      49.410   6.938  13.940  0.00  0.00    +0.000 NA
ATOM     27  C   UNL     1      48.911   7.076  12.691  0.00  0.00    +0.000 A 
ATOM     28  C   UNL     1      49.746   7.826  11.699  0.00  0.00    +0.000 C 
ATOM     29  C   UNL     1      47.669   6.567  12.319  0.00  0.00    +0.000 A 
ENDBRANCH  21  23
ENDBRANCH  16  17
ENDBRANCH   4  16
TORSDOF 5
ENDMDL
MODEL 8
REMARK VINA RESULT:    -6.241      3.939      6.774
REMARK INTER + INTRA:          -8.973
REMARK INTER:                  -8.058
REMARK INTRA:                  -0.915
REMARK UNBOUND:                -0.908
REMARK  Name = 
REMARK  7 active torsions:
REMARK  status: ('A' for Active; 'I' for Inactive)
REMARK    1  A    between atoms: C_1  and  O_2
REMARK    2  A    between atoms: O_2  and  C_3
REMARK    3  A    between atoms: N_6  and  C_7
REMARK    4  A    between atoms: C_7  and  C_8
REMARK    5  A    between atoms: C_12  and  C_13
REMARK    6  A    between atoms: C_17  and  C_18
REMARK    7  A    between atoms: C_23  and  C_24
REMARK                            x       y       z     vdW  Elec       q    Type
REMARK                         _______ _______ _______ _____ _____    ______ ____
ROOT
ATOM      1  C   UNL     1      46.000   4.463  12.599  0.00  0.00    +0.000 A 
ATOM      2  N   UNL     1      46.729   5.590  12.744  0.00  0.00    +0.000 NA
ATOM      3  C   UNL     1      46.388   6.661  12.027  0.00  0.00    +0.000 A 
ATOM      4  N   UNL     1      47.075   7.848  12.213  0.00  0.00    +0.000 N 
ATOM      5  N   UNL     1      45.391   6.663  11.140  0.00  0.00    +0.000 NA
ATOM      6  C   UNL     1      44.686   5.510  11.011  0.00  0.00    +0.000 A 
ATOM      7  C   UNL     1      44.941   4.357  11.724  0.00  0.00    +0.000 A 
ATOM      8  H   UNL     1      46.906   8.440  11.408  0.00  0.00    +0.000 HD
ENDROOT
BRANCH   7   9
ATOM      9  C   UNL     1      44.080   3.176  11.511  0.00  0.00    +0.000 C 
ATOM     10  N   UNL     1      43.697   2.437  12.593  0.00  0.00    +0.000 N 
ATOM     11  O   UNL     1      43.713   2.863  10.385  0.00  0.00    +0.000 OA
ATOM     12  H   UNL     1      43.969   2.671  13.541  0.00  0.00    +0.000 HD
ATOM     13  H   UNL     1      43.084   1.647  12.442  0.00  0.00    +0.000 HD
ENDBRANCH   7   9
BRANCH   1  15
ATOM     14  C   UNL     1      47.020   3.770  14.590  0.00  0.00    +0.000 C 
ATOM     15  O   UNL     1      46.355   3.382  13.384  0.00  0.00    +0.000 OA
ENDBRANCH   1  15
BRANCH   4  16
ATOM     16  C   UNL     1      48.457   7.675  12.608  0.00  0.00    +0.000 C 
BRANCH  16  17
ATOM     17  C   UNL     1      48.626   8.044  14.059  0.00  0.00    +0.000 A 
ATOM     18  C   UNL     1      48.809   9.366  14.458  0.00  0.00    +0.000 A 
ATOM     19  C   UNL     1      48.979   9.628  15.807  0.00  0.00    +0.000 A 
ATOM     20  N   UNL     1      48.985   8.676  16.766  0.00  0.00    +0.000 NA
ATOM     21  C   UNL     1      48.824   7.384  16.380  0.00  0.00    +0.000 A 
ATOM     22  C   UNL     1      48.638   7.045  15.041  0.00  0.00    +0.000 A 
BRANCH  21  23
ATOM     23  C   UNL     1      48.848   6.374  17.457  0.00  0.00    +0.000 A 
ATOM     24  C   UNL     1      49.468   5.130  17.291  0.00  0.00    +0.000 A 
ATOM     25  C   UNL     1      49.429   4.207  18.325  0.00  0.00    +0.000 A 
ATOM     26  N   UNL     1      48.823   4.435  19.506  0.00  0.00    +0.000 NA
ATOM     27  C   UNL     1      48.238   5.641  19.680  0.00  0.00    +0.000 A 
ATOM     28  C   UNL     1      47.555   5.889  20.991  0.00  0.00    +0.000 C 
ATOM     29  C   UNL     1      48.238   6.625  18.694  0.00  0.00    +0.000 A 
ENDBRANCH  21  23
ENDBRANCH  16  17
ENDBRANCH   4  16
TORSDOF 5
ENDMDL
MODEL 9
REMARK VINA RESULT:    -6.181      3.984      7.419
REMARK INTER + INTRA:          -8.896
REMARK INTER:                  -8.083
REMARK INTRA:                  -0.814
REMARK UNBOUND:                -0.908
REMARK  Name = 
REMARK  7 active torsions:
REMARK  status: ('A' for Active; 'I' for Inactive)
REMARK    1  A    between atoms: C_1  and  O_2
REMARK    2  A    between atoms: O_2  and  C_3
REMARK    3  A    between atoms: N_6  and  C_7
REMARK    4  A    between atoms: C_7  and  C_8
REMARK    5  A    between atoms: C_12  and  C_13
REMARK    6  A    between atoms: C_17  and  C_18
REMARK    7  A    between atoms: C_23  and  C_24
REMARK                            x       y       z     vdW  Elec       q    Type
REMARK                         _______ _______ _______ _____ _____    ______ ____
ROOT
ATOM      1  C   UNL     1      45.501   6.080  12.381  0.00  0.00    +0.000 A 
ATOM      2  N   UNL     1      46.323   6.966  12.981  0.00  0.00    +0.000 NA
ATOM      3  C   UNL     1      46.054   8.266  12.853  0.00  0.00    +0.000 A 
ATOM      4  N   UNL     1      46.840   9.190  13.520  0.00  0.00    +0.000 N 
ATOM      5  N   UNL     1      45.041   8.737  12.125  0.00  0.00    +0.000 NA
ATOM      6  C   UNL     1      44.241   7.819  11.525  0.00  0.00    +0.000 A 
ATOM      7  C   UNL     1      44.416   6.454  11.617  0.00  0.00    +0.000 A 
ATOM      8  H   UNL     1      46.702  10.095  13.085  0.00  0.00    +0.000 HD
ENDROOT
BRANCH   7   9
ATOM      9  C   UNL     1      43.456   5.559  10.940  0.00  0.00    +0.000 C 
ATOM     10  N   UNL     1      43.890   4.803   9.889  0.00  0.00    +0.000 N 
ATOM     11  O   UNL     1      42.291   5.494  11.312  0.00  0.00    +0.000 OA
ATOM     12  H   UNL     1      44.849   4.819   9.561  0.00  0.00    +0.000 HD
ATOM     13  H   UNL     1      43.234   4.171   9.449  0.00  0.00    +0.000 HD
ENDBRANCH   7   9
BRANCH   1  15
ATOM     14  C   UNL     1      46.619   4.502  13.701  0.00  0.00    +0.000 C 
ATOM     15  O   UNL     1      45.784   4.740  12.564  0.00  0.00    +0.000 OA
ENDBRANCH   1  15
BRANCH   4  16
ATOM     16  C   UNL     1      48.212   8.769  13.710  0.00  0.00    +0.000 C 
BRANCH  16  17
ATOM     17  C   UNL     1      48.407   8.277  15.122  0.00  0.00    +0.000 A 
ATOM     18  C   UNL     1      48.283   9.132  16.214  0.00  0.00    +0.000 A 
ATOM     19  C   UNL     1      48.496   8.614  17.481  0.00  0.00    +0.000 A 
ATOM     20  N   UNL     1      48.825   7.326  17.724  0.00  0.00    +0.000 NA
ATOM     21  C   UNL     1      48.963   6.494  16.661  0.00  0.00    +0.000 A 
ATOM     22  C   UNL     1      48.755   6.941  15.358  0.00  0.00    +0.000 A 
BRANCH  21  23
ATOM     23  C   UNL     1      49.334   5.098  16.969  0.00  0.00    +0.000 A 
ATOM     24  C   UNL     1      48.402   4.055  16.913  0.00  0.00    +0.000 A 
ATOM     25  C   UNL     1      48.800   2.769  17.247  0.00  0.00    +0.000 A 
ATOM     26  N   UNL     1      50.053   2.450  17.626  0.00  0.00    +0.000 NA
ATOM     27  C   UNL     1      50.962   3.449  17.665  0.00  0.00    +0.000 A 
ATOM     28  C   UNL     1      52.353   3.093  18.097  0.00  0.00    +0.000 C 
ATOM     29  C   UNL     1      50.645   4.765  17.339  0.00  0.00    +0.000 A 
ENDBRANCH  21  23
ENDBRANCH  16  17
ENDBRANCH   4  16
TORSDOF 5
ENDMDL
