MODEL 1
REMARK VINA RESULT:    -7.957      0.000      0.000
REMARK INTER + INTRA:         -10.921
REMARK INTER:                 -10.515
REMARK INTRA:                  -0.406
REMARK UNBOUND:                -0.406
REMARK  Name = 
REMARK  6 active torsions:
REMARK  status: ('A' for Active; 'I' for Inactive)
REMARK    1  A    between atoms: N_1  and  C_2
REMARK    2  A    between atoms: C_2  and  C_3
REMARK    3  A    between atoms: C_3  and  C_4
REMARK    4  A    between atoms: C_7  and  C_8
REMARK    5  A    between atoms: C_8  and  C_9
REMARK    6  A    between atoms: C_14  and  C_15
REMARK                            x       y       z     vdW  Elec       q    Type
REMARK                         _______ _______ _______ _____ _____    ______ ____
ROOT
ATOM      1  C   UNL     1      43.780   5.156  11.871  0.00  0.00    +0.000 A 
ATOM      2  N   UNL     1      43.145   6.240  11.416  0.00  0.00    +0.000 NA
ATOM      3  S   UNL     1      44.124   7.552  11.656  0.00  0.00    +0.000 S 
ATOM      4  C   UNL     1      45.388   6.701  12.447  0.00  0.00    +0.000 A 
ATOM      5  C   UNL     1      46.673   7.132  12.806  0.00  0.00    +0.000 A 
ATOM      6  C   UNL     1      47.525   6.231  13.463  0.00  0.00    +0.000 A 
ATOM      7  C   UNL     1      47.050   4.979  13.854  0.00  0.00    +0.000 A 
ATOM      8  C   UNL     1      45.777   4.550  13.457  0.00  0.00    +0.000 A 
ATOM      9  C   UNL     1      44.956   5.397  12.677  0.00  0.00    +0.000 A 
ENDROOT
BRANCH   6  10
ATOM     10  C   UNL     1      48.951   6.646  13.628  0.00  0.00    +0.000 C 
ATOM     11  N   UNL     1      49.658   7.040  12.527  0.00  0.00    +0.000 N 
ATOM     12  O   UNL     1      49.481   6.676  14.733  0.00  0.00    +0.000 OA
ATOM     13  H   UNL     1      49.313   7.064  11.581  0.00  0.00    +0.000 HD
ATOM     14  H   UNL     1      50.599   7.371  12.695  0.00  0.00    +0.000 HD
ENDBRANCH   6  10
BRANCH   1  15
ATOM     15  C   UNL     1      43.330   3.806  11.380  0.00  0.00    +0.000 C 
BRANCH  15  19
ATOM     16  C   UNL     1      45.733   2.966   7.852  0.00  0.00    +0.000 A 
ATOM     17  C   UNL     1      45.481   4.287   8.237  0.00  0.00    +0.000 A 
ATOM     18  C   UNL     1      44.753   4.566   9.403  0.00  0.00    +0.000 A 
ATOM     19  C   UNL     1      44.258   3.525  10.204  0.00  0.00    +0.000 A 
ATOM     20  C   UNL     1      44.546   2.201   9.830  0.00  0.00    +0.000 A 
ATOM     21  C   UNL     1      45.275   1.926   8.669  0.00  0.00    +0.000 A 
BRANCH  16  22
ATOM     22  C   UNL     1      46.480   2.662   6.574  0.00  0.00    +0.000 C 
BRANCH  22  23
ATOM     23  C   UNL     1      47.738   1.825   6.826  0.00  0.00    +0.000 C 
BRANCH  23  24
ATOM     24  N   UNL     1      48.599   1.796   5.643  0.00  0.00    +0.000 NA
ATOM     25  H   UNL     1      48.104   1.334   4.880  0.00  0.00    +0.000 HD
ATOM     26  H   UNL     1      49.425   1.230   5.832  0.00  0.00    +0.000 HD
ENDBRANCH  23  24
ENDBRANCH  22  23
ENDBRANCH  16  22
ENDBRANCH  15  19
ENDBRANCH   1  15
TORSDOF 6
ENDMDL
MODEL 2
REMARK VINA RESULT:    -7.879      2.102      2.614
REMARK INTER + INTRA:         -10.818
REMARK INTER:                 -10.270
REMARK INTRA:                  -0.548
REMARK UNBOUND:                -0.406
REMARK  Name = 
REMARK  6 active torsions:
REMARK  status: ('A' for Active; 'I' for Inactive)
REMARK    1  A    between atoms: N_1  and  C_2
REMARK    2  A    between atoms: C_2  and  C_3
REMARK    3  A    between atoms: C_3  and  C_4
REMARK    4  A    between atoms: C_7  and  C_8
REMARK    5  A    between atoms: C_8  and  C_9
REMARK    6  A    between atoms: C_14  and  C_15
REMARK                            x       y       z     vdW  Elec       q    Type
REMARK                         _______ _______ _______ _____ _____    ______ ____
ROOT
ATOM      1  C   UNL     1      45.648   4.373  12.458  0.00  0.00    +0.000 A 
ATOM      2  N   UNL     1      46.036   3.313  13.174  0.00  0.00    +0.000 NA
ATOM      3  S   UNL     1      47.155   3.819  14.283  0.00  0.00    +0.000 S 
ATOM      4  C   UNL     1      47.200   5.457  13.771  0.00  0.00    +0.000 A 
ATOM      5  C   UNL     1      47.813   6.568  14.367  0.00  0.00    +0.000 A 
ATOM      6  C   UNL     1      47.708   7.815  13.733  0.00  0.00    +0.000 A 
ATOM      7  C   UNL     1      47.110   7.912  12.476  0.00  0.00    +0.000 A 
ATOM      8  C   UNL     1      46.470   6.800  11.910  0.00  0.00    +0.000 A 
ATOM      9  C   UNL     1      46.450   5.567  12.602  0.00  0.00    +0.000 A 
ENDROOT
BRANCH   6  10
ATOM     10  C   UNL     1      48.177   9.007  14.502  0.00  0.00    +0.000 C 
ATOM     11  N   UNL     1      47.614   9.274  15.718  0.00  0.00    +0.000 N 
ATOM     12  O   UNL     1      49.078   9.722  14.080  0.00  0.00    +0.000 OA
ATOM     13  H   UNL     1      46.879   8.743  16.157  0.00  0.00    +0.000 HD
ATOM     14  H   UNL     1      48.004  10.054  16.231  0.00  0.00    +0.000 HD
ENDBRANCH   6  10
BRANCH   1  15
ATOM     15  C   UNL     1      44.344   4.291  11.711  0.00  0.00    +0.000 C 
BRANCH  15  19
ATOM     16  C   UNL     1      45.824   3.099   7.797  0.00  0.00    +0.000 A 
ATOM     17  C   UNL     1      45.356   2.137   8.698  0.00  0.00    +0.000 A 
ATOM     18  C   UNL     1      44.827   2.518   9.941  0.00  0.00    +0.000 A 
ATOM     19  C   UNL     1      44.762   3.872  10.306  0.00  0.00    +0.000 A 
ATOM     20  C   UNL     1      45.201   4.835   9.381  0.00  0.00    +0.000 A 
ATOM     21  C   UNL     1      45.724   4.452   8.142  0.00  0.00    +0.000 A 
BRANCH  16  22
ATOM     22  C   UNL     1      46.433   2.691   6.477  0.00  0.00    +0.000 C 
BRANCH  22  23
ATOM     23  C   UNL     1      47.534   1.638   6.649  0.00  0.00    +0.000 C 
BRANCH  23  24
ATOM     24  N   UNL     1      48.603   1.827   5.669  0.00  0.00    +0.000 NA
ATOM     25  H   UNL     1      49.479   2.010   6.160  0.00  0.00    +0.000 HD
ATOM     26  H   UNL     1      48.413   2.655   5.107  0.00  0.00    +0.000 HD
ENDBRANCH  23  24
ENDBRANCH  22  23
ENDBRANCH  16  22
ENDBRANCH  15  19
ENDBRANCH   1  15
TORSDOF 6
ENDMDL
MODEL 3
REMARK VINA RESULT:    -7.783      3.077      6.975
REMARK INTER + INTRA:         -10.692
REMARK INTER:                 -10.932
REMARK INTRA:                   0.240
REMARK UNBOUND:                -0.406
REMARK  Name = 
REMARK  6 active torsions:
REMARK  status: ('A' for Active; 'I' for Inactive)
REMARK    1  A    between atoms: N_1  and  C_2
REMARK    2  A    between atoms: C_2  and  C_3
REMARK    3  A    between atoms: C_3  and  C_4
REMARK    4  A    between atoms: C_7  and  C_8
REMARK    5  A    between atoms: C_8  and  C_9
REMARK    6  A    between atoms: C_14  and  C_15
REMARK                            x       y       z     vdW  Elec       q    Type
REMARK                         _______ _______ _______ _____ _____    ______ ____
ROOT
ATOM      1  C   UNL     1      44.700   5.045  10.545  0.00  0.00    +0.000 A 
ATOM      2  N   UNL     1      43.768   4.475  11.315  0.00  0.00    +0.000 NA
ATOM      3  S   UNL     1      43.668   2.875  10.909  0.00  0.00    +0.000 S 
ATOM      4  C   UNL     1      44.819   2.932   9.636  0.00  0.00    +0.000 A 
ATOM      5  C   UNL     1      45.407   1.886   8.909  0.00  0.00    +0.000 A 
ATOM      6  C   UNL     1      46.325   2.205   7.897  0.00  0.00    +0.000 A 
ATOM      7  C   UNL     1      46.547   3.538   7.549  0.00  0.00    +0.000 A 
ATOM      8  C   UNL     1      45.980   4.571   8.307  0.00  0.00    +0.000 A 
ATOM      9  C   UNL     1      45.159   4.265   9.417  0.00  0.00    +0.000 A 
ENDROOT
BRANCH   6  10
ATOM     10  C   UNL     1      47.094   1.071   7.301  0.00  0.00    +0.000 C 
ATOM     11  N   UNL     1      46.779  -0.208   7.665  0.00  0.00    +0.000 N 
ATOM     12  O   UNL     1      47.970   1.266   6.466  0.00  0.00    +0.000 OA
ATOM     13  H   UNL     1      46.071  -0.474   8.330  0.00  0.00    +0.000 HD
ATOM     14  H   UNL     1      47.283  -0.945   7.191  0.00  0.00    +0.000 HD
ENDBRANCH   6  10
BRANCH   1  15
ATOM     15  C   UNL     1      45.303   6.348  10.998  0.00  0.00    +0.000 C 
BRANCH  15  19
ATOM     16  C   UNL     1      47.475   5.431  14.654  0.00  0.00    +0.000 A 
ATOM     17  C   UNL     1      46.408   4.623  14.245  0.00  0.00    +0.000 A 
ATOM     18  C   UNL     1      45.738   4.881  13.040  0.00  0.00    +0.000 A 
ATOM     19  C   UNL     1      46.120   5.956  12.223  0.00  0.00    +0.000 A 
ATOM     20  C   UNL     1      47.216   6.741  12.623  0.00  0.00    +0.000 A 
ATOM     21  C   UNL     1      47.884   6.480  13.824  0.00  0.00    +0.000 A 
BRANCH  16  22
ATOM     22  C   UNL     1      48.171   5.183  15.972  0.00  0.00    +0.000 C 
BRANCH  22  23
ATOM     23  C   UNL     1      47.447   4.131  16.819  0.00  0.00    +0.000 C 
BRANCH  23  24
ATOM     24  N   UNL     1      46.758   4.749  17.953  0.00  0.00    +0.000 NA
ATOM     25  H   UNL     1      45.845   5.084  17.648  0.00  0.00    +0.000 HD
ATOM     26  H   UNL     1      47.275   5.571  18.263  0.00  0.00    +0.000 HD
ENDBRANCH  23  24
ENDBRANCH  22  23
ENDBRANCH  16  22
ENDBRANCH  15  19
ENDBRANCH   1  15
TORSDOF 6
ENDMDL
MODEL 4
REMARK VINA RESULT:    -7.557      2.768      6.516
REMARK INTER + INTRA:         -10.393
REMARK INTER:                  -9.653
REMARK INTRA:                  -0.740
REMARK UNBOUND:                -0.406
REMARK  Name = 
REMARK  6 active torsions:
REMARK  status: ('A' for Active; 'I' for Inactive)
REMARK    1  A    between atoms: N_1  and  C_2
REMARK    2  A    between atoms: C_2  and  C_3
REMARK    3  A    between atoms: C_3  and  C_4
REMARK    4  A    between atoms: C_7  and  C_8
REMARK    5  A    between atoms: C_8  and  C_9
REMARK    6  A    between atoms: C_14  and  C_15
REMARK                            x       y       z     vdW  Elec       q    Type
REMARK                         _______ _______ _______ _____ _____    ______ ____
ROOT
ATOM      1  C   UNL     1      43.695   4.468  10.683  0.00  0.00    +0.000 A 
ATOM      2  N   UNL     1      43.067   3.638  11.522  0.00  0.00    +0.000 NA
ATOM      3  S   UNL     1      43.509   2.089  11.145  0.00  0.00    +0.000 S 
ATOM      4  C   UNL     1      44.491   2.496   9.797  0.00  0.00    +0.000 A 
ATOM      5  C   UNL     1      45.363   1.694   9.047  0.00  0.00    +0.000 A 
ATOM      6  C   UNL     1      46.052   2.275   7.971  0.00  0.00    +0.000 A 
ATOM      7  C   UNL     1      45.774   3.589   7.590  0.00  0.00    +0.000 A 
ATOM      8  C   UNL     1      44.927   4.387   8.371  0.00  0.00    +0.000 A 
ATOM      9  C   UNL     1      44.331   3.855   9.538  0.00  0.00    +0.000 A 
ENDROOT
BRANCH   6  10
ATOM     10  C   UNL     1      47.132   1.458   7.339  0.00  0.00    +0.000 C 
ATOM     11  N   UNL     1      48.198   2.096   6.770  0.00  0.00    +0.000 N 
ATOM     12  O   UNL     1      47.097   0.233   7.359  0.00  0.00    +0.000 OA
ATOM     13  H   UNL     1      48.327   3.093   6.713  0.00  0.00    +0.000 HD
ATOM     14  H   UNL     1      48.934   1.503   6.409  0.00  0.00    +0.000 HD
ENDBRANCH   6  10
BRANCH   1  15
ATOM     15  C   UNL     1      43.831   5.914  11.077  0.00  0.00    +0.000 C 
BRANCH  15  19
ATOM     16  C   UNL     1      47.696   6.368  13.021  0.00  0.00    +0.000 A 
ATOM     17  C   UNL     1      46.725   5.523  13.569  0.00  0.00    +0.000 A 
ATOM     18  C   UNL     1      45.497   5.329  12.919  0.00  0.00    +0.000 A 
ATOM     19  C   UNL     1      45.215   5.984  11.710  0.00  0.00    +0.000 A 
ATOM     20  C   UNL     1      46.210   6.803  11.148  0.00  0.00    +0.000 A 
ATOM     21  C   UNL     1      47.435   6.991  11.796  0.00  0.00    +0.000 A 
BRANCH  16  22
ATOM     22  C   UNL     1      49.002   6.612  13.739  0.00  0.00    +0.000 C 
BRANCH  22  23
ATOM     23  C   UNL     1      48.796   6.911  15.228  0.00  0.00    +0.000 C 
BRANCH  23  24
ATOM     24  N   UNL     1      49.286   5.812  16.060  0.00  0.00    +0.000 NA
ATOM     25  H   UNL     1      50.292   5.916  16.195  0.00  0.00    +0.000 HD
ATOM     26  H   UNL     1      49.154   4.926  15.573  0.00  0.00    +0.000 HD
ENDBRANCH  23  24
ENDBRANCH  22  23
ENDBRANCH  16  22
ENDBRANCH  15  19
ENDBRANCH   1  15
TORSDOF 6
ENDMDL
MODEL 5
REMARK VINA RESULT:    -6.597      4.597      7.753
REMARK INTER + INTRA:          -9.124
REMARK INTER:                  -8.792
REMARK INTRA:                  -0.332
REMARK UNBOUND:                -0.406
REMARK  Name = 
REMARK  6 active torsions:
REMARK  status: ('A' for Active; 'I' for Inactive)
REMARK    1  A    between atoms: N_1  and  C_2
REMARK    2  A    between atoms: C_2  and  C_3
REMARK    3  A    between atoms: C_3  and  C_4
REMARK    4  A    between atoms: C_7  and  C_8
REMARK    5  A    between atoms: C_8  and  C_9
REMARK    6  A    between atoms: C_14  and  C_15
REMARK                            x       y       z     vdW  Elec       q    Type
REMARK                         _______ _______ _______ _____ _____    ______ ____
ROOT
ATOM      1  C   UNL     1      47.414   4.803  15.085  0.00  0.00    +0.000 A 
ATOM      2  N   UNL     1      48.227   5.863  15.080  0.00  0.00    +0.000 NA
ATOM      3  S   UNL     1      48.019   6.669  13.651  0.00  0.00    +0.000 S 
ATOM      4  C   UNL     1      46.890   5.566  12.975  0.00  0.00    +0.000 A 
ATOM      5  C   UNL     1      46.109   5.677  11.816  0.00  0.00    +0.000 A 
ATOM      6  C   UNL     1      45.259   4.614  11.474  0.00  0.00    +0.000 A 
ATOM      7  C   UNL     1      45.291   3.429  12.210  0.00  0.00    +0.000 A 
ATOM      8  C   UNL     1      46.049   3.346  13.385  0.00  0.00    +0.000 A 
ATOM      9  C   UNL     1      46.807   4.460  13.818  0.00  0.00    +0.000 A 
ENDROOT
BRANCH   6  10
ATOM     10  C   UNL     1      44.285   4.856  10.367  0.00  0.00    +0.000 C 
ATOM     11  N   UNL     1      44.712   4.752   9.074  0.00  0.00    +0.000 N 
ATOM     12  O   UNL     1      43.108   5.107  10.600  0.00  0.00    +0.000 OA
ATOM     13  H   UNL     1      45.651   4.540   8.778  0.00  0.00    +0.000 HD
ATOM     14  H   UNL     1      44.005   4.864   8.359  0.00  0.00    +0.000 HD
ENDBRANCH   6  10
BRANCH   1  15
ATOM     15  C   UNL     1      47.072   4.170  16.407  0.00  0.00    +0.000 C 
BRANCH  15  19
ATOM     16  C   UNL     1      51.010   2.723  17.560  0.00  0.00    +0.000 A 
ATOM     17  C   UNL     1      50.512   3.918  18.092  0.00  0.00    +0.000 A 
ATOM     18  C   UNL     1      49.223   4.364  17.767  0.00  0.00    +0.000 A 
ATOM     19  C   UNL     1      48.407   3.622  16.898  0.00  0.00    +0.000 A 
ATOM     20  C   UNL     1      48.900   2.405  16.396  0.00  0.00    +0.000 A 
ATOM     21  C   UNL     1      50.184   1.962  16.725  0.00  0.00    +0.000 A 
BRANCH  16  22
ATOM     22  C   UNL     1      52.414   2.263  17.873  0.00  0.00    +0.000 C 
BRANCH  22  23
ATOM     23  C   UNL     1      52.657   0.814  17.435  0.00  0.00    +0.000 C 
BRANCH  23  24
ATOM     24  N   UNL     1      52.138  -0.131  18.424  0.00  0.00    +0.000 NA
ATOM     25  H   UNL     1      51.833  -0.979  17.949  0.00  0.00    +0.000 HD
ATOM     26  H   UNL     1      51.310   0.260  18.872  0.00  0.00    +0.000 HD
ENDBRANCH  23  24
ENDBRANCH  22  23
ENDBRANCH  16  22
ENDBRANCH  15  19
ENDBRANCH   1  15
TORSDOF 6
ENDMDL
MODEL 6
REMARK VINA RESULT:    -6.152      3.541      6.668
REMARK INTER + INTRA:          -8.536
REMARK INTER:                  -8.212
REMARK INTRA:                  -0.324
REMARK UNBOUND:                -0.406
REMARK  Name = 
REMARK  6 active torsions:
REMARK  status: ('A' for Active; 'I' for Inactive)
REMARK    1  A    between atoms: N_1  and  C_2
REMARK    2  A    between atoms: C_2  and  C_3
REMARK    3  A    between atoms: C_3  and  C_4
REMARK    4  A    between atoms: C_7  and  C_8
REMARK    5  A    between atoms: C_8  and  C_9
REMARK    6  A    between atoms: C_14  and  C_15
REMARK                            x       y       z     vdW  Elec       q    Type
REMARK                         _______ _______ _______ _____ _____    ______ ____
ROOT
ATOM      1  C   UNL     1      44.802   4.976  11.772  0.00  0.00    +0.000 A 
ATOM      2  N   UNL     1      43.897   4.213  12.393  0.00  0.00    +0.000 NA
ATOM      3  S   UNL     1      43.606   2.885  11.453  0.00  0.00    +0.000 S 
ATOM      4  C   UNL     1      44.630   3.345  10.154  0.00  0.00    +0.000 A 
ATOM      5  C   UNL     1      45.043   2.612   9.032  0.00  0.00    +0.000 A 
ATOM      6  C   UNL     1      45.888   3.231   8.099  0.00  0.00    +0.000 A 
ATOM      7  C   UNL     1      46.204   4.584   8.230  0.00  0.00    +0.000 A 
ATOM      8  C   UNL     1      45.813   5.293   9.374  0.00  0.00    +0.000 A 
ATOM      9  C   UNL     1      45.075   4.644  10.391  0.00  0.00    +0.000 A 
ENDROOT
BRANCH   6  10
ATOM     10  C   UNL     1      46.484   2.357   7.043  0.00  0.00    +0.000 C 
ATOM     11  N   UNL     1      46.927   1.111   7.386  0.00  0.00    +0.000 N 
ATOM     12  O   UNL     1      46.546   2.724   5.875  0.00  0.00    +0.000 OA
ATOM     13  H   UNL     1      46.910   0.713   8.311  0.00  0.00    +0.000 HD
ATOM     14  H   UNL     1      47.266   0.533   6.629  0.00  0.00    +0.000 HD
ENDBRANCH   6  10
BRANCH   1  15
ATOM     15  C   UNL     1      45.569   5.983  12.587  0.00  0.00    +0.000 C 
BRANCH  15  19
ATOM     16  C   UNL     1      44.122   9.774  11.017  0.00  0.00    +0.000 A 
ATOM     17  C   UNL     1      43.362   8.610  10.864  0.00  0.00    +0.000 A 
ATOM     18  C   UNL     1      43.796   7.394  11.415  0.00  0.00    +0.000 A 
ATOM     19  C   UNL     1      45.004   7.321  12.125  0.00  0.00    +0.000 A 
ATOM     20  C   UNL     1      45.745   8.502  12.305  0.00  0.00    +0.000 A 
ATOM     21  C   UNL     1      45.308   9.713  11.758  0.00  0.00    +0.000 A 
BRANCH  16  22
ATOM     22  C   UNL     1      43.680  11.074  10.389  0.00  0.00    +0.000 C 
BRANCH  22  23
ATOM     23  C   UNL     1      42.863  10.851   9.112  0.00  0.00    +0.000 C 
BRANCH  23  24
ATOM     24  N   UNL     1      43.735  10.599   7.965  0.00  0.00    +0.000 NA
ATOM     25  H   UNL     1      43.168  10.538   7.119  0.00  0.00    +0.000 HD
ATOM     26  H   UNL     1      44.189   9.692   8.070  0.00  0.00    +0.000 HD
ENDBRANCH  23  24
ENDBRANCH  22  23
ENDBRANCH  16  22
ENDBRANCH  15  19
ENDBRANCH   1  15
TORSDOF 6
ENDMDL
MODEL 7
REMARK VINA RESULT:    -5.997      4.075      7.840
REMARK INTER + INTRA:          -8.331
REMARK INTER:                  -7.722
REMARK INTRA:                  -0.609
REMARK UNBOUND:                -0.406
REMARK  Name = 
REMARK  6 active torsions:
REMARK  status: ('A' for Active; 'I' for Inactive)
REMARK    1  A    between atoms: N_1  and  C_2
REMARK    2  A    between atoms: C_2  and  C_3
REMARK    3  A    between atoms: C_3  and  C_4
REMARK    4  A    between atoms: C_7  and  C_8
REMARK    5  A    between atoms: C_8  and  C_9
REMARK    6  A    between atoms: C_14  and  C_15
REMARK                            x       y       z     vdW  Elec       q    Type
REMARK                         _______ _______ _______ _____ _____    ______ ____
ROOT
ATOM      1  C   UNL     1      48.723   7.022  14.589  0.00  0.00    +0.000 A 
ATOM      2  N   UNL     1      49.638   7.700  13.890  0.00  0.00    +0.000 NA
ATOM      3  S   UNL     1      49.190   7.685  12.298  0.00  0.00    +0.000 S 
ATOM      4  C   UNL     1      47.799   6.699  12.503  0.00  0.00    +0.000 A 
ATOM      5  C   UNL     1      46.779   6.384  11.595  0.00  0.00    +0.000 A 
ATOM      6  C   UNL     1      45.744   5.534  12.014  0.00  0.00    +0.000 A 
ATOM      7  C   UNL     1      45.805   4.925  13.268  0.00  0.00    +0.000 A 
ATOM      8  C   UNL     1      46.811   5.276  14.177  0.00  0.00    +0.000 A 
ATOM      9  C   UNL     1      47.786   6.236  13.817  0.00  0.00    +0.000 A 
ENDROOT
BRANCH   6  10
ATOM     10  C   UNL     1      44.567   5.402  11.103  0.00  0.00    +0.000 C 
ATOM     11  N   UNL     1      43.701   6.452  10.982  0.00  0.00    +0.000 N 
ATOM     12  O   UNL     1      44.388   4.387  10.439  0.00  0.00    +0.000 OA
ATOM     13  H   UNL     1      43.766   7.329  11.472  0.00  0.00    +0.000 HD
ATOM     14  H   UNL     1      42.954   6.340  10.308  0.00  0.00    +0.000 HD
ENDBRANCH   6  10
BRANCH   1  15
ATOM     15  C   UNL     1      48.638   7.257  16.073  0.00  0.00    +0.000 C 
BRANCH  15  19
ATOM     16  C   UNL     1      51.044   3.917  17.481  0.00  0.00    +0.000 A 
ATOM     17  C   UNL     1      51.646   5.143  17.178  0.00  0.00    +0.000 A 
ATOM     18  C   UNL     1      50.871   6.241  16.775  0.00  0.00    +0.000 A 
ATOM     19  C   UNL     1      49.476   6.129  16.663  0.00  0.00    +0.000 A 
ATOM     20  C   UNL     1      48.875   4.905  17.004  0.00  0.00    +0.000 A 
ATOM     21  C   UNL     1      49.650   3.814  17.408  0.00  0.00    +0.000 A 
BRANCH  16  22
ATOM     22  C   UNL     1      51.879   2.721  17.873  0.00  0.00    +0.000 C 
BRANCH  22  23
ATOM     23  C   UNL     1      51.283   1.406  17.357  0.00  0.00    +0.000 C 
BRANCH  23  24
ATOM     24  N   UNL     1      51.801   0.262  18.108  0.00  0.00    +0.000 NA
ATOM     25  H   UNL     1      51.049  -0.412  18.251  0.00  0.00    +0.000 HD
ATOM     26  H   UNL     1      52.094   0.564  19.037  0.00  0.00    +0.000 HD
ENDBRANCH  23  24
ENDBRANCH  22  23
ENDBRANCH  16  22
ENDBRANCH  15  19
ENDBRANCH   1  15
TORSDOF 6
ENDMDL
MODEL 8
REMARK VINA RESULT:    -5.955      4.047      5.805
REMARK INTER + INTRA:          -8.275
REMARK INTER:                  -7.772
REMARK INTRA:                  -0.503
REMARK UNBOUND:                -0.406
REMARK  Name = 
REMARK  6 active torsions:
REMARK  status: ('A' for Active; 'I' for Inactive)
REMARK    1  A    between atoms: N_1  and  C_2
REMARK    2  A    between atoms: C_2  and  C_3
REMARK    3  A    between atoms: C_3  and  C_4
REMARK    4  A    between atoms: C_7  and  C_8
REMARK    5  A    between atoms: C_8  and  C_9
REMARK    6  A    between atoms: C_14  and  C_15
REMARK                            x       y       z     vdW  Elec       q    Type
REMARK                         _______ _______ _______ _____ _____    ______ ____
ROOT
ATOM      1  C   UNL     1      48.693   7.489  13.730  0.00  0.00    +0.000 A 
ATOM      2  N   UNL     1      49.377   8.463  14.337  0.00  0.00    +0.000 NA
ATOM      3  S   UNL     1      49.665   7.999  15.898  0.00  0.00    +0.000 S 
ATOM      4  C   UNL     1      48.807   6.514  15.814  0.00  0.00    +0.000 A 
ATOM      5  C   UNL     1      48.750   5.456  16.732  0.00  0.00    +0.000 A 
ATOM      6  C   UNL     1      47.955   4.341  16.425  0.00  0.00    +0.000 A 
ATOM      7  C   UNL     1      47.149   4.350  15.286  0.00  0.00    +0.000 A 
ATOM      8  C   UNL     1      47.244   5.397  14.360  0.00  0.00    +0.000 A 
ATOM      9  C   UNL     1      48.143   6.465  14.590  0.00  0.00    +0.000 A 
ENDROOT
BRANCH   6  10
ATOM     10  C   UNL     1      48.093   3.146  17.313  0.00  0.00    +0.000 C 
ATOM     11  N   UNL     1      46.971   2.598  17.865  0.00  0.00    +0.000 N 
ATOM     12  O   UNL     1      49.186   2.632  17.520  0.00  0.00    +0.000 OA
ATOM     13  H   UNL     1      46.029   2.937  17.747  0.00  0.00    +0.000 HD
ATOM     14  H   UNL     1      47.105   1.756  18.408  0.00  0.00    +0.000 HD
ENDBRANCH   6  10
BRANCH   1  15
ATOM     15  C   UNL     1      48.694   7.445  12.225  0.00  0.00    +0.000 C 
BRANCH  15  19
ATOM     16  C   UNL     1      44.442   6.947  11.451  0.00  0.00    +0.000 A 
ATOM     17  C   UNL     1      44.910   8.082  12.123  0.00  0.00    +0.000 A 
ATOM     18  C   UNL     1      46.284   8.276  12.329  0.00  0.00    +0.000 A 
ATOM     19  C   UNL     1      47.217   7.333  11.869  0.00  0.00    +0.000 A 
ATOM     20  C   UNL     1      46.742   6.213  11.163  0.00  0.00    +0.000 A 
ATOM     21  C   UNL     1      45.372   6.025  10.957  0.00  0.00    +0.000 A 
BRANCH  16  22
ATOM     22  C   UNL     1      42.962   6.713  11.266  0.00  0.00    +0.000 C 
BRANCH  22  23
ATOM     23  C   UNL     1      42.506   5.383  11.875  0.00  0.00    +0.000 C 
BRANCH  23  24
ATOM     24  N   UNL     1      42.680   5.380  13.327  0.00  0.00    +0.000 NA
ATOM     25  H   UNL     1      41.867   5.815  13.763  0.00  0.00    +0.000 HD
ATOM     26  H   UNL     1      43.482   5.956  13.579  0.00  0.00    +0.000 HD
ENDBRANCH  23  24
ENDBRANCH  22  23
ENDBRANCH  16  22
ENDBRANCH  15  19
ENDBRANCH   1  15
TORSDOF 6
ENDMDL
MODEL 9
REMARK VINA RESULT:    -5.725      4.211      7.807
REMARK INTER + INTRA:          -7.972
REMARK INTER:                  -7.026
REMARK INTRA:                  -0.946
REMARK UNBOUND:                -0.406
REMARK  Name = 
REMARK  6 active torsions:
REMARK  status: ('A' for Active; 'I' for Inactive)
REMARK    1  A    between atoms: N_1  and  C_2
REMARK    2  A    between atoms: C_2  and  C_3
REMARK    3  A    between atoms: C_3  and  C_4
REMARK    4  A    between atoms: C_7  and  C_8
REMARK    5  A    between atoms: C_8  and  C_9
REMARK    6  A    between atoms: C_14  and  C_15
REMARK                            x       y       z     vdW  Elec       q    Type
REMARK                         _______ _______ _______ _____ _____    ______ ____
ROOT
ATOM      1  C   UNL     1      48.035   8.911  12.394  0.00  0.00    +0.000 A 
ATOM      2  N   UNL     1      47.489  10.110  12.166  0.00  0.00    +0.000 NA
ATOM      3  S   UNL     1      45.849   9.924  12.077  0.00  0.00    +0.000 S 
ATOM      4  C   UNL     1      45.842   8.218  12.263  0.00  0.00    +0.000 A 
ATOM      5  C   UNL     1      44.767   7.340  12.466  0.00  0.00    +0.000 A 
ATOM      6  C   UNL     1      45.032   5.967  12.580  0.00  0.00    +0.000 A 
ATOM      7  C   UNL     1      46.325   5.485  12.371  0.00  0.00    +0.000 A 
ATOM      8  C   UNL     1      47.394   6.377  12.205  0.00  0.00    +0.000 A 
ATOM      9  C   UNL     1      47.161   7.771  12.224  0.00  0.00    +0.000 A 
ENDROOT
BRANCH   6  10
ATOM     10  C   UNL     1      43.901   5.093  13.015  0.00  0.00    +0.000 C 
ATOM     11  N   UNL     1      42.636   5.609  13.036  0.00  0.00    +0.000 N 
ATOM     12  O   UNL     1      44.083   3.919  13.315  0.00  0.00    +0.000 OA
ATOM     13  H   UNL     1      42.379   6.553  12.797  0.00  0.00    +0.000 HD
ATOM     14  H   UNL     1      41.894   4.965  13.278  0.00  0.00    +0.000 HD
ENDBRANCH   6  10
BRANCH   1  15
ATOM     15  C   UNL     1      49.429   8.856  12.958  0.00  0.00    +0.000 C 
BRANCH  15  19
ATOM     16  C   UNL     1      48.523   7.694  17.051  0.00  0.00    +0.000 A 
ATOM     17  C   UNL     1      49.204   6.815  16.201  0.00  0.00    +0.000 A 
ATOM     18  C   UNL     1      49.547   7.203  14.898  0.00  0.00    +0.000 A 
ATOM     19  C   UNL     1      49.210   8.478  14.418  0.00  0.00    +0.000 A 
ATOM     20  C   UNL     1      48.558   9.368  15.289  0.00  0.00    +0.000 A 
ATOM     21  C   UNL     1      48.221   8.980  16.589  0.00  0.00    +0.000 A 
BRANCH  16  22
ATOM     22  C   UNL     1      48.114   7.265  18.440  0.00  0.00    +0.000 C 
BRANCH  22  23
ATOM     23  C   UNL     1      47.962   5.744  18.555  0.00  0.00    +0.000 C 
BRANCH  23  24
ATOM     24  N   UNL     1      46.553   5.357  18.618  0.00  0.00    +0.000 NA
ATOM     25  H   UNL     1      46.075   5.944  19.302  0.00  0.00    +0.000 HD
ATOM     26  H   UNL     1      46.474   4.400  18.958  0.00  0.00    +0.000 HD
ENDBRANCH  23  24
ENDBRANCH  22  23
ENDBRANCH  16  22
ENDBRANCH  15  19
ENDBRANCH   1  15
TORSDOF 6
ENDMDL
