MODEL 1
REMARK VINA RESULT:    -7.363      0.000      0.000
REMARK INTER + INTRA:         -10.990
REMARK INTER:                  -9.946
REMARK INTRA:                  -1.044
REMARK UNBOUND:                -1.044
REMARK  Name = 
REMARK  7 active torsions:
REMARK  status: ('A' for Active; 'I' for Inactive)
REMARK    1  A    between atoms: C_1  and  N_2
REMARK    2  A    between atoms: N_2  and  C_3
REMARK    3  A    between atoms: C_3  and  C_4
REMARK    4  A    between atoms: C_8  and  C_9
REMARK    5  A    between atoms: C_9  and  O_10
REMARK    6  A    between atoms: O_10  and  C_11
REMARK    7  A    between atoms: C_18  and  C_20
REMARK                            x       y       z     vdW  Elec       q    Type
REMARK                         _______ _______ _______ _____ _____    ______ ____
ROOT
ATOM      1  C   UNL     1      45.712   8.435  12.549  0.00  0.00    +0.000 C 
ATOM      2  N   UNL     1      45.621   7.006  12.279  0.00  0.00    +0.000 N 
ATOM      3  C   UNL     1      44.455   6.543  11.650  0.00  0.00    +0.000 C 
ATOM      4  O   UNL     1      43.574   7.315  11.280  0.00  0.00    +0.000 OA
ENDROOT
BRANCH   3   5
ATOM      5  C   UNL     1      44.273   5.097  11.452  0.00  0.00    +0.000 A 
ATOM      6  C   UNL     1      43.509   4.282  12.272  0.00  0.00    +0.000 A 
ATOM      7  S   UNL     1      43.431   2.661  11.739  0.00  0.00    +0.000 S 
ATOM      8  C   UNL     1      44.300   3.031  10.324  0.00  0.00    +0.000 A 
ATOM      9  N   UNL     1      44.507   2.092   9.360  0.00  0.00    +0.000 NA
ATOM     10  C   UNL     1      45.117   2.537   8.317  0.00  0.00    +0.000 A 
ATOM     11  N   UNL     1      45.572   3.822   8.160  0.00  0.00    +0.000 N 
ATOM     12  C   UNL     1      45.513   4.765   9.164  0.00  0.00    +0.000 A 
ATOM     13  O   UNL     1      46.142   5.813   9.087  0.00  0.00    +0.000 OA
ATOM     14  C   UNL     1      44.726   4.346  10.308  0.00  0.00    +0.000 A 
ATOM     15  H   UNL     1      46.103   4.087   7.344  0.00  0.00    +0.000 HD
ENDBRANCH   3   5
BRANCH   2  16
ATOM     16  C   UNL     1      46.754   6.139  12.618  0.00  0.00    +0.000 C 
BRANCH  16  17
ATOM     17  C   UNL     1      47.936   6.732  13.348  0.00  0.00    +0.000 A 
ATOM     18  C   UNL     1      49.012   7.268  12.652  0.00  0.00    +0.000 A 
ATOM     19  C   UNL     1      50.122   7.698  13.374  0.00  0.00    +0.000 A 
ATOM     20  C   UNL     1      50.129   7.585  14.762  0.00  0.00    +0.000 A 
ATOM     21  C   UNL     1      49.020   7.031  15.394  0.00  0.00    +0.000 A 
ATOM     22  N   UNL     1      47.929   6.620  14.701  0.00  0.00    +0.000 NA
BRANCH  21  23
ATOM     23  C   UNL     1      49.030   6.767  16.883  0.00  0.00    +0.000 C 
BRANCH  23  24
ATOM     24  O   UNL     1      48.278   5.598  17.210  0.00  0.00    +0.000 OA
BRANCH  24  25
ATOM     25  C   UNL     1      48.954   4.409  17.121  0.00  0.00    +0.000 A 
ATOM     26  C   UNL     1      50.265   4.178  17.535  0.00  0.00    +0.000 A 
ATOM     27  C   UNL     1      50.789   2.904  17.394  0.00  0.00    +0.000 A 
ATOM     28  N   UNL     1      50.105   1.864  16.873  0.00  0.00    +0.000 NA
ATOM     29  C   UNL     1      48.843   2.114  16.468  0.00  0.00    +0.000 A 
ATOM     30  C   UNL     1      48.234   3.354  16.568  0.00  0.00    +0.000 A 
ENDBRANCH  24  25
ENDBRANCH  23  24
ENDBRANCH  21  23
ENDBRANCH  16  17
ENDBRANCH   2  16
TORSDOF 6
ENDMDL
MODEL 2
REMARK VINA RESULT:    -7.337      3.527      7.964
REMARK INTER + INTRA:         -10.955
REMARK INTER:                 -10.276
REMARK INTRA:                  -0.679
REMARK UNBOUND:                -1.044
REMARK  Name = 
REMARK  7 active torsions:
REMARK  status: ('A' for Active; 'I' for Inactive)
REMARK    1  A    between atoms: C_1  and  N_2
REMARK    2  A    between atoms: N_2  and  C_3
REMARK    3  A    between atoms: C_3  and  C_4
REMARK    4  A    between atoms: C_8  and  C_9
REMARK    5  A    between atoms: C_9  and  O_10
REMARK    6  A    between atoms: O_10  and  C_11
REMARK    7  A    between atoms: C_18  and  C_20
REMARK                            x       y       z     vdW  Elec       q    Type
REMARK                         _______ _______ _______ _____ _____    ______ ____
ROOT
ATOM      1  C   UNL     1      47.175   5.366  13.742  0.00  0.00    +0.000 C 
ATOM      2  N   UNL     1      47.268   6.578  12.939  0.00  0.00    +0.000 N 
ATOM      3  C   UNL     1      48.167   7.567  13.367  0.00  0.00    +0.000 C 
ATOM      4  O   UNL     1      48.896   7.395  14.341  0.00  0.00    +0.000 OA
ENDROOT
BRANCH   3   5
ATOM      5  C   UNL     1      48.219   8.849  12.648  0.00  0.00    +0.000 A 
ATOM      6  C   UNL     1      47.300   9.875  12.803  0.00  0.00    +0.000 A 
ATOM      7  S   UNL     1      47.671  11.266  11.887  0.00  0.00    +0.000 S 
ATOM      8  C   UNL     1      49.143  10.592  11.364  0.00  0.00    +0.000 A 
ATOM      9  N   UNL     1      50.018  11.312  10.610  0.00  0.00    +0.000 NA
ATOM     10  C   UNL     1      51.119  10.695  10.352  0.00  0.00    +0.000 A 
ATOM     11  N   UNL     1      51.414   9.414  10.745  0.00  0.00    +0.000 N 
ATOM     12  C   UNL     1      50.503   8.599  11.384  0.00  0.00    +0.000 A 
ATOM     13  O   UNL     1      50.702   7.396  11.499  0.00  0.00    +0.000 OA
ATOM     14  C   UNL     1      49.300   9.290  11.803  0.00  0.00    +0.000 A 
ATOM     15  H   UNL     1      52.269   8.966  10.451  0.00  0.00    +0.000 HD
ENDBRANCH   3   5
BRANCH   2  16
ATOM     16  C   UNL     1      46.475   6.686  11.710  0.00  0.00    +0.000 C 
BRANCH  16  17
ATOM     17  C   UNL     1      45.241   5.828  11.558  0.00  0.00    +0.000 A 
ATOM     18  C   UNL     1      44.185   5.926  12.455  0.00  0.00    +0.000 A 
ATOM     19  C   UNL     1      43.124   5.034  12.331  0.00  0.00    +0.000 A 
ATOM     20  C   UNL     1      43.142   4.076  11.320  0.00  0.00    +0.000 A 
ATOM     21  C   UNL     1      44.235   4.030  10.461  0.00  0.00    +0.000 A 
ATOM     22  N   UNL     1      45.269   4.901  10.566  0.00  0.00    +0.000 NA
BRANCH  21  23
ATOM     23  C   UNL     1      44.365   2.929   9.432  0.00  0.00    +0.000 C 
BRANCH  23  24
ATOM     24  O   UNL     1      44.735   3.451   8.155  0.00  0.00    +0.000 OA
BRANCH  24  25
ATOM     25  C   UNL     1      45.798   2.836   7.545  0.00  0.00    +0.000 A 
ATOM     26  C   UNL     1      46.511   3.326   6.452  0.00  0.00    +0.000 A 
ATOM     27  C   UNL     1      47.579   2.584   5.973  0.00  0.00    +0.000 A 
ATOM     28  N   UNL     1      47.973   1.406   6.501  0.00  0.00    +0.000 NA
ATOM     29  C   UNL     1      47.259   0.948   7.550  0.00  0.00    +0.000 A 
ATOM     30  C   UNL     1      46.178   1.617   8.098  0.00  0.00    +0.000 A 
ENDBRANCH  24  25
ENDBRANCH  23  24
ENDBRANCH  21  23
ENDBRANCH  16  17
ENDBRANCH   2  16
TORSDOF 6
ENDMDL
MODEL 3
REMARK VINA RESULT:    -7.243      3.714      7.983
REMARK INTER + INTRA:         -10.828
REMARK INTER:                  -9.832
REMARK INTRA:                  -0.996
REMARK UNBOUND:                -1.044
REMARK  Name = 
REMARK  7 active torsions:
REMARK  status: ('A' for Active; 'I' for Inactive)
REMARK    1  A    between atoms: C_1  and  N_2
REMARK    2  A    between atoms: N_2  and  C_3
REMARK    3  A    between atoms: C_3  and  C_4
REMARK    4  A    between atoms: C_8  and  C_9
REMARK    5  A    between atoms: C_9  and  O_10
REMARK    6  A    between atoms: O_10  and  C_11
REMARK    7  A    between atoms: C_18  and  C_20
REMARK                            x       y       z     vdW  Elec       q    Type
REMARK                         _______ _______ _______ _____ _____    ______ ____
ROOT
ATOM      1  C   UNL     1      44.946   8.697  11.887  0.00  0.00    +0.000 C 
ATOM      2  N   UNL     1      46.310   8.232  12.102  0.00  0.00    +0.000 N 
ATOM      3  C   UNL     1      47.314   9.207  12.204  0.00  0.00    +0.000 C 
ATOM      4  O   UNL     1      47.051  10.407  12.181  0.00  0.00    +0.000 OA
ENDROOT
BRANCH   3   5
ATOM      5  C   UNL     1      48.718   8.782  12.317  0.00  0.00    +0.000 A 
ATOM      6  C   UNL     1      49.563   8.570  11.239  0.00  0.00    +0.000 A 
ATOM      7  S   UNL     1      51.156   8.154  11.694  0.00  0.00    +0.000 S 
ATOM      8  C   UNL     1      50.799   8.380  13.342  0.00  0.00    +0.000 A 
ATOM      9  N   UNL     1      51.767   8.278  14.292  0.00  0.00    +0.000 NA
ATOM     10  C   UNL     1      51.363   8.546  15.485  0.00  0.00    +0.000 A 
ATOM     11  N   UNL     1      50.074   8.873  15.824  0.00  0.00    +0.000 N 
ATOM     12  C   UNL     1      49.034   8.847  14.920  0.00  0.00    +0.000 A 
ATOM     13  O   UNL     1      47.868   8.898  15.293  0.00  0.00    +0.000 OA
ATOM     14  C   UNL     1      49.463   8.672  13.546  0.00  0.00    +0.000 A 
ATOM     15  H   UNL     1      49.810   9.005  16.789  0.00  0.00    +0.000 HD
ENDBRANCH   3   5
BRANCH   2  16
ATOM     16  C   UNL     1      46.561   6.795  12.256  0.00  0.00    +0.000 C 
BRANCH  16  17
ATOM     17  C   UNL     1      45.437   5.823  11.988  0.00  0.00    +0.000 A 
ATOM     18  C   UNL     1      44.697   5.278  13.029  0.00  0.00    +0.000 A 
ATOM     19  C   UNL     1      43.749   4.303  12.731  0.00  0.00    +0.000 A 
ATOM     20  C   UNL     1      43.562   3.902  11.410  0.00  0.00    +0.000 A 
ATOM     21  C   UNL     1      44.344   4.485  10.417  0.00  0.00    +0.000 A 
ATOM     22  N   UNL     1      45.263   5.443  10.695  0.00  0.00    +0.000 NA
BRANCH  21  23
ATOM     23  C   UNL     1      44.273   3.994   8.989  0.00  0.00    +0.000 C 
BRANCH  23  24
ATOM     24  O   UNL     1      45.475   4.289   8.276  0.00  0.00    +0.000 OA
BRANCH  24  25
ATOM     25  C   UNL     1      46.194   3.205   7.842  0.00  0.00    +0.000 A 
ATOM     26  C   UNL     1      46.023   1.887   8.262  0.00  0.00    +0.000 A 
ATOM     27  C   UNL     1      46.823   0.906   7.700  0.00  0.00    +0.000 A 
ATOM     28  N   UNL     1      47.768   1.148   6.768  0.00  0.00    +0.000 NA
ATOM     29  C   UNL     1      47.923   2.433   6.387  0.00  0.00    +0.000 A 
ATOM     30  C   UNL     1      47.171   3.482   6.891  0.00  0.00    +0.000 A 
ENDBRANCH  24  25
ENDBRANCH  23  24
ENDBRANCH  21  23
ENDBRANCH  16  17
ENDBRANCH   2  16
TORSDOF 6
ENDMDL
MODEL 4
REMARK VINA RESULT:    -7.064      3.231      8.189
REMARK INTER + INTRA:         -10.586
REMARK INTER:                 -10.206
REMARK INTRA:                  -0.380
REMARK UNBOUND:                -1.044
REMARK  Name = 
REMARK  7 active torsions:
REMARK  status: ('A' for Active; 'I' for Inactive)
REMARK    1  A    between atoms: C_1  and  N_2
REMARK    2  A    between atoms: N_2  and  C_3
REMARK    3  A    between atoms: C_3  and  C_4
REMARK    4  A    between atoms: C_8  and  C_9
REMARK    5  A    between atoms: C_9  and  O_10
REMARK    6  A    between atoms: O_10  and  C_11
REMARK    7  A    between atoms: C_18  and  C_20
REMARK                            x       y       z     vdW  Elec       q    Type
REMARK                         _______ _______ _______ _____ _____    ______ ____
ROOT
ATOM      1  C   UNL     1      46.670   4.702  14.419  0.00  0.00    +0.000 C 
ATOM      2  N   UNL     1      47.326   5.782  13.693  0.00  0.00    +0.000 N 
ATOM      3  C   UNL     1      48.496   6.317  14.254  0.00  0.00    +0.000 C 
ATOM      4  O   UNL     1      48.988   5.853  15.280  0.00  0.00    +0.000 OA
ENDROOT
BRANCH   3   5
ATOM      5  C   UNL     1      49.134   7.476  13.612  0.00  0.00    +0.000 A 
ATOM      6  C   UNL     1      49.702   7.460  12.347  0.00  0.00    +0.000 A 
ATOM      7  S   UNL     1      50.297   8.980  11.849  0.00  0.00    +0.000 S 
ATOM      8  C   UNL     1      49.690   9.734  13.247  0.00  0.00    +0.000 A 
ATOM      9  N   UNL     1      49.774  11.082  13.413  0.00  0.00    +0.000 NA
ATOM     10  C   UNL     1      49.208  11.516  14.485  0.00  0.00    +0.000 A 
ATOM     11  N   UNL     1      48.596  10.726  15.427  0.00  0.00    +0.000 N 
ATOM     12  C   UNL     1      48.613   9.349  15.373  0.00  0.00    +0.000 A 
ATOM     13  O   UNL     1      48.283   8.672  16.339  0.00  0.00    +0.000 OA
ATOM     14  C   UNL     1      49.130   8.823  14.124  0.00  0.00    +0.000 A 
ATOM     15  H   UNL     1      48.231  11.125  16.279  0.00  0.00    +0.000 HD
ENDBRANCH   3   5
BRANCH   2  16
ATOM     16  C   UNL     1      46.777   6.216  12.404  0.00  0.00    +0.000 C 
BRANCH  16  17
ATOM     17  C   UNL     1      45.447   5.662  11.951  0.00  0.00    +0.000 A 
ATOM     18  C   UNL     1      44.253   6.173  12.443  0.00  0.00    +0.000 A 
ATOM     19  C   UNL     1      43.063   5.550  12.077  0.00  0.00    +0.000 A 
ATOM     20  C   UNL     1      43.095   4.444  11.232  0.00  0.00    +0.000 A 
ATOM     21  C   UNL     1      44.327   3.980  10.781  0.00  0.00    +0.000 A 
ATOM     22  N   UNL     1      45.491   4.586  11.123  0.00  0.00    +0.000 NA
BRANCH  21  23
ATOM     23  C   UNL     1      44.426   2.708   9.970  0.00  0.00    +0.000 C 
BRANCH  23  24
ATOM     24  O   UNL     1      44.619   2.988   8.583  0.00  0.00    +0.000 OA
BRANCH  24  25
ATOM     25  C   UNL     1      45.744   2.448   8.016  0.00  0.00    +0.000 A 
ATOM     26  C   UNL     1      46.128   1.110   8.069  0.00  0.00    +0.000 A 
ATOM     27  C   UNL     1      47.289   0.728   7.417  0.00  0.00    +0.000 A 
ATOM     28  N   UNL     1      48.081   1.579   6.732  0.00  0.00    +0.000 NA
ATOM     29  C   UNL     1      47.695   2.872   6.705  0.00  0.00    +0.000 A 
ATOM     30  C   UNL     1      46.552   3.347   7.326  0.00  0.00    +0.000 A 
ENDBRANCH  24  25
ENDBRANCH  23  24
ENDBRANCH  21  23
ENDBRANCH  16  17
ENDBRANCH   2  16
TORSDOF 6
ENDMDL
MODEL 5
REMARK VINA RESULT:    -6.917      2.075      3.271
REMARK INTER + INTRA:         -10.387
REMARK INTER:                  -9.230
REMARK INTRA:                  -1.157
REMARK UNBOUND:                -1.044
REMARK  Name = 
REMARK  7 active torsions:
REMARK  status: ('A' for Active; 'I' for Inactive)
REMARK    1  A    between atoms: C_1  and  N_2
REMARK    2  A    between atoms: N_2  and  C_3
REMARK    3  A    between atoms: C_3  and  C_4
REMARK    4  A    between atoms: C_8  and  C_9
REMARK    5  A    between atoms: C_9  and  O_10
REMARK    6  A    between atoms: O_10  and  C_11
REMARK    7  A    between atoms: C_18  and  C_20
REMARK                            x       y       z     vdW  Elec       q    Type
REMARK                         _______ _______ _______ _____ _____    ______ ____
ROOT
ATOM      1  C   UNL     1      46.497   8.372  12.512  0.00  0.00    +0.000 C 
ATOM      2  N   UNL     1      46.212   6.963  12.279  0.00  0.00    +0.000 N 
ATOM      3  C   UNL     1      44.943   6.637  11.778  0.00  0.00    +0.000 C 
ATOM      4  O   UNL     1      44.125   7.506  11.484  0.00  0.00    +0.000 OA
ENDROOT
BRANCH   3   5
ATOM      5  C   UNL     1      44.573   5.222  11.625  0.00  0.00    +0.000 A 
ATOM      6  C   UNL     1      43.835   4.498  12.550  0.00  0.00    +0.000 A 
ATOM      7  S   UNL     1      43.505   2.898  12.054  0.00  0.00    +0.000 S 
ATOM      8  C   UNL     1      44.217   3.167  10.533  0.00  0.00    +0.000 A 
ATOM      9  N   UNL     1      44.188   2.212   9.563  0.00  0.00    +0.000 NA
ATOM     10  C   UNL     1      44.702   2.586   8.444  0.00  0.00    +0.000 A 
ATOM     11  N   UNL     1      45.276   3.811   8.210  0.00  0.00    +0.000 N 
ATOM     12  C   UNL     1      45.456   4.752   9.201  0.00  0.00    +0.000 A 
ATOM     13  O   UNL     1      46.184   5.722   9.028  0.00  0.00    +0.000 OA
ATOM     14  C   UNL     1      44.784   4.425  10.443  0.00  0.00    +0.000 A 
ATOM     15  H   UNL     1      45.722   4.014   7.328  0.00  0.00    +0.000 HD
ENDBRANCH   3   5
BRANCH   2  16
ATOM     16  C   UNL     1      47.264   5.970  12.520  0.00  0.00    +0.000 C 
BRANCH  16  17
ATOM     17  C   UNL     1      47.540   5.525  13.937  0.00  0.00    +0.000 A 
ATOM     18  C   UNL     1      46.904   4.414  14.476  0.00  0.00    +0.000 A 
ATOM     19  C   UNL     1      47.113   4.117  15.820  0.00  0.00    +0.000 A 
ATOM     20  C   UNL     1      47.946   4.929  16.585  0.00  0.00    +0.000 A 
ATOM     21  C   UNL     1      48.546   6.031  15.982  0.00  0.00    +0.000 A 
ATOM     22  N   UNL     1      48.359   6.322  14.671  0.00  0.00    +0.000 NA
BRANCH  21  23
ATOM     23  C   UNL     1      49.353   7.015  16.798  0.00  0.00    +0.000 C 
BRANCH  23  24
ATOM     24  O   UNL     1      49.516   6.567  18.144  0.00  0.00    +0.000 OA
BRANCH  24  25
ATOM     25  C   UNL     1      48.754   7.212  19.085  0.00  0.00    +0.000 A 
ATOM     26  C   UNL     1      48.296   6.668  20.283  0.00  0.00    +0.000 A 
ATOM     27  C   UNL     1      47.554   7.472  21.133  0.00  0.00    +0.000 A 
ATOM     28  N   UNL     1      47.242   8.758  20.870  0.00  0.00    +0.000 NA
ATOM     29  C   UNL     1      47.687   9.258  19.698  0.00  0.00    +0.000 A 
ATOM     30  C   UNL     1      48.434   8.533  18.785  0.00  0.00    +0.000 A 
ENDBRANCH  24  25
ENDBRANCH  23  24
ENDBRANCH  21  23
ENDBRANCH  16  17
ENDBRANCH   2  16
TORSDOF 6
ENDMDL
MODEL 6
REMARK VINA RESULT:    -6.855      2.812      8.284
REMARK INTER + INTRA:         -10.304
REMARK INTER:                  -9.436
REMARK INTRA:                  -0.868
REMARK UNBOUND:                -1.044
REMARK  Name = 
REMARK  7 active torsions:
REMARK  status: ('A' for Active; 'I' for Inactive)
REMARK    1  A    between atoms: C_1  and  N_2
REMARK    2  A    between atoms: N_2  and  C_3
REMARK    3  A    between atoms: C_3  and  C_4
REMARK    4  A    between atoms: C_8  and  C_9
REMARK    5  A    between atoms: C_9  and  O_10
REMARK    6  A    between atoms: O_10  and  C_11
REMARK    7  A    between atoms: C_18  and  C_20
REMARK                            x       y       z     vdW  Elec       q    Type
REMARK                         _______ _______ _______ _____ _____    ______ ____
ROOT
ATOM      1  C   UNL     1      49.066   7.023  12.749  0.00  0.00    +0.000 C 
ATOM      2  N   UNL     1      48.653   6.635  14.091  0.00  0.00    +0.000 N 
ATOM      3  C   UNL     1      49.517   6.957  15.149  0.00  0.00    +0.000 C 
ATOM      4  O   UNL     1      50.548   7.599  14.964  0.00  0.00    +0.000 OA
ENDROOT
BRANCH   3   5
ATOM      5  C   UNL     1      49.192   6.494  16.506  0.00  0.00    +0.000 A 
ATOM      6  C   UNL     1      49.533   5.250  17.014  0.00  0.00    +0.000 A 
ATOM      7  S   UNL     1      49.082   5.035  18.647  0.00  0.00    +0.000 S 
ATOM      8  C   UNL     1      48.545   6.644  18.765  0.00  0.00    +0.000 A 
ATOM      9  N   UNL     1      48.114   7.158  19.949  0.00  0.00    +0.000 NA
ATOM     10  C   UNL     1      47.807   8.407  19.899  0.00  0.00    +0.000 A 
ATOM     11  N   UNL     1      47.856   9.185  18.770  0.00  0.00    +0.000 N 
ATOM     12  C   UNL     1      48.147   8.674  17.522  0.00  0.00    +0.000 A 
ATOM     13  O   UNL     1      47.942   9.328  16.506  0.00  0.00    +0.000 OA
ATOM     14  C   UNL     1      48.617   7.303  17.551  0.00  0.00    +0.000 A 
ATOM     15  H   UNL     1      47.537  10.142  18.785  0.00  0.00    +0.000 HD
ENDBRANCH   3   5
BRANCH   2  16
ATOM     16  C   UNL     1      47.351   5.987  14.281  0.00  0.00    +0.000 C 
BRANCH  16  17
ATOM     17  C   UNL     1      46.348   6.014  13.152  0.00  0.00    +0.000 A 
ATOM     18  C   UNL     1      45.738   7.201  12.763  0.00  0.00    +0.000 A 
ATOM     19  C   UNL     1      44.741   7.148  11.793  0.00  0.00    +0.000 A 
ATOM     20  C   UNL     1      44.382   5.923  11.238  0.00  0.00    +0.000 A 
ATOM     21  C   UNL     1      45.029   4.772  11.679  0.00  0.00    +0.000 A 
ATOM     22  N   UNL     1      46.010   4.813  12.615  0.00  0.00    +0.000 NA
BRANCH  21  23
ATOM     23  C   UNL     1      44.588   3.406  11.205  0.00  0.00    +0.000 C 
BRANCH  23  24
ATOM     24  O   UNL     1      44.153   3.442   9.845  0.00  0.00    +0.000 OA
BRANCH  24  25
ATOM     25  C   UNL     1      45.109   3.156   8.904  0.00  0.00    +0.000 A 
ATOM     26  C   UNL     1      45.726   4.075   8.057  0.00  0.00    +0.000 A 
ATOM     27  C   UNL     1      46.694   3.617   7.178  0.00  0.00    +0.000 A 
ATOM     28  N   UNL     1      47.077   2.326   7.088  0.00  0.00    +0.000 NA
ATOM     29  C   UNL     1      46.457   1.454   7.910  0.00  0.00    +0.000 A 
ATOM     30  C   UNL     1      45.479   1.817   8.820  0.00  0.00    +0.000 A 
ENDBRANCH  24  25
ENDBRANCH  23  24
ENDBRANCH  21  23
ENDBRANCH  16  17
ENDBRANCH   2  16
TORSDOF 6
ENDMDL
MODEL 7
REMARK VINA RESULT:    -6.834      2.867      7.791
REMARK INTER + INTRA:         -10.276
REMARK INTER:                  -9.505
REMARK INTRA:                  -0.771
REMARK UNBOUND:                -1.044
REMARK  Name = 
REMARK  7 active torsions:
REMARK  status: ('A' for Active; 'I' for Inactive)
REMARK    1  A    between atoms: C_1  and  N_2
REMARK    2  A    between atoms: N_2  and  C_3
REMARK    3  A    between atoms: C_3  and  C_4
REMARK    4  A    between atoms: C_8  and  C_9
REMARK    5  A    between atoms: C_9  and  O_10
REMARK    6  A    between atoms: O_10  and  C_11
REMARK    7  A    between atoms: C_18  and  C_20
REMARK                            x       y       z     vdW  Elec       q    Type
REMARK                         _______ _______ _______ _____ _____    ______ ____
ROOT
ATOM      1  C   UNL     1      46.898   4.028  14.553  0.00  0.00    +0.000 C 
ATOM      2  N   UNL     1      47.496   4.749  15.668  0.00  0.00    +0.000 N 
ATOM      3  C   UNL     1      47.289   4.230  16.955  0.00  0.00    +0.000 C 
ATOM      4  O   UNL     1      46.686   3.175  17.134  0.00  0.00    +0.000 OA
ENDROOT
BRANCH   3   5
ATOM      5  C   UNL     1      47.786   4.980  18.119  0.00  0.00    +0.000 A 
ATOM      6  C   UNL     1      47.002   5.797  18.920  0.00  0.00    +0.000 A 
ATOM      7  S   UNL     1      47.851   6.473  20.239  0.00  0.00    +0.000 S 
ATOM      8  C   UNL     1      49.252   5.586  19.859  0.00  0.00    +0.000 A 
ATOM      9  N   UNL     1      50.349   5.626  20.662  0.00  0.00    +0.000 NA
ATOM     10  C   UNL     1      51.304   4.848  20.285  0.00  0.00    +0.000 A 
ATOM     11  N   UNL     1      51.281   4.061  19.162  0.00  0.00    +0.000 N 
ATOM     12  C   UNL     1      50.252   4.097  18.245  0.00  0.00    +0.000 A 
ATOM     13  O   UNL     1      50.369   3.578  17.141  0.00  0.00    +0.000 OA
ATOM     14  C   UNL     1      49.105   4.863  18.689  0.00  0.00    +0.000 A 
ATOM     15  H   UNL     1      52.091   3.525  18.888  0.00  0.00    +0.000 HD
ENDBRANCH   3   5
BRANCH   2  16
ATOM     16  C   UNL     1      48.321   5.931  15.397  0.00  0.00    +0.000 C 
BRANCH  16  17
ATOM     17  C   UNL     1      48.192   6.623  14.061  0.00  0.00    +0.000 A 
ATOM     18  C   UNL     1      49.309   7.113  13.396  0.00  0.00    +0.000 A 
ATOM     19  C   UNL     1      49.119   7.839  12.224  0.00  0.00    +0.000 A 
ATOM     20  C   UNL     1      47.828   8.054  11.747  0.00  0.00    +0.000 A 
ATOM     21  C   UNL     1      46.754   7.541  12.467  0.00  0.00    +0.000 A 
ATOM     22  N   UNL     1      46.928   6.822  13.604  0.00  0.00    +0.000 NA
BRANCH  21  23
ATOM     23  C   UNL     1      45.331   7.856  12.063  0.00  0.00    +0.000 C 
BRANCH  23  24
ATOM     24  O   UNL     1      44.824   6.889  11.143  0.00  0.00    +0.000 OA
BRANCH  24  25
ATOM     25  C   UNL     1      44.474   5.678  11.682  0.00  0.00    +0.000 A 
ATOM     26  C   UNL     1      43.611   5.478  12.758  0.00  0.00    +0.000 A 
ATOM     27  C   UNL     1      43.347   4.179  13.162  0.00  0.00    +0.000 A 
ATOM     28  N   UNL     1      43.880   3.087  12.576  0.00  0.00    +0.000 NA
ATOM     29  C   UNL     1      44.722   3.307  11.544  0.00  0.00    +0.000 A 
ATOM     30  C   UNL     1      45.047   4.566  11.070  0.00  0.00    +0.000 A 
ENDBRANCH  24  25
ENDBRANCH  23  24
ENDBRANCH  21  23
ENDBRANCH  16  17
ENDBRANCH   2  16
TORSDOF 6
ENDMDL
MODEL 8
REMARK VINA RESULT:    -6.577      1.996      7.654
REMARK INTER + INTRA:          -9.928
REMARK INTER:                  -8.872
REMARK INTRA:                  -1.055
REMARK UNBOUND:                -1.044
REMARK  Name = 
REMARK  7 active torsions:
REMARK  status: ('A' for Active; 'I' for Inactive)
REMARK    1  A    between atoms: C_1  and  N_2
REMARK    2  A    between atoms: N_2  and  C_3
REMARK    3  A    between atoms: C_3  and  C_4
REMARK    4  A    between atoms: C_8  and  C_9
REMARK    5  A    between atoms: C_9  and  O_10
REMARK    6  A    between atoms: O_10  and  C_11
REMARK    7  A    between atoms: C_18  and  C_20
REMARK                            x       y       z     vdW  Elec       q    Type
REMARK                         _______ _______ _______ _____ _____    ______ ____
ROOT
ATOM      1  C   UNL     1      49.582   8.994  16.875  0.00  0.00    +0.000 C 
ATOM      2  N   UNL     1      49.298   7.580  16.666  0.00  0.00    +0.000 N 
ATOM      3  C   UNL     1      48.845   6.845  17.772  0.00  0.00    +0.000 C 
ATOM      4  O   UNL     1      48.630   7.381  18.857  0.00  0.00    +0.000 OA
ENDROOT
BRANCH   3   5
ATOM      5  C   UNL     1      48.646   5.394  17.636  0.00  0.00    +0.000 A 
ATOM      6  C   UNL     1      47.439   4.793  17.313  0.00  0.00    +0.000 A 
ATOM      7  S   UNL     1      47.544   3.096  17.156  0.00  0.00    +0.000 S 
ATOM      8  C   UNL     1      49.230   3.128  17.377  0.00  0.00    +0.000 A 
ATOM      9  N   UNL     1      49.977   1.996  17.263  0.00  0.00    +0.000 NA
ATOM     10  C   UNL     1      51.244   2.188  17.385  0.00  0.00    +0.000 A 
ATOM     11  N   UNL     1      51.835   3.399  17.646  0.00  0.00    +0.000 N 
ATOM     12  C   UNL     1      51.112   4.542  17.912  0.00  0.00    +0.000 A 
ATOM     13  O   UNL     1      51.650   5.538  18.381  0.00  0.00    +0.000 OA
ATOM     14  C   UNL     1      49.690   4.400  17.664  0.00  0.00    +0.000 A 
ATOM     15  H   UNL     1      52.831   3.467  17.797  0.00  0.00    +0.000 HD
ENDBRANCH   3   5
BRANCH   2  16
ATOM     16  C   UNL     1      49.443   7.011  15.322  0.00  0.00    +0.000 C 
BRANCH  16  17
ATOM     17  C   UNL     1      48.290   7.121  14.353  0.00  0.00    +0.000 A 
ATOM     18  C   UNL     1      47.747   8.357  14.023  0.00  0.00    +0.000 A 
ATOM     19  C   UNL     1      46.616   8.390  13.212  0.00  0.00    +0.000 A 
ATOM     20  C   UNL     1      46.061   7.198  12.753  0.00  0.00    +0.000 A 
ATOM     21  C   UNL     1      46.652   5.996  13.128  0.00  0.00    +0.000 A 
ATOM     22  N   UNL     1      47.761   5.952  13.908  0.00  0.00    +0.000 NA
BRANCH  21  23
ATOM     23  C   UNL     1      46.014   4.673  12.765  0.00  0.00    +0.000 C 
BRANCH  23  24
ATOM     24  O   UNL     1      44.873   4.858  11.926  0.00  0.00    +0.000 OA
BRANCH  24  25
ATOM     25  C   UNL     1      44.878   4.159  10.747  0.00  0.00    +0.000 A 
ATOM     26  C   UNL     1      44.494   2.830  10.580  0.00  0.00    +0.000 A 
ATOM     27  C   UNL     1      44.539   2.283   9.308  0.00  0.00    +0.000 A 
ATOM     28  N   UNL     1      44.939   2.961   8.212  0.00  0.00    +0.000 NA
ATOM     29  C   UNL     1      45.319   4.242   8.402  0.00  0.00    +0.000 A 
ATOM     30  C   UNL     1      45.308   4.874   9.634  0.00  0.00    +0.000 A 
ENDBRANCH  24  25
ENDBRANCH  23  24
ENDBRANCH  21  23
ENDBRANCH  16  17
ENDBRANCH   2  16
TORSDOF 6
ENDMDL
MODEL 9
REMARK VINA RESULT:    -6.437      2.909      7.222
REMARK INTER + INTRA:          -9.739
REMARK INTER:                  -8.380
REMARK INTRA:                  -1.359
REMARK UNBOUND:                -1.044
REMARK  Name = 
REMARK  7 active torsions:
REMARK  status: ('A' for Active; 'I' for Inactive)
REMARK    1  A    between atoms: C_1  and  N_2
REMARK    2  A    between atoms: N_2  and  C_3
REMARK    3  A    between atoms: C_3  and  C_4
REMARK    4  A    between atoms: C_8  and  C_9
REMARK    5  A    between atoms: C_9  and  O_10
REMARK    6  A    between atoms: O_10  and  C_11
REMARK    7  A    between atoms: C_18  and  C_20
REMARK                            x       y       z     vdW  Elec       q    Type
REMARK                         _______ _______ _______ _____ _____    ______ ____
ROOT
ATOM      1  C   UNL     1      47.895   9.274  17.693  0.00  0.00    +0.000 C 
ATOM      2  N   UNL     1      48.806   8.191  17.347  0.00  0.00    +0.000 N 
ATOM      3  C   UNL     1      48.791   7.051  18.166  0.00  0.00    +0.000 C 
ATOM      4  O   UNL     1      47.998   6.939  19.098  0.00  0.00    +0.000 OA
ENDROOT
BRANCH   3   5
ATOM      5  C   UNL     1      49.765   5.977  17.918  0.00  0.00    +0.000 A 
ATOM      6  C   UNL     1      51.099   6.024  18.293  0.00  0.00    +0.000 A 
ATOM      7  S   UNL     1      51.957   4.592  17.933  0.00  0.00    +0.000 S 
ATOM      8  C   UNL     1      50.543   3.818  17.392  0.00  0.00    +0.000 A 
ATOM      9  N   UNL     1      50.555   2.508  17.023  0.00  0.00    +0.000 NA
ATOM     10  C   UNL     1      49.397   2.042  16.706  0.00  0.00    +0.000 A 
ATOM     11  N   UNL     1      48.233   2.769  16.689  0.00  0.00    +0.000 N 
ATOM     12  C   UNL     1      48.198   4.128  16.915  0.00  0.00    +0.000 A 
ATOM     13  O   UNL     1      47.200   4.789  16.652  0.00  0.00    +0.000 OA
ATOM     14  C   UNL     1      49.454   4.670  17.395  0.00  0.00    +0.000 A 
ATOM     15  H   UNL     1      47.370   2.358  16.365  0.00  0.00    +0.000 HD
ENDBRANCH   3   5
BRANCH   2  16
ATOM     16  C   UNL     1      49.642   8.312  16.148  0.00  0.00    +0.000 C 
BRANCH  16  17
ATOM     17  C   UNL     1      48.989   8.223  14.789  0.00  0.00    +0.000 A 
ATOM     18  C   UNL     1      48.814   9.355  14.003  0.00  0.00    +0.000 A 
ATOM     19  C   UNL     1      48.108   9.232  12.810  0.00  0.00    +0.000 A 
ATOM     20  C   UNL     1      47.600   7.991  12.433  0.00  0.00    +0.000 A 
ATOM     21  C   UNL     1      47.806   6.901  13.272  0.00  0.00    +0.000 A 
ATOM     22  N   UNL     1      48.503   7.007  14.431  0.00  0.00    +0.000 NA
BRANCH  21  23
ATOM     23  C   UNL     1      47.166   5.564  12.974  0.00  0.00    +0.000 C 
BRANCH  23  24
ATOM     24  O   UNL     1      45.921   5.417  13.660  0.00  0.00    +0.000 OA
BRANCH  24  25
ATOM     25  C   UNL     1      44.890   4.896  12.921  0.00  0.00    +0.000 A 
ATOM     26  C   UNL     1      43.687   5.535  12.629  0.00  0.00    +0.000 A 
ATOM     27  C   UNL     1      42.759   4.869  11.845  0.00  0.00    +0.000 A 
ATOM     28  N   UNL     1      42.947   3.630  11.345  0.00  0.00    +0.000 NA
ATOM     29  C   UNL     1      44.115   3.028  11.653  0.00  0.00    +0.000 A 
ATOM     30  C   UNL     1      45.102   3.612  12.428  0.00  0.00    +0.000 A 
ENDBRANCH  24  25
ENDBRANCH  23  24
ENDBRANCH  21  23
ENDBRANCH  16  17
ENDBRANCH   2  16
TORSDOF 6
ENDMDL
