MODEL 1
REMARK VINA RESULT:    -7.751      0.000      0.000
REMARK INTER + INTRA:         -11.827
REMARK INTER:                 -11.150
REMARK INTRA:                  -0.677
REMARK UNBOUND:                -0.677
REMARK  Name = 
REMARK  8 active torsions:
REMARK  status: ('A' for Active; 'I' for Inactive)
REMARK    1  A    between atoms: N_1  and  C_2
REMARK    2  A    between atoms: C_2  and  C_3
REMARK    3  A    between atoms: C_2  and  C_18
REMARK    4  A    between atoms: C_3  and  N_4
REMARK    5  A    between atoms: C_7  and  C_8
REMARK    6  A    between atoms: C_8  and  N_9
REMARK    7  A    between atoms: N_9  and  C_10
REMARK    8  A    between atoms: C_10  and  C_11
REMARK                            x       y       z     vdW  Elec       q    Type
REMARK                         _______ _______ _______ _____ _____    ______ ____
ROOT
ATOM      1  C   UNL     1      48.197   5.580  16.151  0.00  0.00    +0.000 C 
ENDROOT
BRANCH   1   2
ATOM      2  N   UNL     1      47.900   5.324  14.710  0.00  0.00    +0.000 NA
ATOM      3  C   UNL     1      46.748   4.424  14.551  0.00  0.00    +0.000 C 
ATOM      4  C   UNL     1      46.332   4.228  13.092  0.00  0.00    +0.000 C 
ATOM      5  C   UNL     1      46.029   5.552  12.393  0.00  0.00    +0.000 C 
ATOM      6  C   UNL     1      47.242   6.474  12.587  0.00  0.00    +0.000 C 
ATOM      7  C   UNL     1      47.624   6.627  14.061  0.00  0.00    +0.000 C 
BRANCH   5   8
ATOM      8  C   UNL     1      44.701   6.149  12.905  0.00  0.00    +0.000 C 
BRANCH   8   9
ATOM      9  N   UNL     1      43.817   6.472  11.792  0.00  0.00    +0.000 NA
ATOM     10  H   UNL     1      44.341   6.511  10.915  0.00  0.00    +0.000 HD
BRANCH   9  11
ATOM     11  C   UNL     1      42.760   5.463  11.629  0.00  0.00    +0.000 C 
BRANCH  11  12
ATOM     12  C   UNL     1      43.334   4.242  10.977  0.00  0.00    +0.000 A 
ATOM     13  N   UNL     1      44.014   4.291   9.783  0.00  0.00    +0.000 NA
ATOM     14  C   UNL     1      44.381   3.047   9.598  0.00  0.00    +0.000 A 
ATOM     15  N   UNL     1      43.928   2.281  10.625  0.00  0.00    +0.000 N 
ATOM     16  N   UNL     1      43.235   3.013  11.511  0.00  0.00    +0.000 NA
ATOM     17  H   UNL     1      44.048   1.287  10.784  0.00  0.00    +0.000 HD
ENDBRANCH  11  12
ENDBRANCH   9  11
ENDBRANCH   8   9
ENDBRANCH   5   8
ENDBRANCH   1   2
BRANCH   1  18
ATOM     18  C   UNL     1      48.387   4.371  17.132  0.00  0.00    +0.000 C 
BRANCH  18  19
ATOM     19  C   UNL     1      49.762   4.216  17.768  0.00  0.00    +0.000 A 
ATOM     20  C   UNL     1      50.367   5.149  18.603  0.00  0.00    +0.000 A 
ATOM     21  S   UNL     1      51.923   4.697  19.133  0.00  0.00    +0.000 S 
ATOM     22  C   UNL     1      51.833   3.218  18.304  0.00  0.00    +0.000 A 
ATOM     23  N   UNL     1      52.860   2.321  18.361  0.00  0.00    +0.000 NA
ATOM     24  C   UNL     1      52.661   1.249  17.678  0.00  0.00    +0.000 A 
ATOM     25  N   UNL     1      51.541   0.983  16.935  0.00  0.00    +0.000 N 
ATOM     26  C   UNL     1      50.470   1.845  16.863  0.00  0.00    +0.000 A 
ATOM     27  O   UNL     1      49.471   1.559  16.213  0.00  0.00    +0.000 OA
ATOM     28  C   UNL     1      50.642   3.077  17.615  0.00  0.00    +0.000 A 
ATOM     29  H   UNL     1      51.448   0.120  16.420  0.00  0.00    +0.000 HD
ENDBRANCH  18  19
BRANCH  18  30
ATOM     30  N   UNL     1      47.369   4.424  18.201  0.00  0.00    +0.000 NA
ATOM     31  H   UNL     1      47.185   3.477  18.523  0.00  0.00    +0.000 HD
ATOM     32  H   UNL     1      46.498   4.736  17.761  0.00  0.00    +0.000 HD
ENDBRANCH  18  30
ENDBRANCH   1  18
TORSDOF 8
ENDMDL
MODEL 2
REMARK VINA RESULT:    -7.436      5.192      6.487
REMARK INTER + INTRA:         -11.373
REMARK INTER:                 -10.639
REMARK INTRA:                  -0.734
REMARK UNBOUND:                -0.677
REMARK  Name = 
REMARK  8 active torsions:
REMARK  status: ('A' for Active; 'I' for Inactive)
REMARK    1  A    between atoms: N_1  and  C_2
REMARK    2  A    between atoms: C_2  and  C_3
REMARK    3  A    between atoms: C_2  and  C_18
REMARK    4  A    between atoms: C_3  and  N_4
REMARK    5  A    between atoms: C_7  and  C_8
REMARK    6  A    between atoms: C_8  and  N_9
REMARK    7  A    between atoms: N_9  and  C_10
REMARK    8  A    between atoms: C_10  and  C_11
REMARK                            x       y       z     vdW  Elec       q    Type
REMARK                         _______ _______ _______ _____ _____    ______ ____
ROOT
ATOM      1  C   UNL     1      45.274   7.382  11.889  0.00  0.00    +0.000 C 
ENDROOT
BRANCH   1   2
ATOM      2  N   UNL     1      45.031   6.069  12.556  0.00  0.00    +0.000 NA
ATOM      3  C   UNL     1      43.606   5.704  12.522  0.00  0.00    +0.000 C 
ATOM      4  C   UNL     1      43.326   4.311  13.088  0.00  0.00    +0.000 C 
ATOM      5  C   UNL     1      44.135   3.225  12.380  0.00  0.00    +0.000 C 
ATOM      6  C   UNL     1      45.613   3.638  12.421  0.00  0.00    +0.000 C 
ATOM      7  C   UNL     1      45.838   5.042  11.855  0.00  0.00    +0.000 C 
BRANCH   5   8
ATOM      8  C   UNL     1      43.592   2.980  10.957  0.00  0.00    +0.000 C 
BRANCH   8   9
ATOM      9  N   UNL     1      44.659   2.542  10.065  0.00  0.00    +0.000 NA
ATOM     10  H   UNL     1      44.611   1.533   9.912  0.00  0.00    +0.000 HD
BRANCH   9  11
ATOM     11  C   UNL     1      44.566   3.192   8.749  0.00  0.00    +0.000 C 
BRANCH  11  12
ATOM     12  C   UNL     1      45.858   3.010   8.012  0.00  0.00    +0.000 A 
ATOM     13  N   UNL     1      46.476   1.788   7.893  0.00  0.00    +0.000 NA
ATOM     14  C   UNL     1      47.523   2.055   7.151  0.00  0.00    +0.000 A 
ATOM     15  N   UNL     1      47.542   3.380   6.851  0.00  0.00    +0.000 N 
ATOM     16  N   UNL     1      46.503   4.022   7.407  0.00  0.00    +0.000 NA
ATOM     17  H   UNL     1      48.208   3.900   6.292  0.00  0.00    +0.000 HD
ENDBRANCH  11  12
ENDBRANCH   9  11
ENDBRANCH   8   9
ENDBRANCH   5   8
ENDBRANCH   1   2
BRANCH   1  18
ATOM     18  C   UNL     1      45.823   8.589  12.726  0.00  0.00    +0.000 C 
BRANCH  18  19
ATOM     19  C   UNL     1      47.041   9.312  12.166  0.00  0.00    +0.000 A 
ATOM     20  C   UNL     1      47.020  10.561  11.555  0.00  0.00    +0.000 A 
ATOM     21  S   UNL     1      48.545  11.089  11.005  0.00  0.00    +0.000 S 
ATOM     22  C   UNL     1      49.302   9.691  11.600  0.00  0.00    +0.000 A 
ATOM     23  N   UNL     1      50.649   9.518  11.473  0.00  0.00    +0.000 NA
ATOM     24  C   UNL     1      51.085   8.409  11.959  0.00  0.00    +0.000 A 
ATOM     25  N   UNL     1      50.310   7.448  12.555  0.00  0.00    +0.000 N 
ATOM     26  C   UNL     1      48.952   7.587  12.726  0.00  0.00    +0.000 A 
ATOM     27  O   UNL     1      48.295   6.720  13.292  0.00  0.00    +0.000 OA
ATOM     28  C   UNL     1      48.403   8.821  12.192  0.00  0.00    +0.000 A 
ATOM     29  H   UNL     1      50.717   6.598  12.916  0.00  0.00    +0.000 HD
ENDBRANCH  18  19
BRANCH  18  30
ATOM     30  N   UNL     1      44.748   9.575  12.956  0.00  0.00    +0.000 NA
ATOM     31  H   UNL     1      45.004  10.158  13.749  0.00  0.00    +0.000 HD
ATOM     32  H   UNL     1      43.925   9.045  13.262  0.00  0.00    +0.000 HD
ENDBRANCH  18  30
ENDBRANCH   1  18
TORSDOF 8
ENDMDL
MODEL 3
REMARK VINA RESULT:    -7.264      3.661      8.110
REMARK INTER + INTRA:         -11.126
REMARK INTER:                 -10.306
REMARK INTRA:                  -0.820
REMARK UNBOUND:                -0.677
REMARK  Name = 
REMARK  8 active torsions:
REMARK  status: ('A' for Active; 'I' for Inactive)
REMARK    1  A    between atoms: N_1  and  C_2
REMARK    2  A    between atoms: C_2  and  C_3
REMARK    3  A    between atoms: C_2  and  C_18
REMARK    4  A    between atoms: C_3  and  N_4
REMARK    5  A    between atoms: C_7  and  C_8
REMARK    6  A    between atoms: C_8  and  N_9
REMARK    7  A    between atoms: N_9  and  C_10
REMARK    8  A    between atoms: C_10  and  C_11
REMARK                            x       y       z     vdW  Elec       q    Type
REMARK                         _______ _______ _______ _____ _____    ______ ____
ROOT
ATOM      1  C   UNL     1      45.218   7.078  12.608  0.00  0.00    +0.000 C 
ENDROOT
BRANCH   1   2
ATOM      2  N   UNL     1      46.665   7.441  12.571  0.00  0.00    +0.000 NA
ATOM      3  C   UNL     1      46.930   8.670  13.336  0.00  0.00    +0.000 C 
ATOM      4  C   UNL     1      48.417   9.017  13.426  0.00  0.00    +0.000 C 
ATOM      5  C   UNL     1      49.243   7.874  14.017  0.00  0.00    +0.000 C 
ATOM      6  C   UNL     1      48.937   6.606  13.208  0.00  0.00    +0.000 C 
ATOM      7  C   UNL     1      47.437   6.311  13.138  0.00  0.00    +0.000 C 
BRANCH   5   8
ATOM      8  C   UNL     1      48.974   7.732  15.530  0.00  0.00    +0.000 C 
BRANCH   8   9
ATOM      9  N   UNL     1      49.431   6.435  16.015  0.00  0.00    +0.000 NA
ATOM     10  H   UNL     1      50.440   6.445  16.177  0.00  0.00    +0.000 HD
BRANCH   9  11
ATOM     11  C   UNL     1      48.786   6.075  17.286  0.00  0.00    +0.000 C 
BRANCH  11  12
ATOM     12  C   UNL     1      48.206   4.698  17.177  0.00  0.00    +0.000 A 
ATOM     13  N   UNL     1      48.875   3.659  16.575  0.00  0.00    +0.000 NA
ATOM     14  C   UNL     1      48.058   2.647  16.735  0.00  0.00    +0.000 A 
ATOM     15  N   UNL     1      46.942   3.061  17.389  0.00  0.00    +0.000 N 
ATOM     16  N   UNL     1      46.996   4.374  17.665  0.00  0.00    +0.000 NA
ATOM     17  H   UNL     1      46.129   2.526  17.672  0.00  0.00    +0.000 HD
ENDBRANCH  11  12
ENDBRANCH   9  11
ENDBRANCH   8   9
ENDBRANCH   5   8
ENDBRANCH   1   2
BRANCH   1  18
ATOM     18  C   UNL     1      44.507   6.583  11.300  0.00  0.00    +0.000 C 
BRANCH  18  19
ATOM     19  C   UNL     1      44.246   5.087  11.187  0.00  0.00    +0.000 A 
ATOM     20  C   UNL     1      43.490   4.336  12.081  0.00  0.00    +0.000 A 
ATOM     21  S   UNL     1      43.409   2.677  11.696  0.00  0.00    +0.000 S 
ATOM     22  C   UNL     1      44.343   2.903  10.296  0.00  0.00    +0.000 A 
ATOM     23  N   UNL     1      44.635   1.853   9.474  0.00  0.00    +0.000 NA
ATOM     24  C   UNL     1      45.358   2.167   8.457  0.00  0.00    +0.000 A 
ATOM     25  N   UNL     1      45.829   3.424   8.180  0.00  0.00    +0.000 N 
ATOM     26  C   UNL     1      45.544   4.517   8.966  0.00  0.00    +0.000 A 
ATOM     27  O   UNL     1      45.958   5.633   8.670  0.00  0.00    +0.000 OA
ATOM     28  C   UNL     1      44.731   4.220  10.133  0.00  0.00    +0.000 A 
ATOM     29  H   UNL     1      46.394   3.602   7.363  0.00  0.00    +0.000 HD
ENDBRANCH  18  19
BRANCH  18  30
ATOM     30  N   UNL     1      43.232   7.305  11.116  0.00  0.00    +0.000 NA
ATOM     31  H   UNL     1      43.283   8.190  11.613  0.00  0.00    +0.000 HD
ATOM     32  H   UNL     1      42.513   6.760  11.604  0.00  0.00    +0.000 HD
ENDBRANCH  18  30
ENDBRANCH   1  18
TORSDOF 8
ENDMDL
MODEL 4
REMARK VINA RESULT:    -7.092      3.060      4.339
REMARK INTER + INTRA:         -10.878
REMARK INTER:                 -10.042
REMARK INTRA:                  -0.836
REMARK UNBOUND:                -0.677
REMARK  Name = 
REMARK  8 active torsions:
REMARK  status: ('A' for Active; 'I' for Inactive)
REMARK    1  A    between atoms: N_1  and  C_2
REMARK    2  A    between atoms: C_2  and  C_3
REMARK    3  A    between atoms: C_2  and  C_18
REMARK    4  A    between atoms: C_3  and  N_4
REMARK    5  A    between atoms: C_7  and  C_8
REMARK    6  A    between atoms: C_8  and  N_9
REMARK    7  A    between atoms: N_9  and  C_10
REMARK    8  A    between atoms: C_10  and  C_11
REMARK                            x       y       z     vdW  Elec       q    Type
REMARK                         _______ _______ _______ _____ _____    ______ ____
ROOT
ATOM      1  C   UNL     1      47.724   5.669  13.547  0.00  0.00    +0.000 C 
ENDROOT
BRANCH   1   2
ATOM      2  N   UNL     1      46.397   6.106  13.023  0.00  0.00    +0.000 NA
ATOM      3  C   UNL     1      46.412   6.224  11.556  0.00  0.00    +0.000 C 
ATOM      4  C   UNL     1      45.041   6.553  10.963  0.00  0.00    +0.000 C 
ATOM      5  C   UNL     1      43.975   5.537  11.370  0.00  0.00    +0.000 C 
ATOM      6  C   UNL     1      43.991   5.426  12.901  0.00  0.00    +0.000 C 
ATOM      7  C   UNL     1      45.386   5.108  13.444  0.00  0.00    +0.000 C 
BRANCH   5   8
ATOM      8  C   UNL     1      44.194   4.194  10.642  0.00  0.00    +0.000 C 
BRANCH   8   9
ATOM      9  N   UNL     1      44.363   4.405   9.209  0.00  0.00    +0.000 NA
ATOM     10  H   UNL     1      45.203   4.955   9.022  0.00  0.00    +0.000 HD
BRANCH   9  11
ATOM     11  C   UNL     1      44.501   3.131   8.488  0.00  0.00    +0.000 C 
BRANCH  11  12
ATOM     12  C   UNL     1      45.846   3.075   7.830  0.00  0.00    +0.000 A 
ATOM     13  N   UNL     1      46.551   1.904   7.685  0.00  0.00    +0.000 NA
ATOM     14  C   UNL     1      47.623   2.280   7.032  0.00  0.00    +0.000 A 
ATOM     15  N   UNL     1      47.573   3.619   6.808  0.00  0.00    +0.000 N 
ATOM     16  N   UNL     1      46.460   4.160   7.328  0.00  0.00    +0.000 NA
ATOM     17  H   UNL     1      48.237   4.213   6.326  0.00  0.00    +0.000 HD
ENDBRANCH  11  12
ENDBRANCH   9  11
ENDBRANCH   8   9
ENDBRANCH   5   8
ENDBRANCH   1   2
BRANCH   1  18
ATOM     18  C   UNL     1      48.260   6.261  14.897  0.00  0.00    +0.000 C 
BRANCH  18  19
ATOM     19  C   UNL     1      48.142   5.373  16.129  0.00  0.00    +0.000 A 
ATOM     20  C   UNL     1      47.763   4.035  16.117  0.00  0.00    +0.000 A 
ATOM     21  S   UNL     1      47.697   3.321  17.664  0.00  0.00    +0.000 S 
ATOM     22  C   UNL     1      48.215   4.758  18.407  0.00  0.00    +0.000 A 
ATOM     23  N   UNL     1      48.391   4.821  19.759  0.00  0.00    +0.000 NA
ATOM     24  C   UNL     1      48.775   5.973  20.185  0.00  0.00    +0.000 A 
ATOM     25  N   UNL     1      48.995   7.073  19.399  0.00  0.00    +0.000 N 
ATOM     26  C   UNL     1      48.852   7.053  18.030  0.00  0.00    +0.000 A 
ATOM     27  O   UNL     1      49.087   8.050  17.356  0.00  0.00    +0.000 OA
ATOM     28  C   UNL     1      48.416   5.776  17.493  0.00  0.00    +0.000 A 
ATOM     29  H   UNL     1      49.295   7.950  19.799  0.00  0.00    +0.000 HD
ENDBRANCH  18  19
BRANCH  18  30
ATOM     30  N   UNL     1      49.668   6.678  14.742  0.00  0.00    +0.000 NA
ATOM     31  H   UNL     1      49.943   7.212  15.562  0.00  0.00    +0.000 HD
ATOM     32  H   UNL     1      49.692   7.344  13.963  0.00  0.00    +0.000 HD
ENDBRANCH  18  30
ENDBRANCH   1  18
TORSDOF 8
ENDMDL
MODEL 5
REMARK VINA RESULT:    -6.968      3.123      7.364
REMARK INTER + INTRA:         -10.699
REMARK INTER:                  -9.062
REMARK INTRA:                  -1.637
REMARK UNBOUND:                -0.677
REMARK  Name = 
REMARK  8 active torsions:
REMARK  status: ('A' for Active; 'I' for Inactive)
REMARK    1  A    between atoms: N_1  and  C_2
REMARK    2  A    between atoms: C_2  and  C_3
REMARK    3  A    between atoms: C_2  and  C_18
REMARK    4  A    between atoms: C_3  and  N_4
REMARK    5  A    between atoms: C_7  and  C_8
REMARK    6  A    between atoms: C_8  and  N_9
REMARK    7  A    between atoms: N_9  and  C_10
REMARK    8  A    between atoms: C_10  and  C_11
REMARK                            x       y       z     vdW  Elec       q    Type
REMARK                         _______ _______ _______ _____ _____    ______ ____
ROOT
ATOM      1  C   UNL     1      48.300   8.222  14.188  0.00  0.00    +0.000 C 
ENDROOT
BRANCH   1   2
ATOM      2  N   UNL     1      49.042   8.446  15.464  0.00  0.00    +0.000 NA
ATOM      3  C   UNL     1      48.339   9.403  16.333  0.00  0.00    +0.000 C 
ATOM      4  C   UNL     1      48.999   9.574  17.702  0.00  0.00    +0.000 C 
ATOM      5  C   UNL     1      49.148   8.245  18.443  0.00  0.00    +0.000 C 
ATOM      6  C   UNL     1      49.872   7.265  17.509  0.00  0.00    +0.000 C 
ATOM      7  C   UNL     1      49.180   7.140  16.150  0.00  0.00    +0.000 C 
BRANCH   5   8
ATOM      8  C   UNL     1      47.777   7.740  18.939  0.00  0.00    +0.000 C 
BRANCH   8   9
ATOM      9  N   UNL     1      47.872   6.361  19.402  0.00  0.00    +0.000 NA
ATOM     10  H   UNL     1      47.802   6.316  20.420  0.00  0.00    +0.000 HD
BRANCH   9  11
ATOM     11  C   UNL     1      46.793   5.529  18.850  0.00  0.00    +0.000 C 
BRANCH  11  12
ATOM     12  C   UNL     1      47.386   4.424  18.029  0.00  0.00    +0.000 A 
ATOM     13  N   UNL     1      48.671   3.971  18.216  0.00  0.00    +0.000 NA
ATOM     14  C   UNL     1      48.770   2.992  17.350  0.00  0.00    +0.000 A 
ATOM     15  N   UNL     1      47.604   2.873  16.663  0.00  0.00    +0.000 N 
ATOM     16  N   UNL     1      46.707   3.790  17.058  0.00  0.00    +0.000 NA
ATOM     17  H   UNL     1      47.355   2.213  15.935  0.00  0.00    +0.000 HD
ENDBRANCH  11  12
ENDBRANCH   9  11
ENDBRANCH   8   9
ENDBRANCH   5   8
ENDBRANCH   1   2
BRANCH   1  18
ATOM     18  C   UNL     1      48.040   6.758  13.688  0.00  0.00    +0.000 C 
BRANCH  18  19
ATOM     19  C   UNL     1      46.725   6.507  12.962  0.00  0.00    +0.000 A 
ATOM     20  C   UNL     1      45.936   7.490  12.371  0.00  0.00    +0.000 A 
ATOM     21  S   UNL     1      44.506   6.894  11.661  0.00  0.00    +0.000 S 
ATOM     22  C   UNL     1      44.903   5.296  12.074  0.00  0.00    +0.000 A 
ATOM     23  N   UNL     1      44.084   4.261  11.728  0.00  0.00    +0.000 NA
ATOM     24  C   UNL     1      44.504   3.107  12.114  0.00  0.00    +0.000 A 
ATOM     25  N   UNL     1      45.657   2.881  12.819  0.00  0.00    +0.000 N 
ATOM     26  C   UNL     1      46.526   3.889  13.171  0.00  0.00    +0.000 A 
ATOM     27  O   UNL     1      47.564   3.645  13.775  0.00  0.00    +0.000 OA
ATOM     28  C   UNL     1      46.100   5.217  12.763  0.00  0.00    +0.000 A 
ATOM     29  H   UNL     1      45.928   1.948  13.092  0.00  0.00    +0.000 HD
ENDBRANCH  18  19
BRANCH  18  30
ATOM     30  N   UNL     1      49.154   6.314  12.826  0.00  0.00    +0.000 NA
ATOM     31  H   UNL     1      49.756   5.696  13.364  0.00  0.00    +0.000 HD
ATOM     32  H   UNL     1      49.722   7.145  12.630  0.00  0.00    +0.000 HD
ENDBRANCH  18  30
ENDBRANCH   1  18
TORSDOF 8
ENDMDL
MODEL 6
REMARK VINA RESULT:    -6.660      3.155      8.198
REMARK INTER + INTRA:         -10.257
REMARK INTER:                  -9.068
REMARK INTRA:                  -1.189
REMARK UNBOUND:                -0.677
REMARK  Name = 
REMARK  8 active torsions:
REMARK  status: ('A' for Active; 'I' for Inactive)
REMARK    1  A    between atoms: N_1  and  C_2
REMARK    2  A    between atoms: C_2  and  C_3
REMARK    3  A    between atoms: C_2  and  C_18
REMARK    4  A    between atoms: C_3  and  N_4
REMARK    5  A    between atoms: C_7  and  C_8
REMARK    6  A    between atoms: C_8  and  N_9
REMARK    7  A    between atoms: N_9  and  C_10
REMARK    8  A    between atoms: C_10  and  C_11
REMARK                            x       y       z     vdW  Elec       q    Type
REMARK                         _______ _______ _______ _____ _____    ______ ____
ROOT
ATOM      1  C   UNL     1      48.979   7.135  13.634  0.00  0.00    +0.000 C 
ENDROOT
BRANCH   1   2
ATOM      2  N   UNL     1      49.369   7.475  15.034  0.00  0.00    +0.000 NA
ATOM      3  C   UNL     1      48.988   6.408  15.972  0.00  0.00    +0.000 C 
ATOM      4  C   UNL     1      49.474   6.657  17.400  0.00  0.00    +0.000 C 
ATOM      5  C   UNL     1      50.987   6.863  17.469  0.00  0.00    +0.000 C 
ATOM      6  C   UNL     1      51.356   7.972  16.473  0.00  0.00    +0.000 C 
ATOM      7  C   UNL     1      50.836   7.680  15.063  0.00  0.00    +0.000 C 
BRANCH   5   8
ATOM      8  C   UNL     1      51.731   5.532  17.229  0.00  0.00    +0.000 C 
BRANCH   8   9
ATOM      9  N   UNL     1      51.423   4.572  18.282  0.00  0.00    +0.000 NA
ATOM     10  H   UNL     1      50.467   4.701  18.620  0.00  0.00    +0.000 HD
BRANCH   9  11
ATOM     11  C   UNL     1      51.538   3.187  17.802  0.00  0.00    +0.000 C 
BRANCH  11  12
ATOM     12  C   UNL     1      50.215   2.737  17.261  0.00  0.00    +0.000 A 
ATOM     13  N   UNL     1      49.018   3.213  17.741  0.00  0.00    +0.000 NA
ATOM     14  C   UNL     1      48.134   2.615  16.980  0.00  0.00    +0.000 A 
ATOM     15  N   UNL     1      48.769   1.804  16.095  0.00  0.00    +0.000 N 
ATOM     16  N   UNL     1      50.100   1.842  16.264  0.00  0.00    +0.000 NA
ATOM     17  H   UNL     1      48.376   1.215  15.370  0.00  0.00    +0.000 HD
ENDBRANCH  11  12
ENDBRANCH   9  11
ENDBRANCH   8   9
ENDBRANCH   5   8
ENDBRANCH   1   2
BRANCH   1  18
ATOM     18  C   UNL     1      47.525   7.449  13.134  0.00  0.00    +0.000 C 
BRANCH  18  19
ATOM     19  C   UNL     1      46.597   6.258  12.936  0.00  0.00    +0.000 A 
ATOM     20  C   UNL     1      46.863   4.958  13.355  0.00  0.00    +0.000 A 
ATOM     21  S   UNL     1      45.639   3.840  12.960  0.00  0.00    +0.000 S 
ATOM     22  C   UNL     1      44.685   5.054  12.252  0.00  0.00    +0.000 A 
ATOM     23  N   UNL     1      43.462   4.761  11.722  0.00  0.00    +0.000 NA
ATOM     24  C   UNL     1      42.856   5.774  11.211  0.00  0.00    +0.000 A 
ATOM     25  N   UNL     1      43.349   7.052  11.168  0.00  0.00    +0.000 N 
ATOM     26  C   UNL     1      44.566   7.400  11.708  0.00  0.00    +0.000 A 
ATOM     27  O   UNL     1      44.962   8.560  11.677  0.00  0.00    +0.000 OA
ATOM     28  C   UNL     1      45.299   6.293  12.297  0.00  0.00    +0.000 A 
ATOM     29  H   UNL     1      42.820   7.803  10.750  0.00  0.00    +0.000 HD
ENDBRANCH  18  19
BRANCH  18  30
ATOM     30  N   UNL     1      46.876   8.414  14.046  0.00  0.00    +0.000 NA
ATOM     31  H   UNL     1      45.868   8.328  13.947  0.00  0.00    +0.000 HD
ATOM     32  H   UNL     1      47.106   9.349  13.694  0.00  0.00    +0.000 HD
ENDBRANCH  18  30
ENDBRANCH   1  18
TORSDOF 8
ENDMDL
MODEL 7
REMARK VINA RESULT:    -6.234      3.141      8.588
REMARK INTER + INTRA:          -9.644
REMARK INTER:                  -8.496
REMARK INTRA:                  -1.148
REMARK UNBOUND:                -0.677
REMARK  Name = 
REMARK  8 active torsions:
REMARK  status: ('A' for Active; 'I' for Inactive)
REMARK    1  A    between atoms: N_1  and  C_2
REMARK    2  A    between atoms: C_2  and  C_3
REMARK    3  A    between atoms: C_2  and  C_18
REMARK    4  A    between atoms: C_3  and  N_4
REMARK    5  A    between atoms: C_7  and  C_8
REMARK    6  A    between atoms: C_8  and  N_9
REMARK    7  A    between atoms: N_9  and  C_10
REMARK    8  A    between atoms: C_10  and  C_11
REMARK                            x       y       z     vdW  Elec       q    Type
REMARK                         _______ _______ _______ _____ _____    ______ ____
ROOT
ATOM      1  C   UNL     1      47.699   5.829  15.041  0.00  0.00    +0.000 C 
ENDROOT
BRANCH   1   2
ATOM      2  N   UNL     1      48.266   4.679  15.806  0.00  0.00    +0.000 NA
ATOM      3  C   UNL     1      49.348   5.112  16.704  0.00  0.00    +0.000 C 
ATOM      4  C   UNL     1      49.879   3.989  17.595  0.00  0.00    +0.000 C 
ATOM      5  C   UNL     1      48.774   3.337  18.426  0.00  0.00    +0.000 C 
ATOM      6  C   UNL     1      47.656   2.908  17.466  0.00  0.00    +0.000 C 
ATOM      7  C   UNL     1      47.169   4.064  16.589  0.00  0.00    +0.000 C 
BRANCH   5   8
ATOM      8  C   UNL     1      48.305   4.285  19.550  0.00  0.00    +0.000 C 
BRANCH   8   9
ATOM      9  N   UNL     1      49.332   4.417  20.576  0.00  0.00    +0.000 NA
ATOM     10  H   UNL     1      50.257   4.226  20.187  0.00  0.00    +0.000 HD
BRANCH   9  11
ATOM     11  C   UNL     1      49.363   5.776  21.139  0.00  0.00    +0.000 C 
BRANCH  11  12
ATOM     12  C   UNL     1      49.947   6.718  20.132  0.00  0.00    +0.000 A 
ATOM     13  N   UNL     1      51.243   6.614  19.684  0.00  0.00    +0.000 NA
ATOM     14  C   UNL     1      51.330   7.576  18.799  0.00  0.00    +0.000 A 
ATOM     15  N   UNL     1      50.147   8.239  18.729  0.00  0.00    +0.000 N 
ATOM     16  N   UNL     1      49.249   7.729  19.586  0.00  0.00    +0.000 NA
ATOM     17  H   UNL     1      49.886   9.022  18.141  0.00  0.00    +0.000 HD
ENDBRANCH  11  12
ENDBRANCH   9  11
ENDBRANCH   8   9
ENDBRANCH   5   8
ENDBRANCH   1   2
BRANCH   1  18
ATOM     18  C   UNL     1      47.739   5.815  13.473  0.00  0.00    +0.000 C 
BRANCH  18  19
ATOM     19  C   UNL     1      46.400   5.906  12.754  0.00  0.00    +0.000 A 
ATOM     20  C   UNL     1      45.843   7.074  12.244  0.00  0.00    +0.000 A 
ATOM     21  S   UNL     1      44.316   6.853  11.518  0.00  0.00    +0.000 S 
ATOM     22  C   UNL     1      44.357   5.182  11.817  0.00  0.00    +0.000 A 
ATOM     23  N   UNL     1      43.332   4.376  11.416  0.00  0.00    +0.000 NA
ATOM     24  C   UNL     1      43.491   3.135  11.717  0.00  0.00    +0.000 A 
ATOM     25  N   UNL     1      44.569   2.616  12.386  0.00  0.00    +0.000 N 
ATOM     26  C   UNL     1      45.636   3.385  12.790  0.00  0.00    +0.000 A 
ATOM     27  O   UNL     1      46.598   2.880  13.360  0.00  0.00    +0.000 OA
ATOM     28  C   UNL     1      45.509   4.798  12.479  0.00  0.00    +0.000 A 
ATOM     29  H   UNL     1      44.631   1.630  12.591  0.00  0.00    +0.000 HD
ENDBRANCH  18  19
BRANCH  18  30
ATOM     30  N   UNL     1      48.619   6.894  12.982  0.00  0.00    +0.000 NA
ATOM     31  H   UNL     1      49.106   7.305  13.775  0.00  0.00    +0.000 HD
ATOM     32  H   UNL     1      48.005   7.634  12.626  0.00  0.00    +0.000 HD
ENDBRANCH  18  30
ENDBRANCH   1  18
TORSDOF 8
ENDMDL
MODEL 8
REMARK VINA RESULT:    -6.030      2.866      3.857
REMARK INTER + INTRA:          -9.351
REMARK INTER:                  -8.520
REMARK INTRA:                  -0.830
REMARK UNBOUND:                -0.677
REMARK  Name = 
REMARK  8 active torsions:
REMARK  status: ('A' for Active; 'I' for Inactive)
REMARK    1  A    between atoms: N_1  and  C_2
REMARK    2  A    between atoms: C_2  and  C_3
REMARK    3  A    between atoms: C_2  and  C_18
REMARK    4  A    between atoms: C_3  and  N_4
REMARK    5  A    between atoms: C_7  and  C_8
REMARK    6  A    between atoms: C_8  and  N_9
REMARK    7  A    between atoms: N_9  and  C_10
REMARK    8  A    between atoms: C_10  and  C_11
REMARK                            x       y       z     vdW  Elec       q    Type
REMARK                         _______ _______ _______ _____ _____    ______ ____
ROOT
ATOM      1  C   UNL     1      48.555   7.840  15.048  0.00  0.00    +0.000 C 
ENDROOT
BRANCH   1   2
ATOM      2  N   UNL     1      48.243   6.999  13.855  0.00  0.00    +0.000 NA
ATOM      3  C   UNL     1      47.189   6.017  14.151  0.00  0.00    +0.000 C 
ATOM      4  C   UNL     1      46.752   5.213  12.926  0.00  0.00    +0.000 C 
ATOM      5  C   UNL     1      46.288   6.111  11.779  0.00  0.00    +0.000 C 
ATOM      6  C   UNL     1      47.401   7.131  11.502  0.00  0.00    +0.000 C 
ATOM      7  C   UNL     1      47.809   7.899  12.761  0.00  0.00    +0.000 C 
BRANCH   5   8
ATOM      8  C   UNL     1      44.920   6.748  12.104  0.00  0.00    +0.000 C 
BRANCH   8   9
ATOM      9  N   UNL     1      43.958   6.473  11.043  0.00  0.00    +0.000 NA
ATOM     10  H   UNL     1      44.435   6.164  10.194  0.00  0.00    +0.000 HD
BRANCH   9  11
ATOM     11  C   UNL     1      43.015   5.413  11.429  0.00  0.00    +0.000 C 
BRANCH  11  12
ATOM     12  C   UNL     1      43.475   4.106  10.859  0.00  0.00    +0.000 A 
ATOM     13  N   UNL     1      44.210   4.021   9.700  0.00  0.00    +0.000 NA
ATOM     14  C   UNL     1      44.440   2.736   9.587  0.00  0.00    +0.000 A 
ATOM     15  N   UNL     1      43.857   2.076  10.622  0.00  0.00    +0.000 N 
ATOM     16  N   UNL     1      43.212   2.923  11.440  0.00  0.00    +0.000 NA
ATOM     17  H   UNL     1      43.856   1.084  10.829  0.00  0.00    +0.000 HD
ENDBRANCH  11  12
ENDBRANCH   9  11
ENDBRANCH   8   9
ENDBRANCH   5   8
ENDBRANCH   1   2
BRANCH   1  18
ATOM     18  C   UNL     1      49.719   7.421  16.012  0.00  0.00    +0.000 C 
BRANCH  18  19
ATOM     19  C   UNL     1      49.374   6.423  17.109  0.00  0.00    +0.000 A 
ATOM     20  C   UNL     1      49.667   5.063  17.075  0.00  0.00    +0.000 A 
ATOM     21  S   UNL     1      49.123   4.204  18.444  0.00  0.00    +0.000 S 
ATOM     22  C   UNL     1      48.513   5.620  19.156  0.00  0.00    +0.000 A 
ATOM     23  N   UNL     1      47.920   5.585  20.384  0.00  0.00    +0.000 NA
ATOM     24  C   UNL     1      47.495   6.728  20.795  0.00  0.00    +0.000 A 
ATOM     25  N   UNL     1      47.596   7.905  20.101  0.00  0.00    +0.000 N 
ATOM     26  C   UNL     1      48.206   7.995  18.870  0.00  0.00    +0.000 A 
ATOM     27  O   UNL     1      48.305   9.072  18.292  0.00  0.00    +0.000 OA
ATOM     28  C   UNL     1      48.702   6.731  18.354  0.00  0.00    +0.000 A 
ATOM     29  H   UNL     1      47.241   8.769  20.483  0.00  0.00    +0.000 HD
ENDBRANCH  18  19
BRANCH  18  30
ATOM     30  N   UNL     1      50.857   6.896  15.230  0.00  0.00    +0.000 NA
ATOM     31  H   UNL     1      50.546   6.725  14.277  0.00  0.00    +0.000 HD
ATOM     32  H   UNL     1      51.075   5.971  15.615  0.00  0.00    +0.000 HD
ENDBRANCH  18  30
ENDBRANCH   1  18
TORSDOF 8
ENDMDL
MODEL 9
REMARK VINA RESULT:    -5.772      2.197      3.315
REMARK INTER + INTRA:          -8.980
REMARK INTER:                  -8.209
REMARK INTRA:                  -0.770
REMARK UNBOUND:                -0.677
REMARK  Name = 
REMARK  8 active torsions:
REMARK  status: ('A' for Active; 'I' for Inactive)
REMARK    1  A    between atoms: N_1  and  C_2
REMARK    2  A    between atoms: C_2  and  C_3
REMARK    3  A    between atoms: C_2  and  C_18
REMARK    4  A    between atoms: C_3  and  N_4
REMARK    5  A    between atoms: C_7  and  C_8
REMARK    6  A    between atoms: C_8  and  N_9
REMARK    7  A    between atoms: N_9  and  C_10
REMARK    8  A    between atoms: C_10  and  C_11
REMARK                            x       y       z     vdW  Elec       q    Type
REMARK                         _______ _______ _______ _____ _____    ______ ____
ROOT
ATOM      1  C   UNL     1      50.551   7.223  17.916  0.00  0.00    +0.000 C 
ENDROOT
BRANCH   1   2
ATOM      2  N   UNL     1      50.131   7.844  16.625  0.00  0.00    +0.000 NA
ATOM      3  C   UNL     1      50.502   7.002  15.478  0.00  0.00    +0.000 C 
ATOM      4  C   UNL     1      49.988   7.539  14.142  0.00  0.00    +0.000 C 
ATOM      5  C   UNL     1      48.472   7.739  14.144  0.00  0.00    +0.000 C 
ATOM      6  C   UNL     1      48.114   8.609  15.356  0.00  0.00    +0.000 C 
ATOM      7  C   UNL     1      48.662   8.035  16.664  0.00  0.00    +0.000 C 
BRANCH   5   8
ATOM      8  C   UNL     1      47.742   6.379  14.112  0.00  0.00    +0.000 C 
BRANCH   8   9
ATOM      9  N   UNL     1      46.423   6.516  13.506  0.00  0.00    +0.000 NA
ATOM     10  H   UNL     1      46.491   6.961  12.589  0.00  0.00    +0.000 HD
BRANCH   9  11
ATOM     11  C   UNL     1      45.778   5.208  13.314  0.00  0.00    +0.000 C 
BRANCH  11  12
ATOM     12  C   UNL     1      44.585   5.368  12.422  0.00  0.00    +0.000 A 
ATOM     13  N   UNL     1      43.296   5.346  12.898  0.00  0.00    +0.000 NA
ATOM     14  C   UNL     1      42.578   5.565  11.824  0.00  0.00    +0.000 A 
ATOM     15  N   UNL     1      43.396   5.697  10.749  0.00  0.00    +0.000 N 
ATOM     16  N   UNL     1      44.685   5.553  11.094  0.00  0.00    +0.000 NA
ATOM     17  H   UNL     1      43.157   5.880   9.781  0.00  0.00    +0.000 HD
ENDBRANCH  11  12
ENDBRANCH   9  11
ENDBRANCH   8   9
ENDBRANCH   5   8
ENDBRANCH   1   2
BRANCH   1  18
ATOM     18  C   UNL     1      49.576   6.247  18.662  0.00  0.00    +0.000 C 
BRANCH  18  19
ATOM     19  C   UNL     1      49.333   4.892  18.011  0.00  0.00    +0.000 A 
ATOM     20  C   UNL     1      48.150   4.501  17.393  0.00  0.00    +0.000 A 
ATOM     21  S   UNL     1      48.180   2.909  16.785  0.00  0.00    +0.000 S 
ATOM     22  C   UNL     1      49.789   2.693  17.283  0.00  0.00    +0.000 A 
ATOM     23  N   UNL     1      50.444   1.521  17.040  0.00  0.00    +0.000 NA
ATOM     24  C   UNL     1      51.652   1.493  17.481  0.00  0.00    +0.000 A 
ATOM     25  N   UNL     1      52.274   2.516  18.149  0.00  0.00    +0.000 N 
ATOM     26  C   UNL     1      51.663   3.724  18.398  0.00  0.00    +0.000 A 
ATOM     27  O   UNL     1      52.261   4.628  18.971  0.00  0.00    +0.000 OA
ATOM     28  C   UNL     1      50.292   3.811  17.924  0.00  0.00    +0.000 A 
ATOM     29  H   UNL     1      53.226   2.428  18.470  0.00  0.00    +0.000 HD
ENDBRANCH  18  19
BRANCH  18  30
ATOM     30  N   UNL     1      50.038   6.035  20.049  0.00  0.00    +0.000 NA
ATOM     31  H   UNL     1      49.274   6.250  20.684  0.00  0.00    +0.000 HD
ATOM     32  H   UNL     1      50.753   6.746  20.231  0.00  0.00    +0.000 HD
ENDBRANCH  18  30
ENDBRANCH   1  18
TORSDOF 8
ENDMDL
