MODEL 1
REMARK VINA RESULT:    -7.632      0.000      0.000
REMARK INTER + INTRA:          -9.749
REMARK INTER:                  -9.417
REMARK INTRA:                  -0.332
REMARK UNBOUND:                -0.332
REMARK  Name = 
REMARK  5 active torsions:
REMARK  status: ('A' for Active; 'I' for Inactive)
REMARK    1  A    between atoms: C_1  and  C_2
REMARK    2  A    between atoms: C_4  and  C_5
REMARK    3  A    between atoms: C_10  and  C_11
REMARK    4  A    between atoms: C_11  and  O_12
REMARK    5  A    between atoms: O_12  and  C_13
REMARK                            x       y       z     vdW  Elec       q    Type
REMARK                         _______ _______ _______ _____ _____    ______ ____
ROOT
ATOM      1  C   UNL     1      44.939   7.140  11.503  0.00  0.00    +0.000 C 
ATOM      2  C   UNL     1      45.245   5.783  12.073  0.00  0.00    +0.000 A 
ATOM      3  C   UNL     1      46.068   5.704  13.206  0.00  0.00    +0.000 A 
ATOM      4  C   UNL     1      46.361   4.459  13.742  0.00  0.00    +0.000 A 
ATOM      5  N   UNL     1      45.902   3.287  13.226  0.00  0.00    +0.000 NA
ATOM      6  C   UNL     1      45.120   3.390  12.126  0.00  0.00    +0.000 A 
ATOM      7  C   UNL     1      44.744   4.592  11.517  0.00  0.00    +0.000 A 
ENDROOT
BRANCH   4   8
ATOM      8  C   UNL     1      47.223   4.374  14.965  0.00  0.00    +0.000 C 
ATOM      9  N   UNL     1      47.633   5.571  15.485  0.00  0.00    +0.000 N 
ATOM     10  O   UNL     1      47.551   3.308  15.473  0.00  0.00    +0.000 OA
ATOM     11  H   UNL     1      47.341   6.434  15.042  0.00  0.00    +0.000 HD
ATOM     12  H   UNL     1      48.215   5.584  16.310  0.00  0.00    +0.000 HD
ENDBRANCH   4   8
BRANCH   7  13
ATOM     13  C   UNL     1      43.852   4.545  10.296  0.00  0.00    +0.000 C 
BRANCH  13  14
ATOM     14  O   UNL     1      43.946   3.249   9.707  0.00  0.00    +0.000 OA
BRANCH  14  15
ATOM     15  C   UNL     1      44.974   3.025   8.834  0.00  0.00    +0.000 A 
ATOM     16  C   UNL     1      45.593   3.958   8.008  0.00  0.00    +0.000 A 
ATOM     17  C   UNL     1      46.642   3.556   7.175  0.00  0.00    +0.000 A 
ATOM     18  C   UNL     1      47.034   2.228   7.194  0.00  0.00    +0.000 A 
ATOM     19  N   UNL     1      46.455   1.293   7.974  0.00  0.00    +0.000 NA
ATOM     20  C   UNL     1      45.442   1.715   8.771  0.00  0.00    +0.000 A 
ENDBRANCH  14  15
ENDBRANCH  13  14
ENDBRANCH   7  13
TORSDOF 4
ENDMDL
MODEL 2
REMARK VINA RESULT:    -7.555      0.747      1.153
REMARK INTER + INTRA:          -9.654
REMARK INTER:                  -9.374
REMARK INTRA:                  -0.281
REMARK UNBOUND:                -0.332
REMARK  Name = 
REMARK  5 active torsions:
REMARK  status: ('A' for Active; 'I' for Inactive)
REMARK    1  A    between atoms: C_1  and  C_2
REMARK    2  A    between atoms: C_4  and  C_5
REMARK    3  A    between atoms: C_10  and  C_11
REMARK    4  A    between atoms: C_11  and  O_12
REMARK    5  A    between atoms: O_12  and  C_13
REMARK                            x       y       z     vdW  Elec       q    Type
REMARK                         _______ _______ _______ _____ _____    ______ ____
ROOT
ATOM      1  C   UNL     1      44.904   7.059  11.398  0.00  0.00    +0.000 C 
ATOM      2  C   UNL     1      45.225   5.722  12.006  0.00  0.00    +0.000 A 
ATOM      3  C   UNL     1      45.995   5.689  13.177  0.00  0.00    +0.000 A 
ATOM      4  C   UNL     1      46.300   4.463  13.750  0.00  0.00    +0.000 A 
ATOM      5  N   UNL     1      45.902   3.268  13.235  0.00  0.00    +0.000 NA
ATOM      6  C   UNL     1      45.169   3.328  12.098  0.00  0.00    +0.000 A 
ATOM      7  C   UNL     1      44.786   4.506  11.450  0.00  0.00    +0.000 A 
ENDROOT
BRANCH   4   8
ATOM      8  C   UNL     1      47.107   4.425  15.013  0.00  0.00    +0.000 C 
ATOM      9  N   UNL     1      47.636   5.622  15.413  0.00  0.00    +0.000 N 
ATOM     10  O   UNL     1      47.292   3.397  15.651  0.00  0.00    +0.000 OA
ATOM     11  H   UNL     1      47.461   6.454  14.863  0.00  0.00    +0.000 HD
ATOM     12  H   UNL     1      48.188   5.667  16.256  0.00  0.00    +0.000 HD
ENDBRANCH   4   8
BRANCH   7  13
ATOM     13  C   UNL     1      43.954   4.411  10.190  0.00  0.00    +0.000 C 
BRANCH  13  14
ATOM     14  O   UNL     1      44.100   3.103   9.641  0.00  0.00    +0.000 OA
BRANCH  14  15
ATOM     15  C   UNL     1      45.120   2.901   8.753  0.00  0.00    +0.000 A 
ATOM     16  C   UNL     1      45.811   1.715   8.522  0.00  0.00    +0.000 A 
ATOM     17  C   UNL     1      46.830   1.683   7.565  0.00  0.00    +0.000 A 
ATOM     18  C   UNL     1      47.127   2.844   6.872  0.00  0.00    +0.000 A 
ATOM     19  N   UNL     1      46.487   4.013   7.070  0.00  0.00    +0.000 NA
ATOM     20  C   UNL     1      45.502   4.011   8.004  0.00  0.00    +0.000 A 
ENDBRANCH  14  15
ENDBRANCH  13  14
ENDBRANCH   7  13
TORSDOF 4
ENDMDL
MODEL 3
REMARK VINA RESULT:    -7.061      2.089      6.138
REMARK INTER + INTRA:          -9.044
REMARK INTER:                  -8.626
REMARK INTRA:                  -0.418
REMARK UNBOUND:                -0.332
REMARK  Name = 
REMARK  5 active torsions:
REMARK  status: ('A' for Active; 'I' for Inactive)
REMARK    1  A    between atoms: C_1  and  C_2
REMARK    2  A    between atoms: C_4  and  C_5
REMARK    3  A    between atoms: C_10  and  C_11
REMARK    4  A    between atoms: C_11  and  O_12
REMARK    5  A    between atoms: O_12  and  C_13
REMARK                            x       y       z     vdW  Elec       q    Type
REMARK                         _______ _______ _______ _____ _____    ______ ____
ROOT
ATOM      1  C   UNL     1      44.152   2.073  10.120  0.00  0.00    +0.000 C 
ATOM      2  C   UNL     1      45.043   2.885   9.221  0.00  0.00    +0.000 A 
ATOM      3  C   UNL     1      45.861   2.209   8.305  0.00  0.00    +0.000 A 
ATOM      4  C   UNL     1      46.690   2.944   7.469  0.00  0.00    +0.000 A 
ATOM      5  N   UNL     1      46.769   4.302   7.487  0.00  0.00    +0.000 NA
ATOM      6  C   UNL     1      45.977   4.929   8.389  0.00  0.00    +0.000 A 
ATOM      7  C   UNL     1      45.090   4.290   9.262  0.00  0.00    +0.000 A 
ENDROOT
BRANCH   4   8
ATOM      8  C   UNL     1      47.550   2.225   6.475  0.00  0.00    +0.000 C 
ATOM      9  N   UNL     1      47.907   2.947   5.369  0.00  0.00    +0.000 N 
ATOM     10  O   UNL     1      47.913   1.065   6.627  0.00  0.00    +0.000 OA
ATOM     11  H   UNL     1      47.592   3.905   5.275  0.00  0.00    +0.000 HD
ATOM     12  H   UNL     1      48.487   2.522   4.661  0.00  0.00    +0.000 HD
ENDBRANCH   4   8
BRANCH   7  13
ATOM     13  C   UNL     1      44.261   5.131  10.207  0.00  0.00    +0.000 C 
BRANCH  13  14
ATOM     14  O   UNL     1      45.107   6.100  10.823  0.00  0.00    +0.000 OA
BRANCH  14  15
ATOM     15  C   UNL     1      45.762   5.733  11.966  0.00  0.00    +0.000 A 
ATOM     16  C   UNL     1      46.929   6.290  12.481  0.00  0.00    +0.000 A 
ATOM     17  C   UNL     1      47.463   5.793  13.674  0.00  0.00    +0.000 A 
ATOM     18  C   UNL     1      46.811   4.751  14.311  0.00  0.00    +0.000 A 
ATOM     19  N   UNL     1      45.684   4.181  13.841  0.00  0.00    +0.000 NA
ATOM     20  C   UNL     1      45.190   4.685  12.683  0.00  0.00    +0.000 A 
ENDBRANCH  14  15
ENDBRANCH  13  14
ENDBRANCH   7  13
TORSDOF 4
ENDMDL
MODEL 4
REMARK VINA RESULT:    -6.753      2.311      2.830
REMARK INTER + INTRA:          -8.664
REMARK INTER:                  -8.180
REMARK INTRA:                  -0.484
REMARK UNBOUND:                -0.332
REMARK  Name = 
REMARK  5 active torsions:
REMARK  status: ('A' for Active; 'I' for Inactive)
REMARK    1  A    between atoms: C_1  and  C_2
REMARK    2  A    between atoms: C_4  and  C_5
REMARK    3  A    between atoms: C_10  and  C_11
REMARK    4  A    between atoms: C_11  and  O_12
REMARK    5  A    between atoms: O_12  and  C_13
REMARK                            x       y       z     vdW  Elec       q    Type
REMARK                         _______ _______ _______ _____ _____    ______ ____
ROOT
ATOM      1  C   UNL     1      45.995   3.579  12.844  0.00  0.00    +0.000 C 
ATOM      2  C   UNL     1      45.501   4.919  12.375  0.00  0.00    +0.000 A 
ATOM      3  C   UNL     1      46.030   6.072  12.973  0.00  0.00    +0.000 A 
ATOM      4  C   UNL     1      45.584   7.317  12.551  0.00  0.00    +0.000 A 
ATOM      5  N   UNL     1      44.643   7.495  11.585  0.00  0.00    +0.000 NA
ATOM      6  C   UNL     1      44.141   6.365  11.032  0.00  0.00    +0.000 A 
ATOM      7  C   UNL     1      44.533   5.064  11.364  0.00  0.00    +0.000 A 
ENDROOT
BRANCH   4   8
ATOM      8  C   UNL     1      46.162   8.551  13.175  0.00  0.00    +0.000 C 
ATOM      9  N   UNL     1      45.663   9.738  12.711  0.00  0.00    +0.000 N 
ATOM     10  O   UNL     1      47.028   8.514  14.040  0.00  0.00    +0.000 OA
ATOM     11  H   UNL     1      44.945   9.733  11.996  0.00  0.00    +0.000 HD
ATOM     12  H   UNL     1      46.009  10.607  13.090  0.00  0.00    +0.000 HD
ENDBRANCH   4   8
BRANCH   7  13
ATOM     13  C   UNL     1      43.886   3.900  10.647  0.00  0.00    +0.000 C 
BRANCH  13  14
ATOM     14  O   UNL     1      44.048   4.078   9.242  0.00  0.00    +0.000 OA
BRANCH  14  15
ATOM     15  C   UNL     1      45.005   3.330   8.615  0.00  0.00    +0.000 A 
ATOM     16  C   UNL     1      45.906   3.760   7.646  0.00  0.00    +0.000 A 
ATOM     17  C   UNL     1      46.830   2.855   7.111  0.00  0.00    +0.000 A 
ATOM     18  C   UNL     1      46.818   1.547   7.564  0.00  0.00    +0.000 A 
ATOM     19  N   UNL     1      45.958   1.091   8.496  0.00  0.00    +0.000 NA
ATOM     20  C   UNL     1      45.075   1.992   8.995  0.00  0.00    +0.000 A 
ENDBRANCH  14  15
ENDBRANCH  13  14
ENDBRANCH   7  13
TORSDOF 4
ENDMDL
MODEL 5
REMARK VINA RESULT:    -6.054      2.123      6.955
REMARK INTER + INTRA:          -7.801
REMARK INTER:                  -7.461
REMARK INTRA:                  -0.340
REMARK UNBOUND:                -0.332
REMARK  Name = 
REMARK  5 active torsions:
REMARK  status: ('A' for Active; 'I' for Inactive)
REMARK    1  A    between atoms: C_1  and  C_2
REMARK    2  A    between atoms: C_4  and  C_5
REMARK    3  A    between atoms: C_10  and  C_11
REMARK    4  A    between atoms: C_11  and  O_12
REMARK    5  A    between atoms: O_12  and  C_13
REMARK                            x       y       z     vdW  Elec       q    Type
REMARK                         _______ _______ _______ _____ _____    ______ ____
ROOT
ATOM      1  C   UNL     1      46.204   7.137  12.169  0.00  0.00    +0.000 C 
ATOM      2  C   UNL     1      45.882   5.674  12.037  0.00  0.00    +0.000 A 
ATOM      3  C   UNL     1      45.292   5.225  10.848  0.00  0.00    +0.000 A 
ATOM      4  C   UNL     1      44.988   3.878  10.711  0.00  0.00    +0.000 A 
ATOM      5  N   UNL     1      45.221   2.949  11.677  0.00  0.00    +0.000 NA
ATOM      6  C   UNL     1      45.781   3.411  12.820  0.00  0.00    +0.000 A 
ATOM      7  C   UNL     1      46.147   4.740  13.056  0.00  0.00    +0.000 A 
ENDROOT
BRANCH   4   8
ATOM      8  C   UNL     1      44.375   3.392   9.432  0.00  0.00    +0.000 C 
ATOM      9  N   UNL     1      44.130   4.354   8.490  0.00  0.00    +0.000 N 
ATOM     10  O   UNL     1      44.102   2.215   9.233  0.00  0.00    +0.000 OA
ATOM     11  H   UNL     1      44.370   5.318   8.687  0.00  0.00    +0.000 HD
ATOM     12  H   UNL     1      43.719   4.094   7.606  0.00  0.00    +0.000 HD
ENDBRANCH   4   8
BRANCH   7  13
ATOM     13  C   UNL     1      46.776   5.101  14.383  0.00  0.00    +0.000 C 
BRANCH  13  14
ATOM     14  O   UNL     1      46.731   3.961  15.239  0.00  0.00    +0.000 OA
BRANCH  14  15
ATOM     15  C   UNL     1      47.473   4.002  16.386  0.00  0.00    +0.000 A 
ATOM     16  C   UNL     1      47.521   3.039  17.390  0.00  0.00    +0.000 A 
ATOM     17  C   UNL     1      48.346   3.241  18.502  0.00  0.00    +0.000 A 
ATOM     18  C   UNL     1      49.094   4.403  18.573  0.00  0.00    +0.000 A 
ATOM     19  N   UNL     1      49.070   5.361  17.625  0.00  0.00    +0.000 NA
ATOM     20  C   UNL     1      48.261   5.136  16.559  0.00  0.00    +0.000 A 
ENDBRANCH  14  15
ENDBRANCH  13  14
ENDBRANCH   7  13
TORSDOF 4
ENDMDL
MODEL 6
REMARK VINA RESULT:    -5.950      3.784      6.449
REMARK INTER + INTRA:          -7.674
REMARK INTER:                  -7.218
REMARK INTRA:                  -0.455
REMARK UNBOUND:                -0.332
REMARK  Name = 
REMARK  5 active torsions:
REMARK  status: ('A' for Active; 'I' for Inactive)
REMARK    1  A    between atoms: C_1  and  C_2
REMARK    2  A    between atoms: C_4  and  C_5
REMARK    3  A    between atoms: C_10  and  C_11
REMARK    4  A    between atoms: C_11  and  O_12
REMARK    5  A    between atoms: O_12  and  C_13
REMARK                            x       y       z     vdW  Elec       q    Type
REMARK                         _______ _______ _______ _____ _____    ______ ____
ROOT
ATOM      1  C   UNL     1      49.514   5.657  18.184  0.00  0.00    +0.000 C 
ATOM      2  C   UNL     1      49.589   4.269  17.614  0.00  0.00    +0.000 A 
ATOM      3  C   UNL     1      50.741   3.507  17.857  0.00  0.00    +0.000 A 
ATOM      4  C   UNL     1      50.825   2.224  17.337  0.00  0.00    +0.000 A 
ATOM      5  N   UNL     1      49.849   1.648  16.584  0.00  0.00    +0.000 NA
ATOM      6  C   UNL     1      48.752   2.409  16.354  0.00  0.00    +0.000 A 
ATOM      7  C   UNL     1      48.553   3.703  16.847  0.00  0.00    +0.000 A 
ENDROOT
BRANCH   4   8
ATOM      8  C   UNL     1      52.047   1.401  17.613  0.00  0.00    +0.000 C 
ATOM      9  N   UNL     1      51.816   0.143  18.101  0.00  0.00    +0.000 N 
ATOM     10  O   UNL     1      53.183   1.816  17.423  0.00  0.00    +0.000 OA
ATOM     11  H   UNL     1      50.863  -0.170  18.244  0.00  0.00    +0.000 HD
ATOM     12  H   UNL     1      52.596  -0.463  18.307  0.00  0.00    +0.000 HD
ENDBRANCH   4   8
BRANCH   7  13
ATOM     13  C   UNL     1      47.266   4.423  16.512  0.00  0.00    +0.000 C 
BRANCH  13  14
ATOM     14  O   UNL     1      46.753   3.903  15.287  0.00  0.00    +0.000 OA
BRANCH  14  15
ATOM     15  C   UNL     1      46.751   4.733  14.201  0.00  0.00    +0.000 A 
ATOM     16  C   UNL     1      47.591   5.818  13.971  0.00  0.00    +0.000 A 
ATOM     17  C   UNL     1      47.454   6.562  12.794  0.00  0.00    +0.000 A 
ATOM     18  C   UNL     1      46.476   6.194  11.886  0.00  0.00    +0.000 A 
ATOM     19  N   UNL     1      45.639   5.155  12.075  0.00  0.00    +0.000 NA
ATOM     20  C   UNL     1      45.797   4.453  13.225  0.00  0.00    +0.000 A 
ENDBRANCH  14  15
ENDBRANCH  13  14
ENDBRANCH   7  13
TORSDOF 4
ENDMDL
MODEL 7
REMARK VINA RESULT:    -5.822      3.249      6.198
REMARK INTER + INTRA:          -7.516
REMARK INTER:                  -6.975
REMARK INTRA:                  -0.541
REMARK UNBOUND:                -0.332
REMARK  Name = 
REMARK  5 active torsions:
REMARK  status: ('A' for Active; 'I' for Inactive)
REMARK    1  A    between atoms: C_1  and  C_2
REMARK    2  A    between atoms: C_4  and  C_5
REMARK    3  A    between atoms: C_10  and  C_11
REMARK    4  A    between atoms: C_11  and  O_12
REMARK    5  A    between atoms: O_12  and  C_13
REMARK                            x       y       z     vdW  Elec       q    Type
REMARK                         _______ _______ _______ _____ _____    ______ ____
ROOT
ATOM      1  C   UNL     1      45.917   7.476  11.917  0.00  0.00    +0.000 C 
ATOM      2  C   UNL     1      45.912   6.013  12.265  0.00  0.00    +0.000 A 
ATOM      3  C   UNL     1      45.050   5.162  11.559  0.00  0.00    +0.000 A 
ATOM      4  C   UNL     1      45.032   3.810  11.869  0.00  0.00    +0.000 A 
ATOM      5  N   UNL     1      45.804   3.247  12.838  0.00  0.00    +0.000 NA
ATOM      6  C   UNL     1      46.619   4.093  13.512  0.00  0.00    +0.000 A 
ATOM      7  C   UNL     1      46.733   5.465  13.268  0.00  0.00    +0.000 A 
ENDROOT
BRANCH   4   8
ATOM      8  C   UNL     1      44.127   2.895  11.102  0.00  0.00    +0.000 C 
ATOM      9  N   UNL     1      44.683   2.292  10.007  0.00  0.00    +0.000 N 
ATOM     10  O   UNL     1      42.961   2.695  11.421  0.00  0.00    +0.000 OA
ATOM     11  H   UNL     1      45.651   2.478   9.773  0.00  0.00    +0.000 HD
ATOM     12  H   UNL     1      44.128   1.663   9.447  0.00  0.00    +0.000 HD
ENDBRANCH   4   8
BRANCH   7  13
ATOM     13  C   UNL     1      47.699   6.278  14.100  0.00  0.00    +0.000 C 
BRANCH  13  14
ATOM     14  O   UNL     1      48.984   6.238  13.482  0.00  0.00    +0.000 OA
BRANCH  14  15
ATOM     15  C   UNL     1      49.509   7.420  13.039  0.00  0.00    +0.000 A 
ATOM     16  C   UNL     1      49.505   7.905  11.735  0.00  0.00    +0.000 A 
ATOM     17  C   UNL     1      50.086   9.147  11.457  0.00  0.00    +0.000 A 
ATOM     18  C   UNL     1      50.656   9.862  12.496  0.00  0.00    +0.000 A 
ATOM     19  N   UNL     1      50.686   9.424  13.771  0.00  0.00    +0.000 NA
ATOM     20  C   UNL     1      50.114   8.217  14.008  0.00  0.00    +0.000 A 
ENDBRANCH  14  15
ENDBRANCH  13  14
ENDBRANCH   7  13
TORSDOF 4
ENDMDL
MODEL 8
REMARK VINA RESULT:    -5.685      2.619      7.182
REMARK INTER + INTRA:          -7.347
REMARK INTER:                  -6.960
REMARK INTRA:                  -0.386
REMARK UNBOUND:                -0.332
REMARK  Name = 
REMARK  5 active torsions:
REMARK  status: ('A' for Active; 'I' for Inactive)
REMARK    1  A    between atoms: C_1  and  C_2
REMARK    2  A    between atoms: C_4  and  C_5
REMARK    3  A    between atoms: C_10  and  C_11
REMARK    4  A    between atoms: C_11  and  O_12
REMARK    5  A    between atoms: O_12  and  C_13
REMARK                            x       y       z     vdW  Elec       q    Type
REMARK                         _______ _______ _______ _____ _____    ______ ____
ROOT
ATOM      1  C   UNL     1      46.459   7.402  11.826  0.00  0.00    +0.000 C 
ATOM      2  C   UNL     1      46.205   5.977  12.229  0.00  0.00    +0.000 A 
ATOM      3  C   UNL     1      45.273   5.231  11.493  0.00  0.00    +0.000 A 
ATOM      4  C   UNL     1      45.026   3.914  11.854  0.00  0.00    +0.000 A 
ATOM      5  N   UNL     1      45.634   3.290  12.899  0.00  0.00    +0.000 NA
ATOM      6  C   UNL     1      46.520   4.036  13.600  0.00  0.00    +0.000 A 
ATOM      7  C   UNL     1      46.860   5.362  13.312  0.00  0.00    +0.000 A 
ENDROOT
BRANCH   4   8
ATOM      8  C   UNL     1      44.046   3.108  11.056  0.00  0.00    +0.000 C 
ATOM      9  N   UNL     1      43.406   2.109  11.739  0.00  0.00    +0.000 N 
ATOM     10  O   UNL     1      43.826   3.317   9.870  0.00  0.00    +0.000 OA
ATOM     11  H   UNL     1      43.610   1.965  12.721  0.00  0.00    +0.000 HD
ATOM     12  H   UNL     1      42.733   1.530  11.261  0.00  0.00    +0.000 HD
ENDBRANCH   4   8
BRANCH   7  13
ATOM     13  C   UNL     1      47.880   6.061  14.183  0.00  0.00    +0.000 C 
BRANCH  13  14
ATOM     14  O   UNL     1      48.327   5.153  15.187  0.00  0.00    +0.000 OA
BRANCH  14  15
ATOM     15  C   UNL     1      48.378   5.610  16.475  0.00  0.00    +0.000 A 
ATOM     16  C   UNL     1      49.031   6.750  16.935  0.00  0.00    +0.000 A 
ATOM     17  C   UNL     1      48.976   7.076  18.295  0.00  0.00    +0.000 A 
ATOM     18  C   UNL     1      48.270   6.247  19.149  0.00  0.00    +0.000 A 
ATOM     19  N   UNL     1      47.631   5.132  18.743  0.00  0.00    +0.000 NA
ATOM     20  C   UNL     1      47.702   4.843  17.420  0.00  0.00    +0.000 A 
ENDBRANCH  14  15
ENDBRANCH  13  14
ENDBRANCH   7  13
TORSDOF 4
ENDMDL
MODEL 9
REMARK VINA RESULT:    -5.593      3.246      6.002
REMARK INTER + INTRA:          -7.233
REMARK INTER:                  -6.621
REMARK INTRA:                  -0.612
REMARK UNBOUND:                -0.332
REMARK  Name = 
REMARK  5 active torsions:
REMARK  status: ('A' for Active; 'I' for Inactive)
REMARK    1  A    between atoms: C_1  and  C_2
REMARK    2  A    between atoms: C_4  and  C_5
REMARK    3  A    between atoms: C_10  and  C_11
REMARK    4  A    between atoms: C_11  and  O_12
REMARK    5  A    between atoms: O_12  and  C_13
REMARK                            x       y       z     vdW  Elec       q    Type
REMARK                         _______ _______ _______ _____ _____    ______ ____
ROOT
ATOM      1  C   UNL     1      46.996   5.276  14.018  0.00  0.00    +0.000 C 
ATOM      2  C   UNL     1      45.896   5.304  12.994  0.00  0.00    +0.000 A 
ATOM      3  C   UNL     1      45.410   4.085  12.501  0.00  0.00    +0.000 A 
ATOM      4  C   UNL     1      44.395   4.095  11.555  0.00  0.00    +0.000 A 
ATOM      5  N   UNL     1      43.838   5.232  11.057  0.00  0.00    +0.000 NA
ATOM      6  C   UNL     1      44.333   6.396  11.541  0.00  0.00    +0.000 A 
ATOM      7  C   UNL     1      45.336   6.501  12.509  0.00  0.00    +0.000 A 
ENDROOT
BRANCH   4   8
ATOM      8  C   UNL     1      43.860   2.792  11.042  0.00  0.00    +0.000 C 
ATOM      9  N   UNL     1      44.493   2.285   9.939  0.00  0.00    +0.000 N 
ATOM     10  O   UNL     1      42.916   2.212  11.562  0.00  0.00    +0.000 OA
ATOM     11  H   UNL     1      45.273   2.790   9.535  0.00  0.00    +0.000 HD
ATOM     12  H   UNL     1      44.183   1.410   9.544  0.00  0.00    +0.000 HD
ENDBRANCH   4   8
BRANCH   7  13
ATOM     13  C   UNL     1      45.777   7.877  12.959  0.00  0.00    +0.000 C 
BRANCH  13  14
ATOM     14  O   UNL     1      46.674   8.412  11.988  0.00  0.00    +0.000 OA
BRANCH  14  15
ATOM     15  C   UNL     1      48.012   8.348  12.260  0.00  0.00    +0.000 A 
ATOM     16  C   UNL     1      49.017   7.870  11.424  0.00  0.00    +0.000 A 
ATOM     17  C   UNL     1      50.345   7.883  11.863  0.00  0.00    +0.000 A 
ATOM     18  C   UNL     1      50.622   8.374  13.127  0.00  0.00    +0.000 A 
ATOM     19  N   UNL     1      49.678   8.839  13.968  0.00  0.00    +0.000 NA
ATOM     20  C   UNL     1      48.399   8.814  13.513  0.00  0.00    +0.000 A 
ENDBRANCH  14  15
ENDBRANCH  13  14
ENDBRANCH   7  13
TORSDOF 4
ENDMDL
