MODEL 1
REMARK VINA RESULT:    -8.649      0.000      0.000
REMARK INTER + INTRA:         -11.731
REMARK INTER:                 -11.177
REMARK INTRA:                  -0.554
REMARK UNBOUND:                -0.554
REMARK  Name = 
REMARK  6 active torsions:
REMARK  status: ('A' for Active; 'I' for Inactive)
REMARK    1  A    between atoms: C_1  and  O_2
REMARK    2  A    between atoms: O_2  and  C_3
REMARK    3  A    between atoms: C_5  and  C_6
REMARK    4  A    between atoms: N_11  and  C_12
REMARK    5  A    between atoms: C_12  and  C_13
REMARK    6  A    between atoms: C_17  and  C_18
REMARK                            x       y       z     vdW  Elec       q    Type
REMARK                         _______ _______ _______ _____ _____    ______ ____
ROOT
ATOM      1  C   UNL     1      49.148   2.536  16.618  0.00  0.00    +0.000 A 
ATOM      2  C   UNL     1      49.025   3.285  17.752  0.00  0.00    +0.000 A 
ATOM      3  C   UNL     1      48.031   4.234  17.688  0.00  0.00    +0.000 A 
ATOM      4  N   UNL     1      47.230   4.438  16.609  0.00  0.00    +0.000 NA
ATOM      5  C   UNL     1      47.431   3.624  15.575  0.00  0.00    +0.000 A 
ATOM      6  N   UNL     1      46.629   3.670  14.460  0.00  0.00    +0.000 N 
ATOM      7  N   UNL     1      48.365   2.681  15.541  0.00  0.00    +0.000 NA
ATOM      8  H   UNL     1      47.036   3.098  13.731  0.00  0.00    +0.000 HD
ENDROOT
BRANCH   3   9
ATOM      9  C   UNL     1      47.776   5.121  18.865  0.00  0.00    +0.000 C 
ATOM     10  N   UNL     1      46.525   5.681  18.923  0.00  0.00    +0.000 N 
ATOM     11  O   UNL     1      48.619   5.336  19.724  0.00  0.00    +0.000 OA
ATOM     12  H   UNL     1      45.832   5.449  18.223  0.00  0.00    +0.000 HD
ATOM     13  H   UNL     1      46.282   6.268  19.707  0.00  0.00    +0.000 HD
ENDBRANCH   3   9
BRANCH   1  15
ATOM     14  C   UNL     1      51.275   1.942  17.376  0.00  0.00    +0.000 C 
ATOM     15  O   UNL     1      50.142   1.576  16.584  0.00  0.00    +0.000 OA
ENDBRANCH   1  15
BRANCH   6  16
ATOM     16  C   UNL     1      45.997   4.905  14.063  0.00  0.00    +0.000 C 
BRANCH  16  17
ATOM     17  C   UNL     1      45.139   4.739  12.831  0.00  0.00    +0.000 A 
ATOM     18  C   UNL     1      43.773   5.020  12.861  0.00  0.00    +0.000 A 
ATOM     19  C   UNL     1      43.042   4.894  11.690  0.00  0.00    +0.000 A 
ATOM     20  N   UNL     1      43.570   4.484  10.516  0.00  0.00    +0.000 NA
ATOM     21  C   UNL     1      44.887   4.175  10.488  0.00  0.00    +0.000 A 
ATOM     22  C   UNL     1      45.696   4.314  11.621  0.00  0.00    +0.000 A 
BRANCH  21  23
ATOM     23  C   UNL     1      45.399   3.653   9.212  0.00  0.00    +0.000 A 
ATOM     24  C   UNL     1      45.523   2.277   8.958  0.00  0.00    +0.000 A 
ATOM     25  C   UNL     1      46.040   1.831   7.741  0.00  0.00    +0.000 A 
ATOM     26  C   UNL     1      46.422   2.774   6.805  0.00  0.00    +0.000 A 
ATOM     27  F   UNL     1      46.924   2.349   5.637  0.00  0.00    +0.000 F 
ATOM     28  N   UNL     1      46.326   4.101   6.991  0.00  0.00    +0.000 NA
ATOM     29  C   UNL     1      45.825   4.500   8.186  0.00  0.00    +0.000 A 
ENDBRANCH  21  23
ENDBRANCH  16  17
ENDBRANCH   6  16
TORSDOF 5
ENDMDL
MODEL 2
REMARK VINA RESULT:    -8.575      2.601      3.928
REMARK INTER + INTRA:         -11.635
REMARK INTER:                 -11.155
REMARK INTRA:                  -0.480
REMARK UNBOUND:                -0.554
REMARK  Name = 
REMARK  6 active torsions:
REMARK  status: ('A' for Active; 'I' for Inactive)
REMARK    1  A    between atoms: C_1  and  O_2
REMARK    2  A    between atoms: O_2  and  C_3
REMARK    3  A    between atoms: C_5  and  C_6
REMARK    4  A    between atoms: N_11  and  C_12
REMARK    5  A    between atoms: C_12  and  C_13
REMARK    6  A    between atoms: C_17  and  C_18
REMARK                            x       y       z     vdW  Elec       q    Type
REMARK                         _______ _______ _______ _____ _____    ______ ____
ROOT
ATOM      1  C   UNL     1      47.940   7.673  13.706  0.00  0.00    +0.000 A 
ATOM      2  C   UNL     1      48.075   6.515  14.415  0.00  0.00    +0.000 A 
ATOM      3  C   UNL     1      47.125   5.565  14.118  0.00  0.00    +0.000 A 
ATOM      4  N   UNL     1      46.126   5.733  13.210  0.00  0.00    +0.000 NA
ATOM      5  C   UNL     1      46.119   6.897  12.564  0.00  0.00    +0.000 A 
ATOM      6  N   UNL     1      45.215   7.155  11.562  0.00  0.00    +0.000 N 
ATOM      7  N   UNL     1      46.991   7.875  12.784  0.00  0.00    +0.000 NA
ATOM      8  H   UNL     1      45.263   8.135  11.312  0.00  0.00    +0.000 HD
ENDROOT
BRANCH   3   9
ATOM      9  C   UNL     1      47.157   4.241  14.812  0.00  0.00    +0.000 C 
ATOM     10  N   UNL     1      46.882   4.270  16.155  0.00  0.00    +0.000 N 
ATOM     11  O   UNL     1      47.407   3.196  14.227  0.00  0.00    +0.000 OA
ATOM     12  H   UNL     1      46.634   5.142  16.603  0.00  0.00    +0.000 HD
ATOM     13  H   UNL     1      46.863   3.405  16.674  0.00  0.00    +0.000 HD
ENDBRANCH   3   9
BRANCH   1  15
ATOM     14  C   UNL     1      48.582   9.335  15.215  0.00  0.00    +0.000 C 
ATOM     15  O   UNL     1      48.836   8.694  13.962  0.00  0.00    +0.000 OA
ENDBRANCH   1  15
BRANCH   6  16
ATOM     16  C   UNL     1      43.915   6.531  11.570  0.00  0.00    +0.000 C 
BRANCH  16  17
ATOM     17  C   UNL     1      43.965   5.092  11.116  0.00  0.00    +0.000 A 
ATOM     18  C   UNL     1      43.238   4.102  11.776  0.00  0.00    +0.000 A 
ATOM     19  C   UNL     1      43.287   2.805  11.289  0.00  0.00    +0.000 A 
ATOM     20  N   UNL     1      44.024   2.431  10.221  0.00  0.00    +0.000 NA
ATOM     21  C   UNL     1      44.761   3.379   9.598  0.00  0.00    +0.000 A 
ATOM     22  C   UNL     1      44.733   4.716  10.009  0.00  0.00    +0.000 A 
BRANCH  21  23
ATOM     23  C   UNL     1      45.613   2.911   8.494  0.00  0.00    +0.000 A 
ATOM     24  C   UNL     1      46.047   1.579   8.393  0.00  0.00    +0.000 A 
ATOM     25  C   UNL     1      46.877   1.188   7.342  0.00  0.00    +0.000 A 
ATOM     26  C   UNL     1      47.254   2.142   6.414  0.00  0.00    +0.000 A 
ATOM     27  F   UNL     1      48.057   1.772   5.406  0.00  0.00    +0.000 F 
ATOM     28  N   UNL     1      46.871   3.429   6.459  0.00  0.00    +0.000 NA
ATOM     29  C   UNL     1      46.070   3.775   7.496  0.00  0.00    +0.000 A 
ENDBRANCH  21  23
ENDBRANCH  16  17
ENDBRANCH   6  16
TORSDOF 5
ENDMDL
MODEL 3
REMARK VINA RESULT:    -8.297      2.177      2.567
REMARK INTER + INTRA:         -11.277
REMARK INTER:                 -10.593
REMARK INTRA:                  -0.684
REMARK UNBOUND:                -0.554
REMARK  Name = 
REMARK  6 active torsions:
REMARK  status: ('A' for Active; 'I' for Inactive)
REMARK    1  A    between atoms: C_1  and  O_2
REMARK    2  A    between atoms: O_2  and  C_3
REMARK    3  A    between atoms: C_5  and  C_6
REMARK    4  A    between atoms: N_11  and  C_12
REMARK    5  A    between atoms: C_12  and  C_13
REMARK    6  A    between atoms: C_17  and  C_18
REMARK                            x       y       z     vdW  Elec       q    Type
REMARK                         _______ _______ _______ _____ _____    ______ ____
ROOT
ATOM      1  C   UNL     1      49.235   6.090  15.491  0.00  0.00    +0.000 A 
ATOM      2  C   UNL     1      49.004   5.196  16.496  0.00  0.00    +0.000 A 
ATOM      3  C   UNL     1      47.828   4.495  16.359  0.00  0.00    +0.000 A 
ATOM      4  N   UNL     1      46.950   4.655  15.333  0.00  0.00    +0.000 NA
ATOM      5  C   UNL     1      47.303   5.539  14.401  0.00  0.00    +0.000 A 
ATOM      6  N   UNL     1      46.545   5.728  13.271  0.00  0.00    +0.000 N 
ATOM      7  N   UNL     1      48.414   6.265  14.447  0.00  0.00    +0.000 NA
ATOM      8  H   UNL     1      46.883   6.543  12.774  0.00  0.00    +0.000 HD
ENDROOT
BRANCH   3   9
ATOM      9  C   UNL     1      47.452   3.471  17.382  0.00  0.00    +0.000 C 
ATOM     10  N   UNL     1      48.436   3.139  18.278  0.00  0.00    +0.000 N 
ATOM     11  O   UNL     1      46.341   2.961  17.427  0.00  0.00    +0.000 OA
ATOM     12  H   UNL     1      49.331   3.610  18.245  0.00  0.00    +0.000 HD
ATOM     13  H   UNL     1      48.235   2.474  19.009  0.00  0.00    +0.000 HD
ENDBRANCH   3   9
BRANCH   1  15
ATOM     14  C   UNL     1      50.210   8.141  14.951  0.00  0.00    +0.000 C 
ATOM     15  O   UNL     1      50.380   6.860  15.563  0.00  0.00    +0.000 OA
ENDBRANCH   1  15
BRANCH   6  16
ATOM     16  C   UNL     1      45.119   5.510  13.299  0.00  0.00    +0.000 C 
BRANCH  16  17
ATOM     17  C   UNL     1      44.684   4.434  12.333  0.00  0.00    +0.000 A 
ATOM     18  C   UNL     1      43.660   3.545  12.657  0.00  0.00    +0.000 A 
ATOM     19  C   UNL     1      43.272   2.606  11.716  0.00  0.00    +0.000 A 
ATOM     20  N   UNL     1      43.848   2.478  10.500  0.00  0.00    +0.000 NA
ATOM     21  C   UNL     1      44.867   3.313  10.193  0.00  0.00    +0.000 A 
ATOM     22  C   UNL     1      45.289   4.311  11.078  0.00  0.00    +0.000 A 
BRANCH  21  23
ATOM     23  C   UNL     1      45.520   3.082   8.895  0.00  0.00    +0.000 A 
ATOM     24  C   UNL     1      45.944   1.809   8.483  0.00  0.00    +0.000 A 
ATOM     25  C   UNL     1      46.583   1.644   7.254  0.00  0.00    +0.000 A 
ATOM     26  C   UNL     1      46.783   2.761   6.463  0.00  0.00    +0.000 A 
ATOM     27  F   UNL     1      47.402   2.608   5.284  0.00  0.00    +0.000 F 
ATOM     28  N   UNL     1      46.399   4.002   6.804  0.00  0.00    +0.000 NA
ATOM     29  C   UNL     1      45.786   4.127   8.007  0.00  0.00    +0.000 A 
ENDBRANCH  21  23
ENDBRANCH  16  17
ENDBRANCH   6  16
TORSDOF 5
ENDMDL
MODEL 4
REMARK VINA RESULT:    -8.188      4.163      5.072
REMARK INTER + INTRA:         -11.135
REMARK INTER:                 -10.345
REMARK INTRA:                  -0.790
REMARK UNBOUND:                -0.554
REMARK  Name = 
REMARK  6 active torsions:
REMARK  status: ('A' for Active; 'I' for Inactive)
REMARK    1  A    between atoms: C_1  and  O_2
REMARK    2  A    between atoms: O_2  and  C_3
REMARK    3  A    between atoms: C_5  and  C_6
REMARK    4  A    between atoms: N_11  and  C_12
REMARK    5  A    between atoms: C_12  and  C_13
REMARK    6  A    between atoms: C_17  and  C_18
REMARK                            x       y       z     vdW  Elec       q    Type
REMARK                         _______ _______ _______ _____ _____    ______ ____
ROOT
ATOM      1  C   UNL     1      48.590   7.886  12.609  0.00  0.00    +0.000 A 
ATOM      2  C   UNL     1      48.152   9.116  12.212  0.00  0.00    +0.000 A 
ATOM      3  C   UNL     1      46.782   9.244  12.205  0.00  0.00    +0.000 A 
ATOM      4  N   UNL     1      45.914   8.256  12.552  0.00  0.00    +0.000 NA
ATOM      5  C   UNL     1      46.467   7.112  12.949  0.00  0.00    +0.000 A 
ATOM      6  N   UNL     1      45.701   6.068  13.409  0.00  0.00    +0.000 N 
ATOM      7  N   UNL     1      47.776   6.892  12.986  0.00  0.00    +0.000 NA
ATOM      8  H   UNL     1      46.281   5.244  13.504  0.00  0.00    +0.000 HD
ENDROOT
BRANCH   3   9
ATOM      9  C   UNL     1      46.160  10.543  11.801  0.00  0.00    +0.000 C 
ATOM     10  N   UNL     1      44.859  10.724  12.194  0.00  0.00    +0.000 N 
ATOM     11  O   UNL     1      46.766  11.394  11.165  0.00  0.00    +0.000 OA
ATOM     12  H   UNL     1      44.397  10.022  12.759  0.00  0.00    +0.000 HD
ATOM     13  H   UNL     1      44.392  11.591  11.974  0.00  0.00    +0.000 HD
ENDBRANCH   3   9
BRANCH   1  15
ATOM     14  C   UNL     1      50.522   7.732  11.308  0.00  0.00    +0.000 C 
ATOM     15  O   UNL     1      49.954   7.659  12.618  0.00  0.00    +0.000 OA
ENDBRANCH   1  15
BRANCH   6  16
ATOM     16  C   UNL     1      44.353   5.881  12.930  0.00  0.00    +0.000 C 
BRANCH  16  17
ATOM     17  C   UNL     1      44.212   4.638  12.083  0.00  0.00    +0.000 A 
ATOM     18  C   UNL     1      43.381   3.590  12.476  0.00  0.00    +0.000 A 
ATOM     19  C   UNL     1      43.254   2.493  11.639  0.00  0.00    +0.000 A 
ATOM     20  N   UNL     1      43.915   2.361  10.468  0.00  0.00    +0.000 NA
ATOM     21  C   UNL     1      44.751   3.358  10.098  0.00  0.00    +0.000 A 
ATOM     22  C   UNL     1      44.901   4.514  10.873  0.00  0.00    +0.000 A 
BRANCH  21  23
ATOM     23  C   UNL     1      45.513   3.134   8.860  0.00  0.00    +0.000 A 
ATOM     24  C   UNL     1      45.962   1.861   8.474  0.00  0.00    +0.000 A 
ATOM     25  C   UNL     1      46.705   1.703   7.303  0.00  0.00    +0.000 A 
ATOM     26  C   UNL     1      46.980   2.825   6.544  0.00  0.00    +0.000 A 
ATOM     27  F   UNL     1      47.698   2.678   5.422  0.00  0.00    +0.000 F 
ATOM     28  N   UNL     1      46.577   4.067   6.862  0.00  0.00    +0.000 NA
ATOM     29  C   UNL     1      45.863   4.185   8.009  0.00  0.00    +0.000 A 
ENDBRANCH  21  23
ENDBRANCH  16  17
ENDBRANCH   6  16
TORSDOF 5
ENDMDL
MODEL 5
REMARK VINA RESULT:    -7.867      4.218      8.071
REMARK INTER + INTRA:         -10.721
REMARK INTER:                  -9.851
REMARK INTRA:                  -0.870
REMARK UNBOUND:                -0.554
REMARK  Name = 
REMARK  6 active torsions:
REMARK  status: ('A' for Active; 'I' for Inactive)
REMARK    1  A    between atoms: C_1  and  O_2
REMARK    2  A    between atoms: O_2  and  C_3
REMARK    3  A    between atoms: C_5  and  C_6
REMARK    4  A    between atoms: N_11  and  C_12
REMARK    5  A    between atoms: C_12  and  C_13
REMARK    6  A    between atoms: C_17  and  C_18
REMARK                            x       y       z     vdW  Elec       q    Type
REMARK                         _______ _______ _______ _____ _____    ______ ____
ROOT
ATOM      1  C   UNL     1      45.448   3.367   8.863  0.00  0.00    +0.000 A 
ATOM      2  C   UNL     1      44.732   2.588   9.725  0.00  0.00    +0.000 A 
ATOM      3  C   UNL     1      44.244   3.268  10.817  0.00  0.00    +0.000 A 
ATOM      4  N   UNL     1      44.440   4.593  11.050  0.00  0.00    +0.000 NA
ATOM      5  C   UNL     1      45.132   5.249  10.120  0.00  0.00    +0.000 A 
ATOM      6  N   UNL     1      45.323   6.608  10.195  0.00  0.00    +0.000 N 
ATOM      7  N   UNL     1      45.646   4.680   9.036  0.00  0.00    +0.000 NA
ATOM      8  H   UNL     1      46.000   6.889   9.497  0.00  0.00    +0.000 HD
ENDROOT
BRANCH   3   9
ATOM      9  C   UNL     1      43.430   2.542  11.840  0.00  0.00    +0.000 C 
ATOM     10  N   UNL     1      43.490   3.050  13.113  0.00  0.00    +0.000 N 
ATOM     11  O   UNL     1      42.752   1.561  11.569  0.00  0.00    +0.000 OA
ATOM     12  H   UNL     1      44.023   3.889  13.299  0.00  0.00    +0.000 HD
ATOM     13  H   UNL     1      42.942   2.620  13.843  0.00  0.00    +0.000 HD
ENDBRANCH   3   9
BRANCH   1  15
ATOM     14  C   UNL     1      46.773   3.671   6.965  0.00  0.00    +0.000 C 
ATOM     15  O   UNL     1      46.002   2.759   7.752  0.00  0.00    +0.000 OA
ENDBRANCH   1  15
BRANCH   6  16
ATOM     16  C   UNL     1      45.370   7.272  11.475  0.00  0.00    +0.000 C 
BRANCH  16  17
ATOM     17  C   UNL     1      46.656   6.995  12.218  0.00  0.00    +0.000 A 
ATOM     18  C   UNL     1      47.885   7.419  11.714  0.00  0.00    +0.000 A 
ATOM     19  C   UNL     1      49.028   7.177  12.459  0.00  0.00    +0.000 A 
ATOM     20  N   UNL     1      49.030   6.524  13.641  0.00  0.00    +0.000 NA
ATOM     21  C   UNL     1      47.845   6.077  14.118  0.00  0.00    +0.000 A 
ATOM     22  C   UNL     1      46.645   6.317  13.440  0.00  0.00    +0.000 A 
BRANCH  21  23
ATOM     23  C   UNL     1      47.905   5.298  15.365  0.00  0.00    +0.000 A 
ATOM     24  C   UNL     1      48.727   5.667  16.442  0.00  0.00    +0.000 A 
ATOM     25  C   UNL     1      48.770   4.880  17.594  0.00  0.00    +0.000 A 
ATOM     26  C   UNL     1      47.988   3.741  17.641  0.00  0.00    +0.000 A 
ATOM     27  F   UNL     1      48.031   2.979  18.743  0.00  0.00    +0.000 F 
ATOM     28  N   UNL     1      47.183   3.339  16.643  0.00  0.00    +0.000 NA
ATOM     29  C   UNL     1      47.170   4.123  15.537  0.00  0.00    +0.000 A 
ENDBRANCH  21  23
ENDBRANCH  16  17
ENDBRANCH   6  16
TORSDOF 5
ENDMDL
MODEL 6
REMARK VINA RESULT:    -7.605      3.242      3.753
REMARK INTER + INTRA:         -10.382
REMARK INTER:                  -9.668
REMARK INTRA:                  -0.713
REMARK UNBOUND:                -0.554
REMARK  Name = 
REMARK  6 active torsions:
REMARK  status: ('A' for Active; 'I' for Inactive)
REMARK    1  A    between atoms: C_1  and  O_2
REMARK    2  A    between atoms: O_2  and  C_3
REMARK    3  A    between atoms: C_5  and  C_6
REMARK    4  A    between atoms: N_11  and  C_12
REMARK    5  A    between atoms: C_12  and  C_13
REMARK    6  A    between atoms: C_17  and  C_18
REMARK                            x       y       z     vdW  Elec       q    Type
REMARK                         _______ _______ _______ _____ _____    ______ ____
ROOT
ATOM      1  C   UNL     1      49.983   7.904  13.630  0.00  0.00    +0.000 A 
ATOM      2  C   UNL     1      49.963   7.229  14.816  0.00  0.00    +0.000 A 
ATOM      3  C   UNL     1      48.771   6.593  15.077  0.00  0.00    +0.000 A 
ATOM      4  N   UNL     1      47.689   6.618  14.254  0.00  0.00    +0.000 NA
ATOM      5  C   UNL     1      47.844   7.288  13.113  0.00  0.00    +0.000 A 
ATOM      6  N   UNL     1      46.855   7.314  12.159  0.00  0.00    +0.000 N 
ATOM      7  N   UNL     1      48.953   7.935  12.775  0.00  0.00    +0.000 NA
ATOM      8  H   UNL     1      47.092   7.998  11.451  0.00  0.00    +0.000 HD
ENDROOT
BRANCH   3   9
ATOM      9  C   UNL     1      48.611   5.805  16.338  0.00  0.00    +0.000 C 
ATOM     10  N   UNL     1      47.933   6.437  17.348  0.00  0.00    +0.000 N 
ATOM     11  O   UNL     1      49.049   4.670  16.466  0.00  0.00    +0.000 OA
ATOM     12  H   UNL     1      47.541   7.358  17.199  0.00  0.00    +0.000 HD
ATOM     13  H   UNL     1      47.769   5.947  18.215  0.00  0.00    +0.000 HD
ENDBRANCH   3   9
BRANCH   1  15
ATOM     14  C   UNL     1      51.174   8.946  11.914  0.00  0.00    +0.000 C 
ATOM     15  O   UNL     1      51.132   8.596  13.300  0.00  0.00    +0.000 OA
ENDBRANCH   1  15
BRANCH   6  16
ATOM     16  C   UNL     1      45.468   7.199  12.537  0.00  0.00    +0.000 C 
BRANCH  16  17
ATOM     17  C   UNL     1      44.778   6.047  11.845  0.00  0.00    +0.000 A 
ATOM     18  C   UNL     1      43.484   5.665  12.197  0.00  0.00    +0.000 A 
ATOM     19  C   UNL     1      42.883   4.630  11.500  0.00  0.00    +0.000 A 
ATOM     20  N   UNL     1      43.488   3.942  10.508  0.00  0.00    +0.000 NA
ATOM     21  C   UNL     1      44.758   4.283  10.185  0.00  0.00    +0.000 A 
ATOM     22  C   UNL     1      45.416   5.342  10.820  0.00  0.00    +0.000 A 
BRANCH  21  23
ATOM     23  C   UNL     1      45.407   3.451   9.160  0.00  0.00    +0.000 A 
ATOM     24  C   UNL     1      46.025   4.004   8.026  0.00  0.00    +0.000 A 
ATOM     25  C   UNL     1      46.604   3.172   7.066  0.00  0.00    +0.000 A 
ATOM     26  C   UNL     1      46.552   1.804   7.266  0.00  0.00    +0.000 A 
ATOM     27  F   UNL     1      47.102   1.002   6.343  0.00  0.00    +0.000 F 
ATOM     28  N   UNL     1      45.976   1.220   8.329  0.00  0.00    +0.000 NA
ATOM     29  C   UNL     1      45.418   2.057   9.239  0.00  0.00    +0.000 A 
ENDBRANCH  21  23
ENDBRANCH  16  17
ENDBRANCH   6  16
TORSDOF 5
ENDMDL
MODEL 7
REMARK VINA RESULT:    -7.242      3.135      4.694
REMARK INTER + INTRA:          -9.912
REMARK INTER:                  -9.164
REMARK INTRA:                  -0.748
REMARK UNBOUND:                -0.554
REMARK  Name = 
REMARK  6 active torsions:
REMARK  status: ('A' for Active; 'I' for Inactive)
REMARK    1  A    between atoms: C_1  and  O_2
REMARK    2  A    between atoms: O_2  and  C_3
REMARK    3  A    between atoms: C_5  and  C_6
REMARK    4  A    between atoms: N_11  and  C_12
REMARK    5  A    between atoms: C_12  and  C_13
REMARK    6  A    between atoms: C_17  and  C_18
REMARK                            x       y       z     vdW  Elec       q    Type
REMARK                         _______ _______ _______ _____ _____    ______ ____
ROOT
ATOM      1  C   UNL     1      48.037   6.564  18.623  0.00  0.00    +0.000 A 
ATOM      2  C   UNL     1      47.796   5.227  18.489  0.00  0.00    +0.000 A 
ATOM      3  C   UNL     1      48.153   4.717  17.263  0.00  0.00    +0.000 A 
ATOM      4  N   UNL     1      48.695   5.447  16.252  0.00  0.00    +0.000 NA
ATOM      5  C   UNL     1      48.907   6.734  16.517  0.00  0.00    +0.000 A 
ATOM      6  N   UNL     1      49.529   7.559  15.610  0.00  0.00    +0.000 N 
ATOM      7  N   UNL     1      48.593   7.319  17.667  0.00  0.00    +0.000 NA
ATOM      8  H   UNL     1      49.451   8.519  15.922  0.00  0.00    +0.000 HD
ENDROOT
BRANCH   3   9
ATOM      9  C   UNL     1      47.955   3.261  16.980  0.00  0.00    +0.000 C 
ATOM     10  N   UNL     1      46.956   2.650  17.693  0.00  0.00    +0.000 N 
ATOM     11  O   UNL     1      48.632   2.650  16.165  0.00  0.00    +0.000 OA
ATOM     12  H   UNL     1      46.381   3.191  18.327  0.00  0.00    +0.000 HD
ATOM     13  H   UNL     1      46.756   1.675  17.527  0.00  0.00    +0.000 HD
ENDBRANCH   3   9
BRANCH   1  15
ATOM     14  C   UNL     1      47.659   8.594  19.712  0.00  0.00    +0.000 C 
ATOM     15  O   UNL     1      47.682   7.168  19.815  0.00  0.00    +0.000 OA
ENDBRANCH   1  15
BRANCH   6  16
ATOM     16  C   UNL     1      49.418   7.307  14.194  0.00  0.00    +0.000 C 
BRANCH  16  17
ATOM     17  C   UNL     1      47.999   7.449  13.696  0.00  0.00    +0.000 A 
ATOM     18  C   UNL     1      47.380   8.697  13.630  0.00  0.00    +0.000 A 
ATOM     19  C   UNL     1      46.093   8.775  13.123  0.00  0.00    +0.000 A 
ATOM     20  N   UNL     1      45.382   7.703  12.711  0.00  0.00    +0.000 NA
ATOM     21  C   UNL     1      45.963   6.484  12.807  0.00  0.00    +0.000 A 
ATOM     22  C   UNL     1      47.273   6.332  13.273  0.00  0.00    +0.000 A 
BRANCH  21  23
ATOM     23  C   UNL     1      45.122   5.338  12.428  0.00  0.00    +0.000 A 
ATOM     24  C   UNL     1      43.972   5.480  11.634  0.00  0.00    +0.000 A 
ATOM     25  C   UNL     1      43.191   4.366  11.324  0.00  0.00    +0.000 A 
ATOM     26  C   UNL     1      43.580   3.134  11.815  0.00  0.00    +0.000 A 
ATOM     27  F   UNL     1      42.829   2.062  11.524  0.00  0.00    +0.000 F 
ATOM     28  N   UNL     1      44.669   2.938  12.577  0.00  0.00    +0.000 NA
ATOM     29  C   UNL     1      45.401   4.042  12.865  0.00  0.00    +0.000 A 
ENDBRANCH  21  23
ENDBRANCH  16  17
ENDBRANCH   6  16
TORSDOF 5
ENDMDL
MODEL 8
REMARK VINA RESULT:    -6.702      4.485      9.146
REMARK INTER + INTRA:          -9.215
REMARK INTER:                  -8.659
REMARK INTRA:                  -0.555
REMARK UNBOUND:                -0.554
REMARK  Name = 
REMARK  6 active torsions:
REMARK  status: ('A' for Active; 'I' for Inactive)
REMARK    1  A    between atoms: C_1  and  O_2
REMARK    2  A    between atoms: O_2  and  C_3
REMARK    3  A    between atoms: C_5  and  C_6
REMARK    4  A    between atoms: N_11  and  C_12
REMARK    5  A    between atoms: C_12  and  C_13
REMARK    6  A    between atoms: C_17  and  C_18
REMARK                            x       y       z     vdW  Elec       q    Type
REMARK                         _______ _______ _______ _____ _____    ______ ____
ROOT
ATOM      1  C   UNL     1      45.511   6.605  11.903  0.00  0.00    +0.000 A 
ATOM      2  C   UNL     1      44.855   5.649  11.184  0.00  0.00    +0.000 A 
ATOM      3  C   UNL     1      44.852   4.408  11.779  0.00  0.00    +0.000 A 
ATOM      4  N   UNL     1      45.442   4.123  12.970  0.00  0.00    +0.000 NA
ATOM      5  C   UNL     1      46.026   5.148  13.587  0.00  0.00    +0.000 A 
ATOM      6  N   UNL     1      46.580   5.009  14.837  0.00  0.00    +0.000 N 
ATOM      7  N   UNL     1      46.084   6.379  13.093  0.00  0.00    +0.000 NA
ATOM      8  H   UNL     1      47.110   5.842  15.062  0.00  0.00    +0.000 HD
ENDROOT
BRANCH   3   9
ATOM      9  C   UNL     1      44.159   3.265  11.107  0.00  0.00    +0.000 C 
ATOM     10  N   UNL     1      44.942   2.504  10.277  0.00  0.00    +0.000 N 
ATOM     11  O   UNL     1      42.974   3.017  11.282  0.00  0.00    +0.000 OA
ATOM     12  H   UNL     1      45.929   2.704  10.186  0.00  0.00    +0.000 HD
ATOM     13  H   UNL     1      44.538   1.702   9.815  0.00  0.00    +0.000 HD
ENDBRANCH   3   9
BRANCH   1  15
ATOM     14  C   UNL     1      45.034   8.865  12.239  0.00  0.00    +0.000 C 
ATOM     15  O   UNL     1      45.588   7.876  11.367  0.00  0.00    +0.000 OA
ENDBRANCH   1  15
BRANCH   6  16
ATOM     16  C   UNL     1      47.119   3.741  15.263  0.00  0.00    +0.000 C 
BRANCH  16  17
ATOM     17  C   UNL     1      47.979   3.869  16.499  0.00  0.00    +0.000 A 
ATOM     18  C   UNL     1      47.581   4.663  17.574  0.00  0.00    +0.000 A 
ATOM     19  C   UNL     1      48.387   4.709  18.700  0.00  0.00    +0.000 A 
ATOM     20  N   UNL     1      49.560   4.049  18.812  0.00  0.00    +0.000 NA
ATOM     21  C   UNL     1      49.970   3.305  17.758  0.00  0.00    +0.000 A 
ATOM     22  C   UNL     1      49.191   3.181  16.602  0.00  0.00    +0.000 A 
BRANCH  21  23
ATOM     23  C   UNL     1      51.292   2.673  17.890  0.00  0.00    +0.000 A 
ATOM     24  C   UNL     1      51.549   1.368  17.440  0.00  0.00    +0.000 A 
ATOM     25  C   UNL     1      52.813   0.802  17.613  0.00  0.00    +0.000 A 
ATOM     26  C   UNL     1      53.792   1.557  18.232  0.00  0.00    +0.000 A 
ATOM     27  F   UNL     1      55.005   1.014  18.405  0.00  0.00    +0.000 F 
ATOM     28  N   UNL     1      53.604   2.809  18.682  0.00  0.00    +0.000 NA
ATOM     29  C   UNL     1      52.364   3.326  18.503  0.00  0.00    +0.000 A 
ENDBRANCH  21  23
ENDBRANCH  16  17
ENDBRANCH   6  16
TORSDOF 5
ENDMDL
MODEL 9
REMARK VINA RESULT:    -6.659      3.156      3.781
REMARK INTER + INTRA:          -9.159
REMARK INTER:                  -8.565
REMARK INTRA:                  -0.594
REMARK UNBOUND:                -0.554
REMARK  Name = 
REMARK  6 active torsions:
REMARK  status: ('A' for Active; 'I' for Inactive)
REMARK    1  A    between atoms: C_1  and  O_2
REMARK    2  A    between atoms: O_2  and  C_3
REMARK    3  A    between atoms: C_5  and  C_6
REMARK    4  A    between atoms: N_11  and  C_12
REMARK    5  A    between atoms: C_12  and  C_13
REMARK    6  A    between atoms: C_17  and  C_18
REMARK                            x       y       z     vdW  Elec       q    Type
REMARK                         _______ _______ _______ _____ _____    ______ ____
ROOT
ATOM      1  C   UNL     1      49.532   4.772  17.525  0.00  0.00    +0.000 A 
ATOM      2  C   UNL     1      50.859   5.090  17.506  0.00  0.00    +0.000 A 
ATOM      3  C   UNL     1      51.179   6.094  16.621  0.00  0.00    +0.000 A 
ATOM      4  N   UNL     1      50.283   6.730  15.821  0.00  0.00    +0.000 NA
ATOM      5  C   UNL     1      49.014   6.349  15.954  0.00  0.00    +0.000 A 
ATOM      6  N   UNL     1      48.002   6.976  15.267  0.00  0.00    +0.000 N 
ATOM      7  N   UNL     1      48.608   5.389  16.777  0.00  0.00    +0.000 NA
ATOM      8  H   UNL     1      47.147   6.445  15.374  0.00  0.00    +0.000 HD
ENDROOT
BRANCH   3   9
ATOM      9  C   UNL     1      52.598   6.552  16.502  0.00  0.00    +0.000 C 
ATOM     10  N   UNL     1      53.536   5.729  17.070  0.00  0.00    +0.000 N 
ATOM     11  O   UNL     1      52.910   7.589  15.934  0.00  0.00    +0.000 OA
ATOM     12  H   UNL     1      53.254   4.855  17.494  0.00  0.00    +0.000 HD
ATOM     13  H   UNL     1      54.513   5.971  17.000  0.00  0.00    +0.000 HD
ENDBRANCH   3   9
BRANCH   1  15
ATOM     14  C   UNL     1      47.923   3.125  17.909  0.00  0.00    +0.000 C 
ATOM     15  O   UNL     1      49.124   3.754  18.365  0.00  0.00    +0.000 OA
ENDBRANCH   1  15
BRANCH   6  16
ATOM     16  C   UNL     1      48.255   7.582  13.983  0.00  0.00    +0.000 C 
BRANCH  16  17
ATOM     17  C   UNL     1      47.056   7.506  13.067  0.00  0.00    +0.000 A 
ATOM     18  C   UNL     1      46.160   8.571  12.963  0.00  0.00    +0.000 A 
ATOM     19  C   UNL     1      45.103   8.465  12.075  0.00  0.00    +0.000 A 
ATOM     20  N   UNL     1      44.865   7.373  11.315  0.00  0.00    +0.000 NA
ATOM     21  C   UNL     1      45.709   6.322  11.438  0.00  0.00    +0.000 A 
ATOM     22  C   UNL     1      46.820   6.371  12.287  0.00  0.00    +0.000 A 
BRANCH  21  23
ATOM     23  C   UNL     1      45.364   5.124  10.657  0.00  0.00    +0.000 A 
ATOM     24  C   UNL     1      45.649   5.013   9.287  0.00  0.00    +0.000 A 
ATOM     25  C   UNL     1      45.277   3.867   8.583  0.00  0.00    +0.000 A 
ATOM     26  C   UNL     1      44.628   2.857   9.269  0.00  0.00    +0.000 A 
ATOM     27  F   UNL     1      44.264   1.757   8.594  0.00  0.00    +0.000 F 
ATOM     28  N   UNL     1      44.330   2.907  10.578  0.00  0.00    +0.000 NA
ATOM     29  C   UNL     1      44.700   4.037  11.229  0.00  0.00    +0.000 A 
ENDBRANCH  21  23
ENDBRANCH  16  17
ENDBRANCH   6  16
TORSDOF 5
ENDMDL
