MODEL 1
REMARK VINA RESULT:    -9.152      0.000      0.000
REMARK INTER + INTRA:         -13.113
REMARK INTER:                 -12.363
REMARK INTRA:                  -0.751
REMARK UNBOUND:                -0.751
REMARK  Name = 
REMARK  7 active torsions:
REMARK  status: ('A' for Active; 'I' for Inactive)
REMARK    1  A    between atoms: C_1  and  C_2
REMARK    2  A    between atoms: C_2  and  C_3
REMARK    3  A    between atoms: C_2  and  C_14
REMARK    4  A    between atoms: C_3  and  N_4
REMARK    5  A    between atoms: C_8  and  C_9
REMARK    6  A    between atoms: C_19  and  O_20
REMARK    7  A    between atoms: O_20  and  C_21
REMARK                            x       y       z     vdW  Elec       q    Type
REMARK                         _______ _______ _______ _____ _____    ______ ____
ROOT
ATOM      1  C   UNL     1      42.746   5.665  12.148  0.00  0.00    +0.000 C 
ATOM      2  C   UNL     1      43.688   4.497  12.460  0.00  0.00    +0.000 C 
ENDROOT
BRANCH   2   3
ATOM      3  C   UNL     1      45.100   5.021  12.697  0.00  0.00    +0.000 A 
ATOM      4  C   UNL     1      45.660   6.033  11.904  0.00  0.00    +0.000 A 
ATOM      5  C   UNL     1      46.929   6.530  12.197  0.00  0.00    +0.000 A 
ATOM      6  F   UNL     1      47.441   7.505  11.434  0.00  0.00    +0.000 F 
ATOM      7  C   UNL     1      47.659   6.047  13.274  0.00  0.00    +0.000 A 
ATOM      8  C   UNL     1      47.118   5.042  14.070  0.00  0.00    +0.000 A 
ATOM      9  C   UNL     1      45.858   4.513  13.767  0.00  0.00    +0.000 A 
BRANCH   8  10
ATOM     10  O   UNL     1      47.890   4.630  15.129  0.00  0.00    +0.000 OA
BRANCH  10  11
ATOM     11  C   UNL     1      47.234   3.942  16.222  0.00  0.00    +0.000 C 
ATOM     12  C   UNL     1      47.183   4.651  17.592  0.00  0.00    +0.000 C 
ATOM     13  N   UNL     1      47.712   3.448  18.250  0.00  0.00    +0.000 NA
ATOM     14  C   UNL     1      48.080   2.874  16.945  0.00  0.00    +0.000 C 
ATOM     15  H   UNL     1      47.012   2.909  18.759  0.00  0.00    +0.000 HD
ENDBRANCH  10  11
ENDBRANCH   8  10
ENDBRANCH   2   3
BRANCH   2  16
ATOM     16  C   UNL     1      43.656   3.404  11.372  0.00  0.00    +0.000 C 
BRANCH  16  17
ATOM     17  N   UNL     1      43.786   3.982  10.036  0.00  0.00    +0.000 N 
ATOM     18  C   UNL     1      44.779   3.507   9.195  0.00  0.00    +0.000 A 
ATOM     19  C   UNL     1      45.147   2.168   9.138  0.00  0.00    +0.000 A 
ATOM     20  C   UNL     1      46.121   1.758   8.227  0.00  0.00    +0.000 A 
ATOM     21  C   UNL     1      46.691   2.683   7.357  0.00  0.00    +0.000 A 
ATOM     22  C   UNL     1      46.261   3.995   7.472  0.00  0.00    +0.000 A 
ATOM     23  N   UNL     1      45.328   4.419   8.370  0.00  0.00    +0.000 NA
ATOM     24  H   UNL     1      43.835   4.998   9.986  0.00  0.00    +0.000 HD
BRANCH  21  25
ATOM     25  C   UNL     1      47.701   2.209   6.380  0.00  0.00    +0.000 C 
ATOM     26  N   UNL     1      47.936   2.940   5.247  0.00  0.00    +0.000 N 
ATOM     27  O   UNL     1      48.323   1.169   6.570  0.00  0.00    +0.000 OA
ATOM     28  H   UNL     1      47.450   3.776   4.971  0.00  0.00    +0.000 HD
ATOM     29  H   UNL     1      48.617   2.557   4.602  0.00  0.00    +0.000 HD
ENDBRANCH  21  25
ENDBRANCH  16  17
ENDBRANCH   2  16
TORSDOF 6
ENDMDL
MODEL 2
REMARK VINA RESULT:    -8.223      2.474      3.238
REMARK INTER + INTRA:         -11.858
REMARK INTER:                 -10.946
REMARK INTRA:                  -0.912
REMARK UNBOUND:                -0.751
REMARK  Name = 
REMARK  7 active torsions:
REMARK  status: ('A' for Active; 'I' for Inactive)
REMARK    1  A    between atoms: C_1  and  C_2
REMARK    2  A    between atoms: C_2  and  C_3
REMARK    3  A    between atoms: C_2  and  C_14
REMARK    4  A    between atoms: C_3  and  N_4
REMARK    5  A    between atoms: C_8  and  C_9
REMARK    6  A    between atoms: C_19  and  O_20
REMARK    7  A    between atoms: O_20  and  C_21
REMARK                            x       y       z     vdW  Elec       q    Type
REMARK                         _______ _______ _______ _____ _____    ______ ____
ROOT
ATOM      1  C   UNL     1      42.752   6.097  11.626  0.00  0.00    +0.000 C 
ATOM      2  C   UNL     1      43.323   4.788  12.182  0.00  0.00    +0.000 C 
ENDROOT
BRANCH   2   3
ATOM      3  C   UNL     1      44.710   5.035  12.763  0.00  0.00    +0.000 A 
ATOM      4  C   UNL     1      45.472   4.004  13.332  0.00  0.00    +0.000 A 
ATOM      5  C   UNL     1      46.763   4.259  13.791  0.00  0.00    +0.000 A 
ATOM      6  F   UNL     1      47.478   3.258  14.321  0.00  0.00    +0.000 F 
ATOM      7  C   UNL     1      47.325   5.523  13.690  0.00  0.00    +0.000 A 
ATOM      8  C   UNL     1      46.582   6.558  13.128  0.00  0.00    +0.000 A 
ATOM      9  C   UNL     1      45.273   6.322  12.693  0.00  0.00    +0.000 A 
BRANCH   8  10
ATOM     10  O   UNL     1      47.212   7.776  13.044  0.00  0.00    +0.000 OA
BRANCH  10  11
ATOM     11  C   UNL     1      48.660   7.793  13.008  0.00  0.00    +0.000 C 
ATOM     12  C   UNL     1      49.384   8.955  13.719  0.00  0.00    +0.000 C 
ATOM     13  N   UNL     1      50.180   9.217  12.511  0.00  0.00    +0.000 NA
ATOM     14  C   UNL     1      49.292   8.352  11.717  0.00  0.00    +0.000 C 
ATOM     15  H   UNL     1      51.143   8.884  12.566  0.00  0.00    +0.000 HD
ENDBRANCH  10  11
ENDBRANCH   8  10
ENDBRANCH   2   3
BRANCH   2  16
ATOM     16  C   UNL     1      43.332   3.655  11.135  0.00  0.00    +0.000 C 
BRANCH  16  17
ATOM     17  N   UNL     1      43.599   4.172   9.796  0.00  0.00    +0.000 N 
ATOM     18  C   UNL     1      44.646   3.634   9.065  0.00  0.00    +0.000 A 
ATOM     19  C   UNL     1      44.972   2.282   9.094  0.00  0.00    +0.000 A 
ATOM     20  C   UNL     1      46.008   1.806   8.289  0.00  0.00    +0.000 A 
ATOM     21  C   UNL     1      46.684   2.677   7.439  0.00  0.00    +0.000 A 
ATOM     22  C   UNL     1      46.290   4.005   7.465  0.00  0.00    +0.000 A 
ATOM     23  N   UNL     1      45.296   4.494   8.259  0.00  0.00    +0.000 NA
ATOM     24  H   UNL     1      43.687   5.184   9.710  0.00  0.00    +0.000 HD
BRANCH  21  25
ATOM     25  C   UNL     1      47.760   2.133   6.576  0.00  0.00    +0.000 C 
ATOM     26  N   UNL     1      48.166   2.843   5.479  0.00  0.00    +0.000 N 
ATOM     27  O   UNL     1      48.284   1.053   6.827  0.00  0.00    +0.000 OA
ATOM     28  H   UNL     1      47.771   3.709   5.156  0.00  0.00    +0.000 HD
ATOM     29  H   UNL     1      48.886   2.413   4.911  0.00  0.00    +0.000 HD
ENDBRANCH  21  25
ENDBRANCH  16  17
ENDBRANCH   2  16
TORSDOF 6
ENDMDL
MODEL 3
REMARK VINA RESULT:    -8.130      2.059      2.376
REMARK INTER + INTRA:         -11.733
REMARK INTER:                 -11.205
REMARK INTRA:                  -0.528
REMARK UNBOUND:                -0.751
REMARK  Name = 
REMARK  7 active torsions:
REMARK  status: ('A' for Active; 'I' for Inactive)
REMARK    1  A    between atoms: C_1  and  C_2
REMARK    2  A    between atoms: C_2  and  C_3
REMARK    3  A    between atoms: C_2  and  C_14
REMARK    4  A    between atoms: C_3  and  N_4
REMARK    5  A    between atoms: C_8  and  C_9
REMARK    6  A    between atoms: C_19  and  O_20
REMARK    7  A    between atoms: O_20  and  C_21
REMARK                            x       y       z     vdW  Elec       q    Type
REMARK                         _______ _______ _______ _____ _____    ______ ____
ROOT
ATOM      1  C   UNL     1      44.052   3.696  13.075  0.00  0.00    +0.000 C 
ATOM      2  C   UNL     1      44.578   4.501  11.882  0.00  0.00    +0.000 C 
ENDROOT
BRANCH   2   3
ATOM      3  C   UNL     1      45.436   5.660  12.378  0.00  0.00    +0.000 A 
ATOM      4  C   UNL     1      44.967   6.982  12.384  0.00  0.00    +0.000 A 
ATOM      5  C   UNL     1      45.759   8.002  12.908  0.00  0.00    +0.000 A 
ATOM      6  F   UNL     1      45.288   9.257  12.915  0.00  0.00    +0.000 F 
ATOM      7  C   UNL     1      47.012   7.739  13.440  0.00  0.00    +0.000 A 
ATOM      8  C   UNL     1      47.493   6.432  13.441  0.00  0.00    +0.000 A 
ATOM      9  C   UNL     1      46.721   5.404  12.889  0.00  0.00    +0.000 A 
BRANCH   8  10
ATOM     10  O   UNL     1      48.733   6.246  14.003  0.00  0.00    +0.000 OA
BRANCH  10  11
ATOM     11  C   UNL     1      49.141   7.142  15.065  0.00  0.00    +0.000 C 
ATOM     12  C   UNL     1      50.653   7.304  15.328  0.00  0.00    +0.000 C 
ATOM     13  N   UNL     1      50.445   7.041  16.760  0.00  0.00    +0.000 NA
ATOM     14  C   UNL     1      49.080   6.561  16.492  0.00  0.00    +0.000 C 
ATOM     15  H   UNL     1      50.485   7.875  17.347  0.00  0.00    +0.000 HD
ENDBRANCH  10  11
ENDBRANCH   8  10
ENDBRANCH   2   3
BRANCH   2  16
ATOM     16  C   UNL     1      43.449   4.982  10.947  0.00  0.00    +0.000 C 
BRANCH  16  17
ATOM     17  N   UNL     1      43.902   5.050   9.560  0.00  0.00    +0.000 N 
ATOM     18  C   UNL     1      44.686   4.023   9.060  0.00  0.00    +0.000 A 
ATOM     19  C   UNL     1      44.493   2.689   9.400  0.00  0.00    +0.000 A 
ATOM     20  C   UNL     1      45.290   1.705   8.814  0.00  0.00    +0.000 A 
ATOM     21  C   UNL     1      46.248   2.060   7.868  0.00  0.00    +0.000 A 
ATOM     22  C   UNL     1      46.368   3.410   7.579  0.00  0.00    +0.000 A 
ATOM     23  N   UNL     1      45.615   4.387   8.156  0.00  0.00    +0.000 NA
ATOM     24  H   UNL     1      44.355   5.916   9.274  0.00  0.00    +0.000 HD
BRANCH  21  25
ATOM     25  C   UNL     1      47.058   0.988   7.242  0.00  0.00    +0.000 C 
ATOM     26  N   UNL     1      46.899  -0.306   7.658  0.00  0.00    +0.000 N 
ATOM     27  O   UNL     1      47.872   1.245   6.362  0.00  0.00    +0.000 OA
ATOM     28  H   UNL     1      46.298  -0.618   8.402  0.00  0.00    +0.000 HD
ATOM     29  H   UNL     1      47.495  -0.994   7.214  0.00  0.00    +0.000 HD
ENDBRANCH  21  25
ENDBRANCH  16  17
ENDBRANCH   2  16
TORSDOF 6
ENDMDL
MODEL 4
REMARK VINA RESULT:    -7.767      2.467      8.193
REMARK INTER + INTRA:         -11.242
REMARK INTER:                 -10.855
REMARK INTRA:                  -0.387
REMARK UNBOUND:                -0.751
REMARK  Name = 
REMARK  7 active torsions:
REMARK  status: ('A' for Active; 'I' for Inactive)
REMARK    1  A    between atoms: C_1  and  C_2
REMARK    2  A    between atoms: C_2  and  C_3
REMARK    3  A    between atoms: C_2  and  C_14
REMARK    4  A    between atoms: C_3  and  N_4
REMARK    5  A    between atoms: C_8  and  C_9
REMARK    6  A    between atoms: C_19  and  O_20
REMARK    7  A    between atoms: O_20  and  C_21
REMARK                            x       y       z     vdW  Elec       q    Type
REMARK                         _______ _______ _______ _____ _____    ______ ____
ROOT
ATOM      1  C   UNL     1      44.369   6.984  11.647  0.00  0.00    +0.000 C 
ATOM      2  C   UNL     1      45.632   6.303  11.109  0.00  0.00    +0.000 C 
ENDROOT
BRANCH   2   3
ATOM      3  C   UNL     1      45.264   4.985  10.438  0.00  0.00    +0.000 A 
ATOM      4  C   UNL     1      44.466   4.024  11.075  0.00  0.00    +0.000 A 
ATOM      5  C   UNL     1      44.098   2.862  10.400  0.00  0.00    +0.000 A 
ATOM      6  F   UNL     1      43.326   1.961  11.024  0.00  0.00    +0.000 F 
ATOM      7  C   UNL     1      44.497   2.632   9.092  0.00  0.00    +0.000 A 
ATOM      8  C   UNL     1      45.289   3.576   8.444  0.00  0.00    +0.000 A 
ATOM      9  C   UNL     1      45.693   4.732   9.122  0.00  0.00    +0.000 A 
BRANCH   8  10
ATOM     10  O   UNL     1      45.628   3.290   7.144  0.00  0.00    +0.000 OA
BRANCH  10  11
ATOM     11  C   UNL     1      47.033   3.138   6.825  0.00  0.00    +0.000 C 
ATOM     12  C   UNL     1      47.410   2.837   5.360  0.00  0.00    +0.000 C 
ATOM     13  N   UNL     1      48.240   1.702   5.792  0.00  0.00    +0.000 NA
ATOM     14  C   UNL     1      47.645   1.758   7.137  0.00  0.00    +0.000 C 
ATOM     15  H   UNL     1      49.243   1.888   5.772  0.00  0.00    +0.000 HD
ENDBRANCH  10  11
ENDBRANCH   8  10
ENDBRANCH   2   3
BRANCH   2  16
ATOM     16  C   UNL     1      46.710   6.113  12.196  0.00  0.00    +0.000 C 
BRANCH  16  17
ATOM     17  N   UNL     1      46.177   5.397  13.351  0.00  0.00    +0.000 N 
ATOM     18  C   UNL     1      47.001   5.180  14.444  0.00  0.00    +0.000 A 
ATOM     19  C   UNL     1      47.930   6.114  14.889  0.00  0.00    +0.000 A 
ATOM     20  C   UNL     1      48.688   5.845  16.029  0.00  0.00    +0.000 A 
ATOM     21  C   UNL     1      48.485   4.661  16.734  0.00  0.00    +0.000 A 
ATOM     22  C   UNL     1      47.533   3.790  16.229  0.00  0.00    +0.000 A 
ATOM     23  N   UNL     1      46.799   4.025  15.106  0.00  0.00    +0.000 NA
ATOM     24  H   UNL     1      45.721   4.506  13.161  0.00  0.00    +0.000 HD
BRANCH  21  25
ATOM     25  C   UNL     1      49.285   4.419  17.958  0.00  0.00    +0.000 C 
ATOM     26  N   UNL     1      49.375   3.151  18.464  0.00  0.00    +0.000 N 
ATOM     27  O   UNL     1      49.861   5.341  18.527  0.00  0.00    +0.000 OA
ATOM     28  H   UNL     1      48.905   2.337  18.106  0.00  0.00    +0.000 HD
ATOM     29  H   UNL     1      49.914   3.047  19.316  0.00  0.00    +0.000 HD
ENDBRANCH  21  25
ENDBRANCH  16  17
ENDBRANCH   2  16
TORSDOF 6
ENDMDL
MODEL 5
REMARK VINA RESULT:    -7.304      3.597      7.509
REMARK INTER + INTRA:         -10.617
REMARK INTER:                  -9.853
REMARK INTRA:                  -0.763
REMARK UNBOUND:                -0.751
REMARK  Name = 
REMARK  7 active torsions:
REMARK  status: ('A' for Active; 'I' for Inactive)
REMARK    1  A    between atoms: C_1  and  C_2
REMARK    2  A    between atoms: C_2  and  C_3
REMARK    3  A    between atoms: C_2  and  C_14
REMARK    4  A    between atoms: C_3  and  N_4
REMARK    5  A    between atoms: C_8  and  C_9
REMARK    6  A    between atoms: C_19  and  O_20
REMARK    7  A    between atoms: O_20  and  C_21
REMARK                            x       y       z     vdW  Elec       q    Type
REMARK                         _______ _______ _______ _____ _____    ______ ____
ROOT
ATOM      1  C   UNL     1      42.517   5.952  11.623  0.00  0.00    +0.000 C 
ATOM      2  C   UNL     1      44.030   5.940  11.374  0.00  0.00    +0.000 C 
ENDROOT
BRANCH   2   3
ATOM      3  C   UNL     1      44.402   4.742  10.508  0.00  0.00    +0.000 A 
ATOM      4  C   UNL     1      43.874   3.464  10.741  0.00  0.00    +0.000 A 
ATOM      5  C   UNL     1      44.189   2.411   9.884  0.00  0.00    +0.000 A 
ATOM      6  F   UNL     1      43.665   1.200  10.118  0.00  0.00    +0.000 F 
ATOM      7  C   UNL     1      45.015   2.599   8.786  0.00  0.00    +0.000 A 
ATOM      8  C   UNL     1      45.547   3.861   8.540  0.00  0.00    +0.000 A 
ATOM      9  C   UNL     1      45.265   4.920   9.412  0.00  0.00    +0.000 A 
BRANCH   8  10
ATOM     10  O   UNL     1      46.340   3.976   7.424  0.00  0.00    +0.000 OA
BRANCH  10  11
ATOM     11  C   UNL     1      46.657   2.769   6.688  0.00  0.00    +0.000 C 
ATOM     12  C   UNL     1      48.040   2.126   6.924  0.00  0.00    +0.000 C 
ATOM     13  N   UNL     1      48.280   2.078   5.474  0.00  0.00    +0.000 NA
ATOM     14  C   UNL     1      47.138   2.976   5.238  0.00  0.00    +0.000 C 
ATOM     15  H   UNL     1      48.172   1.151   5.064  0.00  0.00    +0.000 HD
ENDBRANCH  10  11
ENDBRANCH   8  10
ENDBRANCH   2   3
BRANCH   2  16
ATOM     16  C   UNL     1      44.845   5.977  12.684  0.00  0.00    +0.000 C 
BRANCH  16  17
ATOM     17  N   UNL     1      45.310   7.330  12.980  0.00  0.00    +0.000 N 
ATOM     18  C   UNL     1      46.659   7.619  12.845  0.00  0.00    +0.000 A 
ATOM     19  C   UNL     1      47.449   7.088  11.831  0.00  0.00    +0.000 A 
ATOM     20  C   UNL     1      48.788   7.468  11.730  0.00  0.00    +0.000 A 
ATOM     21  C   UNL     1      49.314   8.401  12.619  0.00  0.00    +0.000 A 
ATOM     22  C   UNL     1      48.456   8.888  13.592  0.00  0.00    +0.000 A 
ATOM     23  N   UNL     1      47.153   8.513  13.722  0.00  0.00    +0.000 NA
ATOM     24  H   UNL     1      45.027   7.719  13.877  0.00  0.00    +0.000 HD
BRANCH  21  25
ATOM     25  C   UNL     1      50.732   8.806  12.465  0.00  0.00    +0.000 C 
ATOM     26  N   UNL     1      51.578   8.027  11.723  0.00  0.00    +0.000 N 
ATOM     27  O   UNL     1      51.158   9.824  12.999  0.00  0.00    +0.000 OA
ATOM     28  H   UNL     1      51.345   7.151  11.287  0.00  0.00    +0.000 HD
ATOM     29  H   UNL     1      52.541   8.337  11.672  0.00  0.00    +0.000 HD
ENDBRANCH  21  25
ENDBRANCH  16  17
ENDBRANCH   2  16
TORSDOF 6
ENDMDL
MODEL 6
REMARK VINA RESULT:    -7.141      2.844      8.279
REMARK INTER + INTRA:         -10.397
REMARK INTER:                 -10.021
REMARK INTRA:                  -0.376
REMARK UNBOUND:                -0.751
REMARK  Name = 
REMARK  7 active torsions:
REMARK  status: ('A' for Active; 'I' for Inactive)
REMARK    1  A    between atoms: C_1  and  C_2
REMARK    2  A    between atoms: C_2  and  C_3
REMARK    3  A    between atoms: C_2  and  C_14
REMARK    4  A    between atoms: C_3  and  N_4
REMARK    5  A    between atoms: C_8  and  C_9
REMARK    6  A    between atoms: C_19  and  O_20
REMARK    7  A    between atoms: O_20  and  C_21
REMARK                            x       y       z     vdW  Elec       q    Type
REMARK                         _______ _______ _______ _____ _____    ______ ____
ROOT
ATOM      1  C   UNL     1      47.631   5.821  13.145  0.00  0.00    +0.000 C 
ATOM      2  C   UNL     1      46.980   4.531  13.657  0.00  0.00    +0.000 C 
ENDROOT
BRANCH   2   3
ATOM      3  C   UNL     1      45.653   4.303  12.944  0.00  0.00    +0.000 A 
ATOM      4  C   UNL     1      44.503   5.042  13.258  0.00  0.00    +0.000 A 
ATOM      5  C   UNL     1      43.327   4.849  12.536  0.00  0.00    +0.000 A 
ATOM      6  F   UNL     1      42.243   5.573  12.845  0.00  0.00    +0.000 F 
ATOM      7  C   UNL     1      43.266   3.937  11.492  0.00  0.00    +0.000 A 
ATOM      8  C   UNL     1      44.398   3.196  11.166  0.00  0.00    +0.000 A 
ATOM      9  C   UNL     1      45.576   3.358  11.905  0.00  0.00    +0.000 A 
BRANCH   8  10
ATOM     10  O   UNL     1      44.268   2.328  10.109  0.00  0.00    +0.000 OA
BRANCH  10  11
ATOM     11  C   UNL     1      44.513   2.839   8.776  0.00  0.00    +0.000 C 
ATOM     12  C   UNL     1      45.902   2.586   8.151  0.00  0.00    +0.000 C 
ATOM     13  N   UNL     1      46.028   4.014   7.821  0.00  0.00    +0.000 NA
ATOM     14  C   UNL     1      44.883   4.334   8.689  0.00  0.00    +0.000 C 
ATOM     15  H   UNL     1      45.877   4.229   6.836  0.00  0.00    +0.000 HD
ENDBRANCH  10  11
ENDBRANCH   8  10
ENDBRANCH   2   3
BRANCH   2  16
ATOM     16  C   UNL     1      46.817   4.519  15.191  0.00  0.00    +0.000 C 
BRANCH  16  17
ATOM     17  N   UNL     1      47.270   3.254  15.763  0.00  0.00    +0.000 N 
ATOM     18  C   UNL     1      48.529   3.192  16.338  0.00  0.00    +0.000 A 
ATOM     19  C   UNL     1      49.077   4.236  17.076  0.00  0.00    +0.000 A 
ATOM     20  C   UNL     1      50.330   4.078  17.669  0.00  0.00    +0.000 A 
ATOM     21  C   UNL     1      51.008   2.868  17.549  0.00  0.00    +0.000 A 
ATOM     22  C   UNL     1      50.387   1.877  16.806  0.00  0.00    +0.000 A 
ATOM     23  N   UNL     1      49.175   2.018  16.201  0.00  0.00    +0.000 NA
ATOM     24  H   UNL     1      47.193   2.434  15.165  0.00  0.00    +0.000 HD
BRANCH  21  25
ATOM     25  C   UNL     1      52.324   2.723  18.217  0.00  0.00    +0.000 C 
ATOM     26  N   UNL     1      52.586   3.443  19.350  0.00  0.00    +0.000 N 
ATOM     27  O   UNL     1      53.182   1.973  17.763  0.00  0.00    +0.000 OA
ATOM     28  H   UNL     1      51.976   4.119  19.776  0.00  0.00    +0.000 HD
ATOM     29  H   UNL     1      53.510   3.324  19.750  0.00  0.00    +0.000 HD
ENDBRANCH  21  25
ENDBRANCH  16  17
ENDBRANCH   2  16
TORSDOF 6
ENDMDL
MODEL 7
REMARK VINA RESULT:    -7.084      3.350      8.595
REMARK INTER + INTRA:         -10.320
REMARK INTER:                  -9.709
REMARK INTRA:                  -0.611
REMARK UNBOUND:                -0.751
REMARK  Name = 
REMARK  7 active torsions:
REMARK  status: ('A' for Active; 'I' for Inactive)
REMARK    1  A    between atoms: C_1  and  C_2
REMARK    2  A    between atoms: C_2  and  C_3
REMARK    3  A    between atoms: C_2  and  C_14
REMARK    4  A    between atoms: C_3  and  N_4
REMARK    5  A    between atoms: C_8  and  C_9
REMARK    6  A    between atoms: C_19  and  O_20
REMARK    7  A    between atoms: O_20  and  C_21
REMARK                            x       y       z     vdW  Elec       q    Type
REMARK                         _______ _______ _______ _____ _____    ______ ____
ROOT
ATOM      1  C   UNL     1      44.585   6.282  12.532  0.00  0.00    +0.000 C 
ATOM      2  C   UNL     1      45.486   6.390  11.297  0.00  0.00    +0.000 C 
ENDROOT
BRANCH   2   3
ATOM      3  C   UNL     1      45.328   5.144  10.433  0.00  0.00    +0.000 A 
ATOM      4  C   UNL     1      44.620   4.017  10.875  0.00  0.00    +0.000 A 
ATOM      5  C   UNL     1      44.443   2.925  10.027  0.00  0.00    +0.000 A 
ATOM      6  F   UNL     1      43.753   1.863  10.465  0.00  0.00    +0.000 F 
ATOM      7  C   UNL     1      44.947   2.928   8.735  0.00  0.00    +0.000 A 
ATOM      8  C   UNL     1      45.653   4.039   8.280  0.00  0.00    +0.000 A 
ATOM      9  C   UNL     1      45.865   5.128   9.133  0.00  0.00    +0.000 A 
BRANCH   8  10
ATOM     10  O   UNL     1      46.105   3.978   6.985  0.00  0.00    +0.000 OA
BRANCH  10  11
ATOM     11  C   UNL     1      46.547   2.694   6.478  0.00  0.00    +0.000 C 
ATOM     12  C   UNL     1      47.876   2.126   7.018  0.00  0.00    +0.000 C 
ATOM     13  N   UNL     1      48.352   1.896   5.646  0.00  0.00    +0.000 NA
ATOM     14  C   UNL     1      47.259   2.724   5.110  0.00  0.00    +0.000 C 
ATOM     15  H   UNL     1      48.318   0.921   5.351  0.00  0.00    +0.000 HD
ENDBRANCH  10  11
ENDBRANCH   8  10
ENDBRANCH   2   3
BRANCH   2  16
ATOM     16  C   UNL     1      46.962   6.652  11.662  0.00  0.00    +0.000 C 
BRANCH  16  17
ATOM     17  N   UNL     1      47.290   6.101  12.974  0.00  0.00    +0.000 N 
ATOM     18  C   UNL     1      47.928   6.910  13.900  0.00  0.00    +0.000 A 
ATOM     19  C   UNL     1      47.647   8.264  14.044  0.00  0.00    +0.000 A 
ATOM     20  C   UNL     1      48.295   9.001  15.035  0.00  0.00    +0.000 A 
ATOM     21  C   UNL     1      49.190   8.372  15.896  0.00  0.00    +0.000 A 
ATOM     22  C   UNL     1      49.405   7.019  15.691  0.00  0.00    +0.000 A 
ATOM     23  N   UNL     1      48.800   6.286  14.715  0.00  0.00    +0.000 NA
ATOM     24  H   UNL     1      47.792   5.215  12.980  0.00  0.00    +0.000 HD
BRANCH  21  25
ATOM     25  C   UNL     1      49.839   9.178  16.958  0.00  0.00    +0.000 C 
ATOM     26  N   UNL     1      51.162   9.504  16.841  0.00  0.00    +0.000 N 
ATOM     27  O   UNL     1      49.207   9.551  17.941  0.00  0.00    +0.000 OA
ATOM     28  H   UNL     1      51.782   9.210  16.105  0.00  0.00    +0.000 HD
ATOM     29  H   UNL     1      51.560  10.035  17.608  0.00  0.00    +0.000 HD
ENDBRANCH  21  25
ENDBRANCH  16  17
ENDBRANCH   2  16
TORSDOF 6
ENDMDL
MODEL 8
REMARK VINA RESULT:    -6.612      3.410      8.125
REMARK INTER + INTRA:          -9.681
REMARK INTER:                  -8.907
REMARK INTRA:                  -0.774
REMARK UNBOUND:                -0.751
REMARK  Name = 
REMARK  7 active torsions:
REMARK  status: ('A' for Active; 'I' for Inactive)
REMARK    1  A    between atoms: C_1  and  C_2
REMARK    2  A    between atoms: C_2  and  C_3
REMARK    3  A    between atoms: C_2  and  C_14
REMARK    4  A    between atoms: C_3  and  N_4
REMARK    5  A    between atoms: C_8  and  C_9
REMARK    6  A    between atoms: C_19  and  O_20
REMARK    7  A    between atoms: O_20  and  C_21
REMARK                            x       y       z     vdW  Elec       q    Type
REMARK                         _______ _______ _______ _____ _____    ______ ____
ROOT
ATOM      1  C   UNL     1      49.746   7.433  13.085  0.00  0.00    +0.000 C 
ATOM      2  C   UNL     1      48.621   6.797  13.909  0.00  0.00    +0.000 C 
ENDROOT
BRANCH   2   3
ATOM      3  C   UNL     1      47.283   7.013  13.210  0.00  0.00    +0.000 A 
ATOM      4  C   UNL     1      46.607   8.240  13.262  0.00  0.00    +0.000 A 
ATOM      5  C   UNL     1      45.420   8.416  12.553  0.00  0.00    +0.000 A 
ATOM      6  F   UNL     1      44.795   9.600  12.607  0.00  0.00    +0.000 F 
ATOM      7  C   UNL     1      44.887   7.396  11.779  0.00  0.00    +0.000 A 
ATOM      8  C   UNL     1      45.546   6.171  11.716  0.00  0.00    +0.000 A 
ATOM      9  C   UNL     1      46.722   5.972  12.449  0.00  0.00    +0.000 A 
BRANCH   8  10
ATOM     10  O   UNL     1      44.970   5.216  10.913  0.00  0.00    +0.000 OA
BRANCH  10  11
ATOM     11  C   UNL     1      44.734   3.904  11.479  0.00  0.00    +0.000 C 
ATOM     12  C   UNL     1      44.135   2.820  10.558  0.00  0.00    +0.000 C 
ATOM     13  N   UNL     1      43.099   2.523  11.559  0.00  0.00    +0.000 NA
ATOM     14  C   UNL     1      43.436   3.751  12.297  0.00  0.00    +0.000 C 
ATOM     15  H   UNL     1      43.261   1.664  12.084  0.00  0.00    +0.000 HD
ENDBRANCH  10  11
ENDBRANCH   8  10
ENDBRANCH   2   3
BRANCH   2  16
ATOM     16  C   UNL     1      48.595   7.303  15.366  0.00  0.00    +0.000 C 
BRANCH  16  17
ATOM     17  N   UNL     1      48.295   6.219  16.298  0.00  0.00    +0.000 N 
ATOM     18  C   UNL     1      49.322   5.382  16.706  0.00  0.00    +0.000 A 
ATOM     19  C   UNL     1      50.614   5.834  16.948  0.00  0.00    +0.000 A 
ATOM     20  C   UNL     1      51.582   4.939  17.408  0.00  0.00    +0.000 A 
ATOM     21  C   UNL     1      51.241   3.612  17.653  0.00  0.00    +0.000 A 
ATOM     22  C   UNL     1      49.929   3.248  17.395  0.00  0.00    +0.000 A 
ATOM     23  N   UNL     1      48.976   4.100  16.926  0.00  0.00    +0.000 NA
ATOM     24  H   UNL     1      47.518   5.610  16.049  0.00  0.00    +0.000 HD
BRANCH  21  25
ATOM     25  C   UNL     1      52.286   2.695  18.170  0.00  0.00    +0.000 C 
ATOM     26  N   UNL     1      52.069   1.345  18.141  0.00  0.00    +0.000 N 
ATOM     27  O   UNL     1      53.336   3.131  18.627  0.00  0.00    +0.000 OA
ATOM     28  H   UNL     1      51.228   0.887  17.835  0.00  0.00    +0.000 HD
ATOM     29  H   UNL     1      52.805   0.767  18.529  0.00  0.00    +0.000 HD
ENDBRANCH  21  25
ENDBRANCH  16  17
ENDBRANCH   2  16
TORSDOF 6
ENDMDL
MODEL 9
REMARK VINA RESULT:    -6.469      3.091      4.587
REMARK INTER + INTRA:          -9.489
REMARK INTER:                  -8.507
REMARK INTRA:                  -0.981
REMARK UNBOUND:                -0.751
REMARK  Name = 
REMARK  7 active torsions:
REMARK  status: ('A' for Active; 'I' for Inactive)
REMARK    1  A    between atoms: C_1  and  C_2
REMARK    2  A    between atoms: C_2  and  C_3
REMARK    3  A    between atoms: C_2  and  C_14
REMARK    4  A    between atoms: C_3  and  N_4
REMARK    5  A    between atoms: C_8  and  C_9
REMARK    6  A    between atoms: C_19  and  O_20
REMARK    7  A    between atoms: O_20  and  C_21
REMARK                            x       y       z     vdW  Elec       q    Type
REMARK                         _______ _______ _______ _____ _____    ______ ____
ROOT
ATOM      1  C   UNL     1      46.589  11.349  11.775  0.00  0.00    +0.000 C 
ATOM      2  C   UNL     1      46.191   9.911  12.128  0.00  0.00    +0.000 C 
ENDROOT
BRANCH   2   3
ATOM      3  C   UNL     1      47.439   9.043  12.241  0.00  0.00    +0.000 A 
ATOM      4  C   UNL     1      48.593   9.298  11.486  0.00  0.00    +0.000 A 
ATOM      5  C   UNL     1      49.735   8.521  11.669  0.00  0.00    +0.000 A 
ATOM      6  F   UNL     1      50.831   8.788  10.945  0.00  0.00    +0.000 F 
ATOM      7  C   UNL     1      49.764   7.493  12.600  0.00  0.00    +0.000 A 
ATOM      8  C   UNL     1      48.627   7.227  13.359  0.00  0.00    +0.000 A 
ATOM      9  C   UNL     1      47.464   7.979  13.161  0.00  0.00    +0.000 A 
BRANCH   8  10
ATOM     10  O   UNL     1      48.737   6.208  14.274  0.00  0.00    +0.000 OA
BRANCH  10  11
ATOM     11  C   UNL     1      47.518   5.581  14.743  0.00  0.00    +0.000 C 
ATOM     12  C   UNL     1      47.597   4.722  16.023  0.00  0.00    +0.000 C 
ATOM     13  N   UNL     1      46.919   3.612  15.336  0.00  0.00    +0.000 NA
ATOM     14  C   UNL     1      47.126   4.268  14.035  0.00  0.00    +0.000 C 
ATOM     15  H   UNL     1      45.939   3.499  15.594  0.00  0.00    +0.000 HD
ENDBRANCH  10  11
ENDBRANCH   8  10
ENDBRANCH   2   3
BRANCH   2  16
ATOM     16  C   UNL     1      45.169   9.320  11.135  0.00  0.00    +0.000 C 
BRANCH  16  17
ATOM     17  N   UNL     1      44.197   8.471  11.819  0.00  0.00    +0.000 N 
ATOM     18  C   UNL     1      44.160   7.118  11.521  0.00  0.00    +0.000 A 
ATOM     19  C   UNL     1      45.303   6.369  11.264  0.00  0.00    +0.000 A 
ATOM     20  C   UNL     1      45.190   5.000  11.023  0.00  0.00    +0.000 A 
ATOM     21  C   UNL     1      43.941   4.386  11.074  0.00  0.00    +0.000 A 
ATOM     22  C   UNL     1      42.856   5.203  11.346  0.00  0.00    +0.000 A 
ATOM     23  N   UNL     1      42.942   6.545  11.563  0.00  0.00    +0.000 NA
ATOM     24  H   UNL     1      43.229   8.789  11.805  0.00  0.00    +0.000 HD
BRANCH  21  25
ATOM     25  C   UNL     1      43.859   2.924  10.842  0.00  0.00    +0.000 C 
ATOM     26  N   UNL     1      44.768   2.322  10.017  0.00  0.00    +0.000 N 
ATOM     27  O   UNL     1      42.984   2.250  11.375  0.00  0.00    +0.000 OA
ATOM     28  H   UNL     1      45.492   2.786   9.494  0.00  0.00    +0.000 HD
ATOM     29  H   UNL     1      44.651   1.325   9.874  0.00  0.00    +0.000 HD
ENDBRANCH  21  25
ENDBRANCH  16  17
ENDBRANCH   2  16
TORSDOF 6
ENDMDL
