MODEL 1
REMARK VINA RESULT:    -7.075      0.000      0.000
REMARK INTER + INTRA:         -10.641
REMARK INTER:                  -9.970
REMARK INTRA:                  -0.671
REMARK UNBOUND:                -0.671
REMARK  Name = 
REMARK  8 active torsions:
REMARK  status: ('A' for Active; 'I' for Inactive)
REMARK    1  A    between atoms: N_1  and  C_2
REMARK    2  A    between atoms: C_2  and  C_3
REMARK    3  A    between atoms: C_3  and  C_4
REMARK    4  A    between atoms: C_4  and  C_5
REMARK    5  A    between atoms: N_8  and  C_9
REMARK    6  A    between atoms: C_9  and  C_10
REMARK    7  A    between atoms: C_16  and  C_17
REMARK    8  A    between atoms: C_17  and  O_18
REMARK                            x       y       z     vdW  Elec       q    Type
REMARK                         _______ _______ _______ _____ _____    ______ ____
ROOT
ATOM      1  C   UNL     1      45.308   5.241  11.535  0.00  0.00    +0.000 A 
ATOM      2  N   UNL     1      46.031   6.028  10.671  0.00  0.00    +0.000 NA
ATOM      3  C   UNL     1      45.853   5.496   9.486  0.00  0.00    +0.000 A 
ATOM      4  N   UNL     1      45.035   4.399   9.541  0.00  0.00    +0.000 N 
ATOM      5  C   UNL     1      44.714   4.186  10.861  0.00  0.00    +0.000 A 
ENDROOT
BRANCH   1   6
ATOM      6  C   UNL     1      45.204   5.617  12.973  0.00  0.00    +0.000 C 
BRANCH   6   7
ATOM      7  C   UNL     1      46.567   5.642  13.673  0.00  0.00    +0.000 C 
BRANCH   7   8
ATOM      8  C   UNL     1      46.802   4.483  14.644  0.00  0.00    +0.000 C 
BRANCH   8   9
ATOM      9  N   UNL     1      47.194   3.253  13.954  0.00  0.00    +0.000 NA
ATOM     10  H   UNL     1      47.580   2.605  14.646  0.00  0.00    +0.000 HD
ATOM     11  H   UNL     1      47.975   3.466  13.330  0.00  0.00    +0.000 HD
ENDBRANCH   8   9
ENDBRANCH   7   8
ENDBRANCH   6   7
ENDBRANCH   1   6
BRANCH   4  12
ATOM     12  C   UNL     1      44.626   3.628   8.378  0.00  0.00    +0.000 C 
BRANCH  12  13
ATOM     13  C   UNL     1      45.762   2.840   7.776  0.00  0.00    +0.000 A 
ATOM     14  C   UNL     1      46.074   1.551   8.223  0.00  0.00    +0.000 A 
ATOM     15  C   UNL     1      47.117   0.867   7.617  0.00  0.00    +0.000 A 
ATOM     16  N   UNL     1      47.853   1.365   6.603  0.00  0.00    +0.000 NA
ATOM     17  C   UNL     1      47.544   2.610   6.188  0.00  0.00    +0.000 A 
ATOM     18  C   UNL     1      46.521   3.374   6.732  0.00  0.00    +0.000 A 
ENDBRANCH  12  13
ENDBRANCH   4  12
BRANCH   5  19
ATOM     19  C   UNL     1      43.866   3.080  11.359  0.00  0.00    +0.000 C 
BRANCH  19  20
ATOM     20  O   UNL     1      44.572   2.462  12.418  0.00  0.00    +0.000 OA
ATOM     21  H   UNL     1      45.318   3.062  12.633  0.00  0.00    +0.000 HD
ENDBRANCH  19  20
ENDBRANCH   5  19
TORSDOF 8
ENDMDL
MODEL 2
REMARK VINA RESULT:    -6.788      1.017      1.548
REMARK INTER + INTRA:         -10.237
REMARK INTER:                  -9.502
REMARK INTRA:                  -0.735
REMARK UNBOUND:                -0.671
REMARK  Name = 
REMARK  8 active torsions:
REMARK  status: ('A' for Active; 'I' for Inactive)
REMARK    1  A    between atoms: N_1  and  C_2
REMARK    2  A    between atoms: C_2  and  C_3
REMARK    3  A    between atoms: C_3  and  C_4
REMARK    4  A    between atoms: C_4  and  C_5
REMARK    5  A    between atoms: N_8  and  C_9
REMARK    6  A    between atoms: C_9  and  C_10
REMARK    7  A    between atoms: C_16  and  C_17
REMARK    8  A    between atoms: C_17  and  O_18
REMARK                            x       y       z     vdW  Elec       q    Type
REMARK                         _______ _______ _______ _____ _____    ______ ____
ROOT
ATOM      1  C   UNL     1      45.373   5.069  11.585  0.00  0.00    +0.000 A 
ATOM      2  N   UNL     1      46.075   5.946  10.794  0.00  0.00    +0.000 NA
ATOM      3  C   UNL     1      45.896   5.526   9.566  0.00  0.00    +0.000 A 
ATOM      4  N   UNL     1      45.096   4.415   9.523  0.00  0.00    +0.000 N 
ATOM      5  C   UNL     1      44.790   4.072  10.818  0.00  0.00    +0.000 A 
ENDROOT
BRANCH   1   6
ATOM      6  C   UNL     1      45.274   5.305  13.053  0.00  0.00    +0.000 C 
BRANCH   6   7
ATOM      7  C   UNL     1      46.578   4.976  13.788  0.00  0.00    +0.000 C 
BRANCH   7   8
ATOM      8  C   UNL     1      47.532   6.163  13.948  0.00  0.00    +0.000 C 
BRANCH   8   9
ATOM      9  N   UNL     1      48.643   6.113  12.996  0.00  0.00    +0.000 NA
ATOM     10  H   UNL     1      49.039   7.053  12.915  0.00  0.00    +0.000 HD
ATOM     11  H   UNL     1      48.267   5.907  12.068  0.00  0.00    +0.000 HD
ENDBRANCH   8   9
ENDBRANCH   7   8
ENDBRANCH   6   7
ENDBRANCH   1   6
BRANCH   4  12
ATOM     12  C   UNL     1      44.690   3.751   8.294  0.00  0.00    +0.000 C 
BRANCH  12  13
ATOM     13  C   UNL     1      45.783   2.889   7.712  0.00  0.00    +0.000 A 
ATOM     14  C   UNL     1      46.582   3.338   6.655  0.00  0.00    +0.000 A 
ATOM     15  C   UNL     1      47.585   2.508   6.176  0.00  0.00    +0.000 A 
ATOM     16  N   UNL     1      47.851   1.285   6.677  0.00  0.00    +0.000 NA
ATOM     17  C   UNL     1      47.068   0.865   7.691  0.00  0.00    +0.000 A 
ATOM     18  C   UNL     1      46.040   1.619   8.237  0.00  0.00    +0.000 A 
ENDBRANCH  12  13
ENDBRANCH   4  12
BRANCH   5  19
ATOM     19  C   UNL     1      43.965   2.910  11.215  0.00  0.00    +0.000 C 
BRANCH  19  20
ATOM     20  O   UNL     1      42.670   3.401  11.506  0.00  0.00    +0.000 OA
ATOM     21  H   UNL     1      42.719   3.775  12.411  0.00  0.00    +0.000 HD
ENDBRANCH  19  20
ENDBRANCH   5  19
TORSDOF 8
ENDMDL
MODEL 3
REMARK VINA RESULT:    -6.415      1.611      2.071
REMARK INTER + INTRA:          -9.711
REMARK INTER:                  -9.349
REMARK INTRA:                  -0.361
REMARK UNBOUND:                -0.671
REMARK  Name = 
REMARK  8 active torsions:
REMARK  status: ('A' for Active; 'I' for Inactive)
REMARK    1  A    between atoms: N_1  and  C_2
REMARK    2  A    between atoms: C_2  and  C_3
REMARK    3  A    between atoms: C_3  and  C_4
REMARK    4  A    between atoms: C_4  and  C_5
REMARK    5  A    between atoms: N_8  and  C_9
REMARK    6  A    between atoms: C_9  and  C_10
REMARK    7  A    between atoms: C_16  and  C_17
REMARK    8  A    between atoms: C_17  and  O_18
REMARK                            x       y       z     vdW  Elec       q    Type
REMARK                         _______ _______ _______ _____ _____    ______ ____
ROOT
ATOM      1  C   UNL     1      45.016   4.212  12.263  0.00  0.00    +0.000 A 
ATOM      2  N   UNL     1      44.319   3.028  12.238  0.00  0.00    +0.000 NA
ATOM      3  C   UNL     1      44.104   2.779  10.969  0.00  0.00    +0.000 A 
ATOM      4  N   UNL     1      44.641   3.748  10.165  0.00  0.00    +0.000 N 
ATOM      5  C   UNL     1      45.189   4.710  10.981  0.00  0.00    +0.000 A 
ENDROOT
BRANCH   1   6
ATOM      6  C   UNL     1      45.520   4.752  13.557  0.00  0.00    +0.000 C 
BRANCH   6   7
ATOM      7  C   UNL     1      46.868   4.146  13.961  0.00  0.00    +0.000 C 
BRANCH   7   8
ATOM      8  C   UNL     1      47.212   4.296  15.445  0.00  0.00    +0.000 C 
BRANCH   8   9
ATOM      9  N   UNL     1      48.110   3.240  15.915  0.00  0.00    +0.000 NA
ATOM     10  H   UNL     1      48.373   2.662  15.113  0.00  0.00    +0.000 HD
ATOM     11  H   UNL     1      47.583   2.615  16.528  0.00  0.00    +0.000 HD
ENDBRANCH   8   9
ENDBRANCH   7   8
ENDBRANCH   6   7
ENDBRANCH   1   6
BRANCH   4  12
ATOM     12  C   UNL     1      44.595   3.719   8.711  0.00  0.00    +0.000 C 
BRANCH  12  13
ATOM     13  C   UNL     1      45.712   2.901   8.112  0.00  0.00    +0.000 A 
ATOM     14  C   UNL     1      45.809   1.523   8.335  0.00  0.00    +0.000 A 
ATOM     15  C   UNL     1      46.847   0.821   7.741  0.00  0.00    +0.000 A 
ATOM     16  N   UNL     1      47.775   1.385   6.941  0.00  0.00    +0.000 NA
ATOM     17  C   UNL     1      47.670   2.715   6.741  0.00  0.00    +0.000 A 
ATOM     18  C   UNL     1      46.671   3.503   7.293  0.00  0.00    +0.000 A 
ENDBRANCH  12  13
ENDBRANCH   4  12
BRANCH   5  19
ATOM     19  C   UNL     1      45.850   5.946  10.508  0.00  0.00    +0.000 C 
BRANCH  19  20
ATOM     20  O   UNL     1      44.911   6.996  10.646  0.00  0.00    +0.000 OA
ATOM     21  H   UNL     1      44.244   6.680  11.292  0.00  0.00    +0.000 HD
ENDBRANCH  19  20
ENDBRANCH   5  19
TORSDOF 8
ENDMDL
MODEL 4
REMARK VINA RESULT:    -6.228      1.126      5.912
REMARK INTER + INTRA:          -9.448
REMARK INTER:                  -8.958
REMARK INTRA:                  -0.489
REMARK UNBOUND:                -0.671
REMARK  Name = 
REMARK  8 active torsions:
REMARK  status: ('A' for Active; 'I' for Inactive)
REMARK    1  A    between atoms: N_1  and  C_2
REMARK    2  A    between atoms: C_2  and  C_3
REMARK    3  A    between atoms: C_3  and  C_4
REMARK    4  A    between atoms: C_4  and  C_5
REMARK    5  A    between atoms: N_8  and  C_9
REMARK    6  A    between atoms: C_9  and  C_10
REMARK    7  A    between atoms: C_16  and  C_17
REMARK    8  A    between atoms: C_17  and  O_18
REMARK                            x       y       z     vdW  Elec       q    Type
REMARK                         _______ _______ _______ _____ _____    ______ ____
ROOT
ATOM      1  C   UNL     1      45.303   4.063   8.984  0.00  0.00    +0.000 A 
ATOM      2  N   UNL     1      46.070   5.175   8.733  0.00  0.00    +0.000 NA
ATOM      3  C   UNL     1      45.941   5.933   9.794  0.00  0.00    +0.000 A 
ATOM      4  N   UNL     1      45.127   5.356  10.732  0.00  0.00    +0.000 N 
ATOM      5  C   UNL     1      44.662   4.173  10.209  0.00  0.00    +0.000 A 
ENDROOT
BRANCH   1   6
ATOM      6  C   UNL     1      45.294   2.930   8.017  0.00  0.00    +0.000 C 
BRANCH   6   7
ATOM      7  C   UNL     1      46.441   3.016   7.004  0.00  0.00    +0.000 C 
BRANCH   7   8
ATOM      8  C   UNL     1      47.408   1.830   7.041  0.00  0.00    +0.000 C 
BRANCH   8   9
ATOM      9  N   UNL     1      48.356   1.853   5.925  0.00  0.00    +0.000 NA
ATOM     10  H   UNL     1      48.201   2.712   5.390  0.00  0.00    +0.000 HD
ATOM     11  H   UNL     1      48.118   1.096   5.281  0.00  0.00    +0.000 HD
ENDBRANCH   8   9
ENDBRANCH   7   8
ENDBRANCH   6   7
ENDBRANCH   1   6
BRANCH   4  12
ATOM     12  C   UNL     1      44.832   5.946  12.029  0.00  0.00    +0.000 C 
BRANCH  12  13
ATOM     13  C   UNL     1      45.962   5.778  13.013  0.00  0.00    +0.000 A 
ATOM     14  C   UNL     1      46.976   6.735  13.132  0.00  0.00    +0.000 A 
ATOM     15  C   UNL     1      47.978   6.535  14.070  0.00  0.00    +0.000 A 
ATOM     16  N   UNL     1      48.034   5.469  14.894  0.00  0.00    +0.000 NA
ATOM     17  C   UNL     1      47.054   4.553  14.762  0.00  0.00    +0.000 A 
ATOM     18  C   UNL     1      46.011   4.662  13.853  0.00  0.00    +0.000 A 
ENDBRANCH  12  13
ENDBRANCH   4  12
BRANCH   5  19
ATOM     19  C   UNL     1      43.729   3.252  10.894  0.00  0.00    +0.000 C 
BRANCH  19  20
ATOM     20  O   UNL     1      44.502   2.464  11.781  0.00  0.00    +0.000 OA
ATOM     21  H   UNL     1      45.437   2.597  11.517  0.00  0.00    +0.000 HD
ENDBRANCH  19  20
ENDBRANCH   5  19
TORSDOF 8
ENDMDL
MODEL 5
REMARK VINA RESULT:    -6.026      1.889      2.602
REMARK INTER + INTRA:          -9.162
REMARK INTER:                  -8.667
REMARK INTRA:                  -0.496
REMARK UNBOUND:                -0.671
REMARK  Name = 
REMARK  8 active torsions:
REMARK  status: ('A' for Active; 'I' for Inactive)
REMARK    1  A    between atoms: N_1  and  C_2
REMARK    2  A    between atoms: C_2  and  C_3
REMARK    3  A    between atoms: C_3  and  C_4
REMARK    4  A    between atoms: C_4  and  C_5
REMARK    5  A    between atoms: N_8  and  C_9
REMARK    6  A    between atoms: C_9  and  C_10
REMARK    7  A    between atoms: C_16  and  C_17
REMARK    8  A    between atoms: C_17  and  O_18
REMARK                            x       y       z     vdW  Elec       q    Type
REMARK                         _______ _______ _______ _____ _____    ______ ____
ROOT
ATOM      1  C   UNL     1      45.246   4.569  12.573  0.00  0.00    +0.000 A 
ATOM      2  N   UNL     1      44.624   3.356  12.745  0.00  0.00    +0.000 NA
ATOM      3  C   UNL     1      44.222   3.000  11.548  0.00  0.00    +0.000 A 
ATOM      4  N   UNL     1      44.567   3.928  10.602  0.00  0.00    +0.000 N 
ATOM      5  C   UNL     1      45.182   4.974  11.249  0.00  0.00    +0.000 A 
ENDROOT
BRANCH   1   6
ATOM      6  C   UNL     1      45.918   5.230  13.728  0.00  0.00    +0.000 C 
BRANCH   6   7
ATOM      7  C   UNL     1      47.446   5.151  13.639  0.00  0.00    +0.000 C 
BRANCH   7   8
ATOM      8  C   UNL     1      48.123   6.454  13.206  0.00  0.00    +0.000 C 
BRANCH   8   9
ATOM      9  N   UNL     1      49.385   6.684  13.913  0.00  0.00    +0.000 NA
ATOM     10  H   UNL     1      49.461   7.684  14.116  0.00  0.00    +0.000 HD
ATOM     11  H   UNL     1      50.156   6.488  13.272  0.00  0.00    +0.000 HD
ENDBRANCH   8   9
ENDBRANCH   7   8
ENDBRANCH   6   7
ENDBRANCH   1   6
BRANCH   4  12
ATOM     12  C   UNL     1      44.290   3.784   9.181  0.00  0.00    +0.000 C 
BRANCH  12  13
ATOM     13  C   UNL     1      45.390   3.060   8.447  0.00  0.00    +0.000 A 
ATOM     14  C   UNL     1      46.293   3.742   7.625  0.00  0.00    +0.000 A 
ATOM     15  C   UNL     1      47.296   3.024   6.992  0.00  0.00    +0.000 A 
ATOM     16  N   UNL     1      47.468   1.693   7.127  0.00  0.00    +0.000 NA
ATOM     17  C   UNL     1      46.586   1.049   7.918  0.00  0.00    +0.000 A 
ATOM     18  C   UNL     1      45.549   1.678   8.591  0.00  0.00    +0.000 A 
ENDBRANCH  12  13
ENDBRANCH   4  12
BRANCH   5  19
ATOM     19  C   UNL     1      45.686   6.199  10.591  0.00  0.00    +0.000 C 
BRANCH  19  20
ATOM     20  O   UNL     1      44.726   7.214  10.815  0.00  0.00    +0.000 OA
ATOM     21  H   UNL     1      45.234   8.035  10.988  0.00  0.00    +0.000 HD
ENDBRANCH  19  20
ENDBRANCH   5  19
TORSDOF 8
ENDMDL
MODEL 6
REMARK VINA RESULT:    -5.592      2.414      3.236
REMARK INTER + INTRA:          -8.551
REMARK INTER:                  -7.967
REMARK INTRA:                  -0.584
REMARK UNBOUND:                -0.671
REMARK  Name = 
REMARK  8 active torsions:
REMARK  status: ('A' for Active; 'I' for Inactive)
REMARK    1  A    between atoms: N_1  and  C_2
REMARK    2  A    between atoms: C_2  and  C_3
REMARK    3  A    between atoms: C_3  and  C_4
REMARK    4  A    between atoms: C_4  and  C_5
REMARK    5  A    between atoms: N_8  and  C_9
REMARK    6  A    between atoms: C_9  and  C_10
REMARK    7  A    between atoms: C_16  and  C_17
REMARK    8  A    between atoms: C_17  and  O_18
REMARK                            x       y       z     vdW  Elec       q    Type
REMARK                         _______ _______ _______ _____ _____    ______ ____
ROOT
ATOM      1  C   UNL     1      45.175   6.191  12.512  0.00  0.00    +0.000 A 
ATOM      2  N   UNL     1      46.046   5.194  12.878  0.00  0.00    +0.000 NA
ATOM      3  C   UNL     1      45.682   4.143  12.184  0.00  0.00    +0.000 A 
ATOM      4  N   UNL     1      44.613   4.418  11.373  0.00  0.00    +0.000 N 
ATOM      5  C   UNL     1      44.236   5.719  11.607  0.00  0.00    +0.000 A 
ENDROOT
BRANCH   1   6
ATOM      6  C   UNL     1      45.359   7.572  13.041  0.00  0.00    +0.000 C 
BRANCH   6   7
ATOM      7  C   UNL     1      46.168   8.461  12.090  0.00  0.00    +0.000 C 
BRANCH   7   8
ATOM      8  C   UNL     1      45.781   9.942  12.123  0.00  0.00    +0.000 C 
BRANCH   8   9
ATOM      9  N   UNL     1      44.369  10.137  12.456  0.00  0.00    +0.000 NA
ATOM     10  H   UNL     1      44.304  10.389  13.446  0.00  0.00    +0.000 HD
ATOM     11  H   UNL     1      43.890   9.237  12.382  0.00  0.00    +0.000 HD
ENDBRANCH   8   9
ENDBRANCH   7   8
ENDBRANCH   6   7
ENDBRANCH   1   6
BRANCH   4  12
ATOM     12  C   UNL     1      44.017   3.457  10.458  0.00  0.00    +0.000 C 
BRANCH  12  13
ATOM     13  C   UNL     1      44.930   3.105   9.311  0.00  0.00    +0.000 A 
ATOM     14  C   UNL     1      45.338   1.787   9.080  0.00  0.00    +0.000 A 
ATOM     15  C   UNL     1      46.162   1.522   7.996  0.00  0.00    +0.000 A 
ATOM     16  N   UNL     1      46.592   2.463   7.131  0.00  0.00    +0.000 NA
ATOM     17  C   UNL     1      46.194   3.729   7.371  0.00  0.00    +0.000 A 
ATOM     18  C   UNL     1      45.374   4.094   8.429  0.00  0.00    +0.000 A 
ENDBRANCH  12  13
ENDBRANCH   4  12
BRANCH   5  19
ATOM     19  C   UNL     1      43.101   6.403  10.951  0.00  0.00    +0.000 C 
BRANCH  19  20
ATOM     20  O   UNL     1      41.968   6.210  11.776  0.00  0.00    +0.000 OA
ATOM     21  H   UNL     1      42.292   5.747  12.578  0.00  0.00    +0.000 HD
ENDBRANCH  19  20
ENDBRANCH   5  19
TORSDOF 8
ENDMDL
MODEL 7
REMARK VINA RESULT:    -5.350      1.620      2.171
REMARK INTER + INTRA:          -8.210
REMARK INTER:                  -7.915
REMARK INTRA:                  -0.295
REMARK UNBOUND:                -0.671
REMARK  Name = 
REMARK  8 active torsions:
REMARK  status: ('A' for Active; 'I' for Inactive)
REMARK    1  A    between atoms: N_1  and  C_2
REMARK    2  A    between atoms: C_2  and  C_3
REMARK    3  A    between atoms: C_3  and  C_4
REMARK    4  A    between atoms: C_4  and  C_5
REMARK    5  A    between atoms: N_8  and  C_9
REMARK    6  A    between atoms: C_9  and  C_10
REMARK    7  A    between atoms: C_16  and  C_17
REMARK    8  A    between atoms: C_17  and  O_18
REMARK                            x       y       z     vdW  Elec       q    Type
REMARK                         _______ _______ _______ _____ _____    ______ ____
ROOT
ATOM      1  C   UNL     1      46.217   5.611  12.674  0.00  0.00    +0.000 A 
ATOM      2  N   UNL     1      46.042   6.736  11.905  0.00  0.00    +0.000 NA
ATOM      3  C   UNL     1      45.361   6.339  10.858  0.00  0.00    +0.000 A 
ATOM      4  N   UNL     1      45.076   5.001  10.917  0.00  0.00    +0.000 N 
ATOM      5  C   UNL     1      45.664   4.500  12.054  0.00  0.00    +0.000 A 
ENDROOT
BRANCH   1   6
ATOM      6  C   UNL     1      46.875   5.714  14.007  0.00  0.00    +0.000 C 
BRANCH   6   7
ATOM      7  C   UNL     1      48.071   6.673  13.997  0.00  0.00    +0.000 C 
BRANCH   7   8
ATOM      8  C   UNL     1      48.871   6.700  15.302  0.00  0.00    +0.000 C 
BRANCH   8   9
ATOM      9  N   UNL     1      48.150   6.066  16.407  0.00  0.00    +0.000 NA
ATOM     10  H   UNL     1      48.470   5.097  16.485  0.00  0.00    +0.000 HD
ATOM     11  H   UNL     1      47.162   5.996  16.153  0.00  0.00    +0.000 HD
ENDBRANCH   8   9
ENDBRANCH   7   8
ENDBRANCH   6   7
ENDBRANCH   1   6
BRANCH   4  12
ATOM     12  C   UNL     1      44.298   4.289   9.916  0.00  0.00    +0.000 C 
BRANCH  12  13
ATOM     13  C   UNL     1      45.162   3.511   8.955  0.00  0.00    +0.000 A 
ATOM     14  C   UNL     1      45.909   4.152   7.961  0.00  0.00    +0.000 A 
ATOM     15  C   UNL     1      46.702   3.385   7.120  0.00  0.00    +0.000 A 
ATOM     16  N   UNL     1      46.810   2.044   7.207  0.00  0.00    +0.000 NA
ATOM     17  C   UNL     1      46.080   1.441   8.166  0.00  0.00    +0.000 A 
ATOM     18  C   UNL     1      45.257   2.120   9.053  0.00  0.00    +0.000 A 
ENDBRANCH  12  13
ENDBRANCH   4  12
BRANCH   5  19
ATOM     19  C   UNL     1      45.619   3.084  12.479  0.00  0.00    +0.000 C 
BRANCH  19  20
ATOM     20  O   UNL     1      44.262   2.772  12.735  0.00  0.00    +0.000 OA
ATOM     21  H   UNL     1      44.257   1.859  13.093  0.00  0.00    +0.000 HD
ENDBRANCH  19  20
ENDBRANCH   5  19
TORSDOF 8
ENDMDL
MODEL 8
REMARK VINA RESULT:    -5.005      2.502      6.004
REMARK INTER + INTRA:          -7.724
REMARK INTER:                  -7.052
REMARK INTRA:                  -0.672
REMARK UNBOUND:                -0.671
REMARK  Name = 
REMARK  8 active torsions:
REMARK  status: ('A' for Active; 'I' for Inactive)
REMARK    1  A    between atoms: N_1  and  C_2
REMARK    2  A    between atoms: C_2  and  C_3
REMARK    3  A    between atoms: C_3  and  C_4
REMARK    4  A    between atoms: C_4  and  C_5
REMARK    5  A    between atoms: N_8  and  C_9
REMARK    6  A    between atoms: C_9  and  C_10
REMARK    7  A    between atoms: C_16  and  C_17
REMARK    8  A    between atoms: C_17  and  O_18
REMARK                            x       y       z     vdW  Elec       q    Type
REMARK                         _______ _______ _______ _____ _____    ______ ____
ROOT
ATOM      1  C   UNL     1      44.911   3.686  11.477  0.00  0.00    +0.000 A 
ATOM      2  N   UNL     1      45.582   3.119  12.533  0.00  0.00    +0.000 NA
ATOM      3  C   UNL     1      46.043   4.127  13.234  0.00  0.00    +0.000 A 
ATOM      4  N   UNL     1      45.690   5.329  12.682  0.00  0.00    +0.000 N 
ATOM      5  C   UNL     1      45.005   5.069  11.519  0.00  0.00    +0.000 A 
ENDROOT
BRANCH   1   6
ATOM      6  C   UNL     1      44.168   2.822  10.517  0.00  0.00    +0.000 C 
BRANCH   6   7
ATOM      7  C   UNL     1      44.993   2.490   9.269  0.00  0.00    +0.000 C 
BRANCH   7   8
ATOM      8  C   UNL     1      44.800   3.465   8.104  0.00  0.00    +0.000 C 
BRANCH   8   9
ATOM      9  N   UNL     1      46.067   4.036   7.644  0.00  0.00    +0.000 NA
ATOM     10  H   UNL     1      45.866   4.914   7.160  0.00  0.00    +0.000 HD
ATOM     11  H   UNL     1      46.458   3.423   6.926  0.00  0.00    +0.000 HD
ENDBRANCH   8   9
ENDBRANCH   7   8
ENDBRANCH   6   7
ENDBRANCH   1   6
BRANCH   4  12
ATOM     12  C   UNL     1      46.024   6.621  13.262  0.00  0.00    +0.000 C 
BRANCH  12  13
ATOM     13  C   UNL     1      47.466   7.002  13.036  0.00  0.00    +0.000 A 
ATOM     14  C   UNL     1      47.933   7.380  11.772  0.00  0.00    +0.000 A 
ATOM     15  C   UNL     1      49.265   7.739  11.631  0.00  0.00    +0.000 A 
ATOM     16  N   UNL     1      50.149   7.760  12.648  0.00  0.00    +0.000 NA
ATOM     17  C   UNL     1      49.685   7.388  13.859  0.00  0.00    +0.000 A 
ATOM     18  C   UNL     1      48.373   7.010  14.100  0.00  0.00    +0.000 A 
ENDBRANCH  12  13
ENDBRANCH   4  12
BRANCH   5  19
ATOM     19  C   UNL     1      44.469   6.099  10.602  0.00  0.00    +0.000 C 
BRANCH  19  20
ATOM     20  O   UNL     1      43.096   6.252  10.909  0.00  0.00    +0.000 OA
ATOM     21  H   UNL     1      42.793   5.381  11.243  0.00  0.00    +0.000 HD
ENDBRANCH  19  20
ENDBRANCH   5  19
TORSDOF 8
ENDMDL
MODEL 9
REMARK VINA RESULT:    -4.802      2.851      5.998
REMARK INTER + INTRA:          -7.438
REMARK INTER:                  -6.661
REMARK INTRA:                  -0.777
REMARK UNBOUND:                -0.671
REMARK  Name = 
REMARK  8 active torsions:
REMARK  status: ('A' for Active; 'I' for Inactive)
REMARK    1  A    between atoms: N_1  and  C_2
REMARK    2  A    between atoms: C_2  and  C_3
REMARK    3  A    between atoms: C_3  and  C_4
REMARK    4  A    between atoms: C_4  and  C_5
REMARK    5  A    between atoms: N_8  and  C_9
REMARK    6  A    between atoms: C_9  and  C_10
REMARK    7  A    between atoms: C_16  and  C_17
REMARK    8  A    between atoms: C_17  and  O_18
REMARK                            x       y       z     vdW  Elec       q    Type
REMARK                         _______ _______ _______ _____ _____    ______ ____
ROOT
ATOM      1  C   UNL     1      45.228   4.647  11.692  0.00  0.00    +0.000 A 
ATOM      2  N   UNL     1      44.927   5.639  10.791  0.00  0.00    +0.000 NA
ATOM      3  C   UNL     1      45.435   6.735  11.299  0.00  0.00    +0.000 A 
ATOM      4  N   UNL     1      46.064   6.496  12.492  0.00  0.00    +0.000 N 
ATOM      5  C   UNL     1      45.897   5.164  12.791  0.00  0.00    +0.000 A 
ENDROOT
BRANCH   1   6
ATOM      6  C   UNL     1      44.882   3.230  11.383  0.00  0.00    +0.000 C 
BRANCH   6   7
ATOM      7  C   UNL     1      44.171   3.082  10.034  0.00  0.00    +0.000 C 
BRANCH   7   8
ATOM      8  C   UNL     1      45.107   2.823   8.850  0.00  0.00    +0.000 C 
BRANCH   8   9
ATOM      9  N   UNL     1      45.333   4.027   8.049  0.00  0.00    +0.000 NA
ATOM     10  H   UNL     1      45.533   4.803   8.686  0.00  0.00    +0.000 HD
ATOM     11  H   UNL     1      44.455   4.283   7.592  0.00  0.00    +0.000 HD
ENDBRANCH   8   9
ENDBRANCH   7   8
ENDBRANCH   6   7
ENDBRANCH   1   6
BRANCH   4  12
ATOM     12  C   UNL     1      46.755   7.514  13.267  0.00  0.00    +0.000 C 
BRANCH  12  13
ATOM     13  C   UNL     1      48.001   8.018  12.583  0.00  0.00    +0.000 A 
ATOM     14  C   UNL     1      48.100   9.335  12.123  0.00  0.00    +0.000 A 
ATOM     15  C   UNL     1      49.280   9.746  11.519  0.00  0.00    +0.000 A 
ATOM     16  N   UNL     1      50.356   8.951  11.354  0.00  0.00    +0.000 NA
ATOM     17  C   UNL     1      50.242   7.682  11.797  0.00  0.00    +0.000 A 
ATOM     18  C   UNL     1      49.105   7.177  12.411  0.00  0.00    +0.000 A 
ENDBRANCH  12  13
ENDBRANCH   4  12
BRANCH   5  19
ATOM     19  C   UNL     1      46.403   4.500  14.012  0.00  0.00    +0.000 C 
BRANCH  19  20
ATOM     20  O   UNL     1      47.528   3.732  13.629  0.00  0.00    +0.000 OA
ATOM     21  H   UNL     1      48.278   4.361  13.569  0.00  0.00    +0.000 HD
ENDBRANCH  19  20
ENDBRANCH   5  19
TORSDOF 8
ENDMDL
