MODEL 1
REMARK VINA RESULT:    -6.904      0.000      0.000
REMARK INTER + INTRA:          -9.235
REMARK INTER:                  -8.922
REMARK INTRA:                  -0.313
REMARK UNBOUND:                -0.313
REMARK  Name = 
REMARK  7 active torsions:
REMARK  status: ('A' for Active; 'I' for Inactive)
REMARK    1  A    between atoms: C_1  and  N_2
REMARK    2  A    between atoms: N_2  and  C_3
REMARK    3  A    between atoms: N_2  and  C_4
REMARK    4  A    between atoms: C_4  and  C_5
REMARK    5  A    between atoms: C_5  and  C_6
REMARK    6  A    between atoms: C_9  and  C_10
REMARK    7  A    between atoms: C_10  and  N_11
REMARK                            x       y       z     vdW  Elec       q    Type
REMARK                         _______ _______ _______ _____ _____    ______ ____
ROOT
ATOM      1  C   UNL     1      46.779   5.125  13.247  0.00  0.00    +0.000 C 
ATOM      2  C   UNL     1      46.579   6.347  12.340  0.00  0.00    +0.000 C 
ATOM      3  C   UNL     1      45.920   5.962  11.021  0.00  0.00    +0.000 C 
ATOM      4  C   UNL     1      44.581   5.235  11.211  0.00  0.00    +0.000 C 
ATOM      5  C   UNL     1      44.733   4.060  12.195  0.00  0.00    +0.000 C 
ATOM      6  C   UNL     1      45.422   4.457  13.504  0.00  0.00    +0.000 C 
ENDROOT
BRANCH   1   7
ATOM      7  C   UNL     1      47.496   5.558  14.540  0.00  0.00    +0.000 C 
BRANCH   7   8
ATOM      8  C   UNL     1      47.427   4.551  15.699  0.00  0.00    +0.000 C 
BRANCH   8  10
ATOM      9  C   UNL     1      48.766   5.635  17.419  0.00  0.00    +0.000 C 
ATOM     10  N   UNL     1      48.646   4.483  16.525  0.00  0.00    +0.000 NA
ATOM     11  C   UNL     1      48.650   3.246  17.311  0.00  0.00    +0.000 C 
ENDBRANCH   8  10
ENDBRANCH   7   8
ENDBRANCH   1   7
BRANCH   4  12
ATOM     12  C   UNL     1      44.023   4.719   9.869  0.00  0.00    +0.000 C 
BRANCH  12  13
ATOM     13  N   UNL     1      44.625   3.487   9.384  0.00  0.00    +0.000 N 
ATOM     14  N   UNL     1      44.095   2.309   9.778  0.00  0.00    +0.000 NA
ATOM     15  C   UNL     1      44.767   1.402   9.070  0.00  0.00    +0.000 A 
ATOM     16  C   UNL     1      45.710   1.982   8.201  0.00  0.00    +0.000 A 
ATOM     17  C   UNL     1      46.609   1.497   7.232  0.00  0.00    +0.000 A 
ATOM     18  C   UNL     1      47.390   2.424   6.544  0.00  0.00    +0.000 A 
ATOM     19  F   UNL     1      48.225   1.984   5.590  0.00  0.00    +0.000 F 
ATOM     20  C   UNL     1      47.322   3.784   6.813  0.00  0.00    +0.000 A 
ATOM     21  C   UNL     1      46.443   4.280   7.783  0.00  0.00    +0.000 A 
ATOM     22  C   UNL     1      45.628   3.352   8.447  0.00  0.00    +0.000 A 
ENDBRANCH  12  13
ENDBRANCH   4  12
TORSDOF 5
ENDMDL
MODEL 2
REMARK VINA RESULT:    -6.881      1.742      2.262
REMARK INTER + INTRA:          -9.205
REMARK INTER:                  -8.663
REMARK INTRA:                  -0.542
REMARK UNBOUND:                -0.313
REMARK  Name = 
REMARK  7 active torsions:
REMARK  status: ('A' for Active; 'I' for Inactive)
REMARK    1  A    between atoms: C_1  and  N_2
REMARK    2  A    between atoms: N_2  and  C_3
REMARK    3  A    between atoms: N_2  and  C_4
REMARK    4  A    between atoms: C_4  and  C_5
REMARK    5  A    between atoms: C_5  and  C_6
REMARK    6  A    between atoms: C_9  and  C_10
REMARK    7  A    between atoms: C_10  and  N_11
REMARK                            x       y       z     vdW  Elec       q    Type
REMARK                         _______ _______ _______ _____ _____    ______ ____
ROOT
ATOM      1  C   UNL     1      47.933   6.621  13.268  0.00  0.00    +0.000 C 
ATOM      2  C   UNL     1      47.029   7.837  13.031  0.00  0.00    +0.000 C 
ATOM      3  C   UNL     1      45.785   7.463  12.235  0.00  0.00    +0.000 C 
ATOM      4  C   UNL     1      44.972   6.335  12.889  0.00  0.00    +0.000 C 
ATOM      5  C   UNL     1      45.879   5.136  13.226  0.00  0.00    +0.000 C 
ATOM      6  C   UNL     1      47.138   5.533  14.002  0.00  0.00    +0.000 C 
ENDROOT
BRANCH   1   7
ATOM      7  C   UNL     1      49.198   7.063  14.027  0.00  0.00    +0.000 C 
BRANCH   7   8
ATOM      8  C   UNL     1      49.112   6.973  15.560  0.00  0.00    +0.000 C 
BRANCH   8  10
ATOM      9  C   UNL     1      51.233   6.410  16.611  0.00  0.00    +0.000 C 
ATOM     10  N   UNL     1      49.936   5.908  16.158  0.00  0.00    +0.000 NA
ATOM     11  C   UNL     1      49.223   5.296  17.283  0.00  0.00    +0.000 C 
ENDBRANCH   8  10
ENDBRANCH   7   8
ENDBRANCH   1   7
BRANCH   4  12
ATOM     12  C   UNL     1      43.816   5.871  11.981  0.00  0.00    +0.000 C 
BRANCH  12  13
ATOM     13  N   UNL     1      43.995   4.562  11.373  0.00  0.00    +0.000 N 
ATOM     14  N   UNL     1      43.328   3.510  11.895  0.00  0.00    +0.000 NA
ATOM     15  C   UNL     1      43.592   2.512  11.052  0.00  0.00    +0.000 A 
ATOM     16  C   UNL     1      44.403   2.913   9.973  0.00  0.00    +0.000 A 
ATOM     17  C   UNL     1      44.911   2.291   8.818  0.00  0.00    +0.000 A 
ATOM     18  C   UNL     1      45.689   3.057   7.952  0.00  0.00    +0.000 A 
ATOM     19  F   UNL     1      46.151   2.492   6.826  0.00  0.00    +0.000 F 
ATOM     20  C   UNL     1      45.991   4.386   8.217  0.00  0.00    +0.000 A 
ATOM     21  C   UNL     1      45.504   5.015   9.369  0.00  0.00    +0.000 A 
ATOM     22  C   UNL     1      44.687   4.256  10.220  0.00  0.00    +0.000 A 
ENDBRANCH  12  13
ENDBRANCH   4  12
TORSDOF 5
ENDMDL
MODEL 3
REMARK VINA RESULT:    -6.697      2.062      2.828
REMARK INTER + INTRA:          -8.968
REMARK INTER:                  -8.394
REMARK INTRA:                  -0.574
REMARK UNBOUND:                -0.313
REMARK  Name = 
REMARK  7 active torsions:
REMARK  status: ('A' for Active; 'I' for Inactive)
REMARK    1  A    between atoms: C_1  and  N_2
REMARK    2  A    between atoms: N_2  and  C_3
REMARK    3  A    between atoms: N_2  and  C_4
REMARK    4  A    between atoms: C_4  and  C_5
REMARK    5  A    between atoms: C_5  and  C_6
REMARK    6  A    between atoms: C_9  and  C_10
REMARK    7  A    between atoms: C_10  and  N_11
REMARK                            x       y       z     vdW  Elec       q    Type
REMARK                         _______ _______ _______ _____ _____    ______ ____
ROOT
ATOM      1  C   UNL     1      47.147   6.390  12.943  0.00  0.00    +0.000 C 
ATOM      2  C   UNL     1      46.081   7.426  12.564  0.00  0.00    +0.000 C 
ATOM      3  C   UNL     1      45.134   6.890  11.497  0.00  0.00    +0.000 C 
ATOM      4  C   UNL     1      44.453   5.575  11.907  0.00  0.00    +0.000 C 
ATOM      5  C   UNL     1      45.497   4.548  12.385  0.00  0.00    +0.000 C 
ATOM      6  C   UNL     1      46.458   5.111  13.436  0.00  0.00    +0.000 C 
ENDROOT
BRANCH   1   7
ATOM      7  C   UNL     1      48.108   7.000  13.981  0.00  0.00    +0.000 C 
BRANCH   7   8
ATOM      8  C   UNL     1      49.422   7.559  13.412  0.00  0.00    +0.000 C 
BRANCH   8  10
ATOM      9  C   UNL     1      49.099   9.435  11.895  0.00  0.00    +0.000 C 
ATOM     10  N   UNL     1      49.346   7.997  12.007  0.00  0.00    +0.000 NA
ATOM     11  C   UNL     1      50.586   7.653  11.307  0.00  0.00    +0.000 C 
ENDBRANCH   8  10
ENDBRANCH   7   8
ENDBRANCH   1   7
BRANCH   4  12
ATOM     12  C   UNL     1      43.631   4.978  10.747  0.00  0.00    +0.000 C 
BRANCH  12  13
ATOM     13  N   UNL     1      44.209   3.796  10.126  0.00  0.00    +0.000 N 
ATOM     14  N   UNL     1      43.703   2.586  10.444  0.00  0.00    +0.000 NA
ATOM     15  C   UNL     1      44.338   1.747   9.626  0.00  0.00    +0.000 A 
ATOM     16  C   UNL     1      45.233   2.406   8.761  0.00  0.00    +0.000 A 
ATOM     17  C   UNL     1      46.079   2.012   7.709  0.00  0.00    +0.000 A 
ATOM     18  C   UNL     1      46.821   3.000   7.062  0.00  0.00    +0.000 A 
ATOM     19  F   UNL     1      47.604   2.649   6.031  0.00  0.00    +0.000 F 
ATOM     20  C   UNL     1      46.765   4.331   7.450  0.00  0.00    +0.000 A 
ATOM     21  C   UNL     1      45.938   4.737   8.505  0.00  0.00    +0.000 A 
ATOM     22  C   UNL     1      45.161   3.749   9.129  0.00  0.00    +0.000 A 
ENDBRANCH  12  13
ENDBRANCH   4  12
TORSDOF 5
ENDMDL
MODEL 4
REMARK VINA RESULT:    -6.693      1.592      2.027
REMARK INTER + INTRA:          -8.962
REMARK INTER:                  -8.507
REMARK INTRA:                  -0.455
REMARK UNBOUND:                -0.313
REMARK  Name = 
REMARK  7 active torsions:
REMARK  status: ('A' for Active; 'I' for Inactive)
REMARK    1  A    between atoms: C_1  and  N_2
REMARK    2  A    between atoms: N_2  and  C_3
REMARK    3  A    between atoms: N_2  and  C_4
REMARK    4  A    between atoms: C_4  and  C_5
REMARK    5  A    between atoms: C_5  and  C_6
REMARK    6  A    between atoms: C_9  and  C_10
REMARK    7  A    between atoms: C_10  and  N_11
REMARK                            x       y       z     vdW  Elec       q    Type
REMARK                         _______ _______ _______ _____ _____    ______ ____
ROOT
ATOM      1  C   UNL     1      46.945   7.289  12.906  0.00  0.00    +0.000 C 
ATOM      2  C   UNL     1      45.733   8.190  12.635  0.00  0.00    +0.000 C 
ATOM      3  C   UNL     1      44.788   7.564  11.617  0.00  0.00    +0.000 C 
ATOM      4  C   UNL     1      44.310   6.162  12.026  0.00  0.00    +0.000 C 
ATOM      5  C   UNL     1      45.506   5.266  12.397  0.00  0.00    +0.000 C 
ATOM      6  C   UNL     1      46.460   5.921  13.400  0.00  0.00    +0.000 C 
ENDROOT
BRANCH   1   7
ATOM      7  C   UNL     1      47.893   7.990  13.897  0.00  0.00    +0.000 C 
BRANCH   7   8
ATOM      8  C   UNL     1      48.908   7.073  14.599  0.00  0.00    +0.000 C 
BRANCH   8  10
ATOM      9  C   UNL     1      48.621   5.647  16.551  0.00  0.00    +0.000 C 
ATOM     10  N   UNL     1      48.774   7.019  16.066  0.00  0.00    +0.000 NA
ATOM     11  C   UNL     1      49.940   7.640  16.699  0.00  0.00    +0.000 C 
ENDBRANCH   8  10
ENDBRANCH   7   8
ENDBRANCH   1   7
BRANCH   4  12
ATOM     12  C   UNL     1      43.489   5.495  10.904  0.00  0.00    +0.000 C 
BRANCH  12  13
ATOM     13  N   UNL     1      43.944   4.170  10.512  0.00  0.00    +0.000 N 
ATOM     14  N   UNL     1      43.371   3.092  11.089  0.00  0.00    +0.000 NA
ATOM     15  C   UNL     1      43.896   2.059  10.432  0.00  0.00    +0.000 A 
ATOM     16  C   UNL     1      44.787   2.457   9.417  0.00  0.00    +0.000 A 
ATOM     17  C   UNL     1      45.542   1.794   8.432  0.00  0.00    +0.000 A 
ATOM     18  C   UNL     1      46.315   2.569   7.570  0.00  0.00    +0.000 A 
ATOM     19  F   UNL     1      47.013   1.958   6.600  0.00  0.00    +0.000 F 
ATOM     20  C   UNL     1      46.378   3.951   7.682  0.00  0.00    +0.000 A 
ATOM     21  C   UNL     1      45.643   4.624   8.666  0.00  0.00    +0.000 A 
ATOM     22  C   UNL     1      44.833   3.847   9.507  0.00  0.00    +0.000 A 
ENDBRANCH  12  13
ENDBRANCH   4  12
TORSDOF 5
ENDMDL
MODEL 5
REMARK VINA RESULT:    -6.519      3.260      7.905
REMARK INTER + INTRA:          -8.738
REMARK INTER:                  -8.167
REMARK INTRA:                  -0.571
REMARK UNBOUND:                -0.313
REMARK  Name = 
REMARK  7 active torsions:
REMARK  status: ('A' for Active; 'I' for Inactive)
REMARK    1  A    between atoms: C_1  and  N_2
REMARK    2  A    between atoms: N_2  and  C_3
REMARK    3  A    between atoms: N_2  and  C_4
REMARK    4  A    between atoms: C_4  and  C_5
REMARK    5  A    between atoms: C_5  and  C_6
REMARK    6  A    between atoms: C_9  and  C_10
REMARK    7  A    between atoms: C_10  and  N_11
REMARK                            x       y       z     vdW  Elec       q    Type
REMARK                         _______ _______ _______ _____ _____    ______ ____
ROOT
ATOM      1  C   UNL     1      44.644   4.014   9.411  0.00  0.00    +0.000 C 
ATOM      2  C   UNL     1      45.678   5.147   9.398  0.00  0.00    +0.000 C 
ATOM      3  C   UNL     1      45.673   5.924  10.708  0.00  0.00    +0.000 C 
ATOM      4  C   UNL     1      45.902   5.030  11.936  0.00  0.00    +0.000 C 
ATOM      5  C   UNL     1      44.938   3.829  11.922  0.00  0.00    +0.000 C 
ATOM      6  C   UNL     1      44.935   3.075  10.589  0.00  0.00    +0.000 C 
ENDROOT
BRANCH   1   7
ATOM      7  C   UNL     1      44.652   3.297   8.048  0.00  0.00    +0.000 C 
BRANCH   7   8
ATOM      8  C   UNL     1      45.971   3.392   7.262  0.00  0.00    +0.000 C 
BRANCH   8  10
ATOM      9  C   UNL     1      46.341   1.074   7.906  0.00  0.00    +0.000 C 
ATOM     10  N   UNL     1      46.967   2.363   7.609  0.00  0.00    +0.000 NA
ATOM     11  C   UNL     1      47.926   2.205   6.513  0.00  0.00    +0.000 C 
ENDBRANCH   8  10
ENDBRANCH   7   8
ENDBRANCH   1   7
BRANCH   4  12
ATOM     12  C   UNL     1      45.729   5.818  13.250  0.00  0.00    +0.000 C 
BRANCH  12  13
ATOM     13  N   UNL     1      46.963   6.098  13.969  0.00  0.00    +0.000 N 
ATOM     14  N   UNL     1      47.645   7.224  13.669  0.00  0.00    +0.000 NA
ATOM     15  C   UNL     1      48.624   7.255  14.573  0.00  0.00    +0.000 A 
ATOM     16  C   UNL     1      48.569   6.173  15.472  0.00  0.00    +0.000 A 
ATOM     17  C   UNL     1      49.303   5.775  16.604  0.00  0.00    +0.000 A 
ATOM     18  C   UNL     1      48.912   4.608  17.258  0.00  0.00    +0.000 A 
ATOM     19  F   UNL     1      49.576   4.232  18.362  0.00  0.00    +0.000 F 
ATOM     20  C   UNL     1      47.855   3.831  16.805  0.00  0.00    +0.000 A 
ATOM     21  C   UNL     1      47.124   4.207  15.672  0.00  0.00    +0.000 A 
ATOM     22  C   UNL     1      47.491   5.403  15.037  0.00  0.00    +0.000 A 
ENDBRANCH  12  13
ENDBRANCH   4  12
TORSDOF 5
ENDMDL
MODEL 6
REMARK VINA RESULT:    -6.364      3.717      7.327
REMARK INTER + INTRA:          -8.537
REMARK INTER:                  -8.083
REMARK INTRA:                  -0.455
REMARK UNBOUND:                -0.313
REMARK  Name = 
REMARK  7 active torsions:
REMARK  status: ('A' for Active; 'I' for Inactive)
REMARK    1  A    between atoms: C_1  and  N_2
REMARK    2  A    between atoms: N_2  and  C_3
REMARK    3  A    between atoms: N_2  and  C_4
REMARK    4  A    between atoms: C_4  and  C_5
REMARK    5  A    between atoms: C_5  and  C_6
REMARK    6  A    between atoms: C_9  and  C_10
REMARK    7  A    between atoms: C_10  and  N_11
REMARK                            x       y       z     vdW  Elec       q    Type
REMARK                         _______ _______ _______ _____ _____    ______ ____
ROOT
ATOM      1  C   UNL     1      44.549   3.944   9.743  0.00  0.00    +0.000 C 
ATOM      2  C   UNL     1      45.616   4.994   9.406  0.00  0.00    +0.000 C 
ATOM      3  C   UNL     1      45.676   6.089  10.464  0.00  0.00    +0.000 C 
ATOM      4  C   UNL     1      45.919   5.542  11.879  0.00  0.00    +0.000 C 
ATOM      5  C   UNL     1      44.920   4.416  12.206  0.00  0.00    +0.000 C 
ATOM      6  C   UNL     1      44.851   3.338  11.120  0.00  0.00    +0.000 C 
ENDROOT
BRANCH   1   7
ATOM      7  C   UNL     1      44.492   2.893   8.618  0.00  0.00    +0.000 C 
BRANCH   7   8
ATOM      8  C   UNL     1      45.512   1.749   8.734  0.00  0.00    +0.000 C 
BRANCH   8  10
ATOM      9  C   UNL     1      47.072   0.564   7.289  0.00  0.00    +0.000 C 
ATOM     10  N   UNL     1      46.668   1.864   7.827  0.00  0.00    +0.000 NA
ATOM     11  C   UNL     1      46.351   2.776   6.726  0.00  0.00    +0.000 C 
ENDBRANCH   8  10
ENDBRANCH   7   8
ENDBRANCH   1   7
BRANCH   4  12
ATOM     12  C   UNL     1      45.813   6.654  12.941  0.00  0.00    +0.000 C 
BRANCH  12  13
ATOM     13  N   UNL     1      46.237   7.973  12.498  0.00  0.00    +0.000 N 
ATOM     14  N   UNL     1      45.350   8.990  12.549  0.00  0.00    +0.000 NA
ATOM     15  C   UNL     1      46.069  10.060  12.216  0.00  0.00    +0.000 A 
ATOM     16  C   UNL     1      47.421   9.752  11.973  0.00  0.00    +0.000 A 
ATOM     17  C   UNL     1      48.574  10.493  11.652  0.00  0.00    +0.000 A 
ATOM     18  C   UNL     1      49.775   9.801  11.506  0.00  0.00    +0.000 A 
ATOM     19  F   UNL     1      50.892  10.494  11.238  0.00  0.00    +0.000 F 
ATOM     20  C   UNL     1      49.847   8.421  11.636  0.00  0.00    +0.000 A 
ATOM     21  C   UNL     1      48.706   7.668  11.940  0.00  0.00    +0.000 A 
ATOM     22  C   UNL     1      47.506   8.369  12.129  0.00  0.00    +0.000 A 
ENDBRANCH  12  13
ENDBRANCH   4  12
TORSDOF 5
ENDMDL
MODEL 7
REMARK VINA RESULT:    -6.321      3.022      7.443
REMARK INTER + INTRA:          -8.482
REMARK INTER:                  -7.862
REMARK INTRA:                  -0.620
REMARK UNBOUND:                -0.313
REMARK  Name = 
REMARK  7 active torsions:
REMARK  status: ('A' for Active; 'I' for Inactive)
REMARK    1  A    between atoms: C_1  and  N_2
REMARK    2  A    between atoms: N_2  and  C_3
REMARK    3  A    between atoms: N_2  and  C_4
REMARK    4  A    between atoms: C_4  and  C_5
REMARK    5  A    between atoms: C_5  and  C_6
REMARK    6  A    between atoms: C_9  and  C_10
REMARK    7  A    between atoms: C_10  and  N_11
REMARK                            x       y       z     vdW  Elec       q    Type
REMARK                         _______ _______ _______ _____ _____    ______ ____
ROOT
ATOM      1  C   UNL     1      44.735   3.659   8.898  0.00  0.00    +0.000 C 
ATOM      2  C   UNL     1      45.713   4.813   9.154  0.00  0.00    +0.000 C 
ATOM      3  C   UNL     1      45.475   5.456  10.514  0.00  0.00    +0.000 C 
ATOM      4  C   UNL     1      45.549   4.451  11.673  0.00  0.00    +0.000 C 
ATOM      5  C   UNL     1      44.648   3.233  11.396  0.00  0.00    +0.000 C 
ATOM      6  C   UNL     1      44.880   2.615  10.014  0.00  0.00    +0.000 C 
ENDROOT
BRANCH   1   7
ATOM      7  C   UNL     1      44.981   3.081   7.492  0.00  0.00    +0.000 C 
BRANCH   7   8
ATOM      8  C   UNL     1      46.293   3.518   6.821  0.00  0.00    +0.000 C 
BRANCH   8  10
ATOM      9  C   UNL     1      46.911   1.243   7.427  0.00  0.00    +0.000 C 
ATOM     10  N   UNL     1      47.374   2.518   6.879  0.00  0.00    +0.000 NA
ATOM     11  C   UNL     1      47.932   2.305   5.540  0.00  0.00    +0.000 C 
ENDBRANCH   8  10
ENDBRANCH   7   8
ENDBRANCH   1   7
BRANCH   4  12
ATOM     12  C   UNL     1      45.146   5.100  13.012  0.00  0.00    +0.000 C 
BRANCH  12  13
ATOM     13  N   UNL     1      46.244   5.349  13.933  0.00  0.00    +0.000 N 
ATOM     14  N   UNL     1      46.466   4.464  14.929  0.00  0.00    +0.000 NA
ATOM     15  C   UNL     1      47.594   4.893  15.494  0.00  0.00    +0.000 A 
ATOM     16  C   UNL     1      48.120   6.034  14.859  0.00  0.00    +0.000 A 
ATOM     17  C   UNL     1      49.273   6.825  15.017  0.00  0.00    +0.000 A 
ATOM     18  C   UNL     1      49.452   7.899  14.146  0.00  0.00    +0.000 A 
ATOM     19  F   UNL     1      50.564   8.642  14.257  0.00  0.00    +0.000 F 
ATOM     20  C   UNL     1      48.519   8.215  13.169  0.00  0.00    +0.000 A 
ATOM     21  C   UNL     1      47.360   7.446  13.008  0.00  0.00    +0.000 A 
ATOM     22  C   UNL     1      47.200   6.340  13.856  0.00  0.00    +0.000 A 
ENDBRANCH  12  13
ENDBRANCH   4  12
TORSDOF 5
ENDMDL
MODEL 8
REMARK VINA RESULT:    -5.986      3.919      5.196
REMARK INTER + INTRA:          -8.048
REMARK INTER:                  -7.505
REMARK INTRA:                  -0.543
REMARK UNBOUND:                -0.313
REMARK  Name = 
REMARK  7 active torsions:
REMARK  status: ('A' for Active; 'I' for Inactive)
REMARK    1  A    between atoms: C_1  and  N_2
REMARK    2  A    between atoms: N_2  and  C_3
REMARK    3  A    between atoms: N_2  and  C_4
REMARK    4  A    between atoms: C_4  and  C_5
REMARK    5  A    between atoms: C_5  and  C_6
REMARK    6  A    between atoms: C_9  and  C_10
REMARK    7  A    between atoms: C_10  and  N_11
REMARK                            x       y       z     vdW  Elec       q    Type
REMARK                         _______ _______ _______ _____ _____    ______ ____
ROOT
ATOM      1  C   UNL     1      49.277   8.939  11.798  0.00  0.00    +0.000 C 
ATOM      2  C   UNL     1      48.229   9.818  12.493  0.00  0.00    +0.000 C 
ATOM      3  C   UNL     1      46.813   9.427  12.087  0.00  0.00    +0.000 C 
ATOM      4  C   UNL     1      46.502   7.946  12.350  0.00  0.00    +0.000 C 
ATOM      5  C   UNL     1      47.594   7.045  11.744  0.00  0.00    +0.000 C 
ATOM      6  C   UNL     1      49.012   7.467  12.140  0.00  0.00    +0.000 C 
ENDROOT
BRANCH   1   7
ATOM      7  C   UNL     1      50.688   9.410  12.200  0.00  0.00    +0.000 C 
BRANCH   7   8
ATOM      8  C   UNL     1      51.772   9.232  11.125  0.00  0.00    +0.000 C 
BRANCH   8  10
ATOM      9  C   UNL     1      52.198   7.178   9.890  0.00  0.00    +0.000 C 
ATOM     10  N   UNL     1      52.433   7.915  11.132  0.00  0.00    +0.000 NA
ATOM     11  C   UNL     1      53.874   8.079  11.343  0.00  0.00    +0.000 C 
ENDBRANCH   8  10
ENDBRANCH   7   8
ENDBRANCH   1   7
BRANCH   4  12
ATOM     12  C   UNL     1      45.126   7.547  11.780  0.00  0.00    +0.000 C 
BRANCH  12  13
ATOM     13  N   UNL     1      44.768   6.148  11.952  0.00  0.00    +0.000 N 
ATOM     14  N   UNL     1      44.209   5.762  13.119  0.00  0.00    +0.000 NA
ATOM     15  C   UNL     1      43.882   4.487  12.912  0.00  0.00    +0.000 A 
ATOM     16  C   UNL     1      44.202   4.049  11.613  0.00  0.00    +0.000 A 
ATOM     17  C   UNL     1      44.026   2.855  10.889  0.00  0.00    +0.000 A 
ATOM     18  C   UNL     1      44.478   2.819   9.570  0.00  0.00    +0.000 A 
ATOM     19  F   UNL     1      44.285   1.703   8.851  0.00  0.00    +0.000 F 
ATOM     20  C   UNL     1      45.113   3.904   8.982  0.00  0.00    +0.000 A 
ATOM     21  C   UNL     1      45.307   5.094   9.695  0.00  0.00    +0.000 A 
ATOM     22  C   UNL     1      44.816   5.144  11.007  0.00  0.00    +0.000 A 
ENDBRANCH  12  13
ENDBRANCH   4  12
TORSDOF 5
ENDMDL
MODEL 9
REMARK VINA RESULT:    -5.833      3.163      3.939
REMARK INTER + INTRA:          -7.851
REMARK INTER:                  -7.375
REMARK INTRA:                  -0.476
REMARK UNBOUND:                -0.313
REMARK  Name = 
REMARK  7 active torsions:
REMARK  status: ('A' for Active; 'I' for Inactive)
REMARK    1  A    between atoms: C_1  and  N_2
REMARK    2  A    between atoms: N_2  and  C_3
REMARK    3  A    between atoms: N_2  and  C_4
REMARK    4  A    between atoms: C_4  and  C_5
REMARK    5  A    between atoms: C_5  and  C_6
REMARK    6  A    between atoms: C_9  and  C_10
REMARK    7  A    between atoms: C_10  and  N_11
REMARK                            x       y       z     vdW  Elec       q    Type
REMARK                         _______ _______ _______ _____ _____    ______ ____
ROOT
ATOM      1  C   UNL     1      48.002   8.785  12.714  0.00  0.00    +0.000 C 
ATOM      2  C   UNL     1      46.746   8.718  13.592  0.00  0.00    +0.000 C 
ATOM      3  C   UNL     1      45.549   8.179  12.817  0.00  0.00    +0.000 C 
ATOM      4  C   UNL     1      45.814   6.803  12.188  0.00  0.00    +0.000 C 
ATOM      5  C   UNL     1      47.124   6.818  11.378  0.00  0.00    +0.000 C 
ATOM      6  C   UNL     1      48.310   7.387  12.162  0.00  0.00    +0.000 C 
ENDROOT
BRANCH   1   7
ATOM      7  C   UNL     1      49.164   9.385  13.527  0.00  0.00    +0.000 C 
BRANCH   7   8
ATOM      8  C   UNL     1      50.527   8.701  13.329  0.00  0.00    +0.000 C 
BRANCH   8  10
ATOM      9  C   UNL     1      52.710   9.756  13.117  0.00  0.00    +0.000 C 
ATOM     10  N   UNL     1      51.454   9.426  12.443  0.00  0.00    +0.000 NA
ATOM     11  C   UNL     1      51.731   8.627  11.247  0.00  0.00    +0.000 C 
ENDBRANCH   8  10
ENDBRANCH   7   8
ENDBRANCH   1   7
BRANCH   4  12
ATOM     12  C   UNL     1      44.647   6.363  11.281  0.00  0.00    +0.000 C 
BRANCH  12  13
ATOM     13  N   UNL     1      44.662   4.961  10.893  0.00  0.00    +0.000 N 
ATOM     14  N   UNL     1      43.970   4.075  11.641  0.00  0.00    +0.000 NA
ATOM     15  C   UNL     1      44.070   2.934  10.962  0.00  0.00    +0.000 A 
ATOM     16  C   UNL     1      44.800   3.075   9.766  0.00  0.00    +0.000 A 
ATOM     17  C   UNL     1      45.142   2.228   8.696  0.00  0.00    +0.000 A 
ATOM     18  C   UNL     1      45.888   2.766   7.649  0.00  0.00    +0.000 A 
ATOM     19  F   UNL     1      46.191   1.984   6.602  0.00  0.00    +0.000 F 
ATOM     20  C   UNL     1      46.318   4.086   7.657  0.00  0.00    +0.000 A 
ATOM     21  C   UNL     1      45.998   4.938   8.721  0.00  0.00    +0.000 A 
ATOM     22  C   UNL     1      45.212   4.407   9.755  0.00  0.00    +0.000 A 
ENDBRANCH  12  13
ENDBRANCH   4  12
TORSDOF 5
ENDMDL
