MODEL 1
REMARK VINA RESULT:    -8.559      0.000      0.000
REMARK INTER + INTRA:         -11.504
REMARK INTER:                 -11.060
REMARK INTRA:                  -0.444
REMARK UNBOUND:                -0.444
REMARK  Name = 
REMARK  5 active torsions:
REMARK  status: ('A' for Active; 'I' for Inactive)
REMARK    1  A    between atoms: C_2  and  C_4
REMARK    2  A    between atoms: C_7  and  O_8
REMARK    3  A    between atoms: O_8  and  C_9
REMARK    4  A    between atoms: C_9  and  C_10
REMARK    5  A    between atoms: C_15  and  C_16
REMARK                            x       y       z     vdW  Elec       q    Type
REMARK                         _______ _______ _______ _____ _____    ______ ____
ROOT
ATOM      1  C   UNL     1      44.768   4.778  11.936  0.00  0.00    +0.000 A 
ATOM      2  C   UNL     1      45.404   3.885  12.803  0.00  0.00    +0.000 A 
ATOM      3  C   UNL     1      46.582   4.262  13.438  0.00  0.00    +0.000 A 
ATOM      4  F   UNL     1      47.188   3.397  14.261  0.00  0.00    +0.000 F 
ATOM      5  C   UNL     1      47.150   5.518  13.228  0.00  0.00    +0.000 A 
ATOM      6  C   UNL     1      46.528   6.442  12.374  0.00  0.00    +0.000 A 
ATOM      7  C   UNL     1      45.327   6.054  11.762  0.00  0.00    +0.000 A 
ENDROOT
BRANCH   6   8
ATOM      8  C   UNL     1      47.184   7.790  12.106  0.00  0.00    +0.000 C 
ATOM      9  C   UNL     1      48.674   7.719  11.733  0.00  0.00    +0.000 C 
ATOM     10  C   UNL     1      49.612   7.622  12.935  0.00  0.00    +0.000 C 
ATOM     11  N   UNL     1      49.348   8.642  13.949  0.00  0.00    +0.000 NA
ATOM     12  C   UNL     1      47.955   8.645  14.400  0.00  0.00    +0.000 C 
ATOM     13  C   UNL     1      46.965   8.800  13.248  0.00  0.00    +0.000 C 
ATOM     14  H   UNL     1      49.570   9.559  13.562  0.00  0.00    +0.000 HD
ENDBRANCH   6   8
BRANCH   1  15
ATOM     15  C   UNL     1      43.475   4.405  11.247  0.00  0.00    +0.000 C 
BRANCH  15  16
ATOM     16  O   UNL     1      43.582   4.623   9.834  0.00  0.00    +0.000 OA
BRANCH  16  20
ATOM     17  C   UNL     1      46.262   2.160   7.933  0.00  0.00    +0.000 A 
ATOM     18  C   UNL     1      46.371   3.520   7.674  0.00  0.00    +0.000 A 
ATOM     19  C   UNL     1      45.481   4.394   8.298  0.00  0.00    +0.000 A 
ATOM     20  C   UNL     1      44.518   3.891   9.163  0.00  0.00    +0.000 A 
ATOM     21  C   UNL     1      44.492   2.510   9.366  0.00  0.00    +0.000 A 
ATOM     22  N   UNL     1      45.334   1.625   8.772  0.00  0.00    +0.000 NA
BRANCH  17  24
ATOM     23  N   UNL     1      48.262   1.780   6.610  0.00  0.00    +0.000 N 
ATOM     24  C   UNL     1      47.206   1.209   7.263  0.00  0.00    +0.000 C 
ATOM     25  O   UNL     1      47.050  -0.005   7.300  0.00  0.00    +0.000 OA
ATOM     26  H   UNL     1      48.936   1.190   6.144  0.00  0.00    +0.000 HD
ATOM     27  H   UNL     1      48.366   2.789   6.608  0.00  0.00    +0.000 HD
ENDBRANCH  17  24
ENDBRANCH  16  20
ENDBRANCH  15  16
ENDBRANCH   1  15
TORSDOF 5
ENDMDL
MODEL 2
REMARK VINA RESULT:    -8.051      1.824      2.296
REMARK INTER + INTRA:         -10.848
REMARK INTER:                 -10.395
REMARK INTRA:                  -0.453
REMARK UNBOUND:                -0.444
REMARK  Name = 
REMARK  5 active torsions:
REMARK  status: ('A' for Active; 'I' for Inactive)
REMARK    1  A    between atoms: C_2  and  C_4
REMARK    2  A    between atoms: C_7  and  O_8
REMARK    3  A    between atoms: O_8  and  C_9
REMARK    4  A    between atoms: C_9  and  C_10
REMARK    5  A    between atoms: C_15  and  C_16
REMARK                            x       y       z     vdW  Elec       q    Type
REMARK                         _______ _______ _______ _____ _____    ______ ____
ROOT
ATOM      1  C   UNL     1      44.675   5.234  11.756  0.00  0.00    +0.000 A 
ATOM      2  C   UNL     1      43.959   6.397  11.461  0.00  0.00    +0.000 A 
ATOM      3  C   UNL     1      44.602   7.630  11.499  0.00  0.00    +0.000 A 
ATOM      4  F   UNL     1      43.905   8.740  11.222  0.00  0.00    +0.000 F 
ATOM      5  C   UNL     1      45.952   7.735  11.829  0.00  0.00    +0.000 A 
ATOM      6  C   UNL     1      46.701   6.584  12.118  0.00  0.00    +0.000 A 
ATOM      7  C   UNL     1      46.043   5.347  12.049  0.00  0.00    +0.000 A 
ENDROOT
BRANCH   6   8
ATOM      8  C   UNL     1      48.162   6.711  12.531  0.00  0.00    +0.000 C 
ATOM      9  C   UNL     1      48.390   6.875  14.043  0.00  0.00    +0.000 C 
ATOM     10  C   UNL     1      48.235   8.311  14.543  0.00  0.00    +0.000 C 
ATOM     11  N   UNL     1      49.010   9.274  13.762  0.00  0.00    +0.000 NA
ATOM     12  C   UNL     1      48.718   9.209  12.329  0.00  0.00    +0.000 C 
ATOM     13  C   UNL     1      48.911   7.807  11.754  0.00  0.00    +0.000 C 
ATOM     14  H   UNL     1      50.004   9.091  13.903  0.00  0.00    +0.000 HD
ENDBRANCH   6   8
BRANCH   1  15
ATOM     15  C   UNL     1      44.009   3.878  11.703  0.00  0.00    +0.000 C 
BRANCH  15  16
ATOM     16  O   UNL     1      43.554   3.597  10.372  0.00  0.00    +0.000 OA
BRANCH  16  20
ATOM     17  C   UNL     1      46.416   2.638   7.588  0.00  0.00    +0.000 A 
ATOM     18  C   UNL     1      46.021   3.968   7.644  0.00  0.00    +0.000 A 
ATOM     19  C   UNL     1      45.051   4.339   8.576  0.00  0.00    +0.000 A 
ATOM     20  C   UNL     1      44.511   3.381   9.423  0.00  0.00    +0.000 A 
ATOM     21  C   UNL     1      44.977   2.072   9.295  0.00  0.00    +0.000 A 
ATOM     22  N   UNL     1      45.913   1.668   8.398  0.00  0.00    +0.000 NA
BRANCH  17  24
ATOM     23  N   UNL     1      47.426   2.891   5.394  0.00  0.00    +0.000 N 
ATOM     24  C   UNL     1      47.451   2.224   6.587  0.00  0.00    +0.000 C 
ATOM     25  O   UNL     1      48.275   1.348   6.819  0.00  0.00    +0.000 OA
ATOM     26  H   UNL     1      48.103   2.661   4.681  0.00  0.00    +0.000 HD
ATOM     27  H   UNL     1      46.736   3.618   5.239  0.00  0.00    +0.000 HD
ENDBRANCH  17  24
ENDBRANCH  16  20
ENDBRANCH  15  16
ENDBRANCH   1  15
TORSDOF 5
ENDMDL
MODEL 3
REMARK VINA RESULT:    -7.589      4.915      7.712
REMARK INTER + INTRA:         -10.251
REMARK INTER:                  -9.718
REMARK INTRA:                  -0.534
REMARK UNBOUND:                -0.444
REMARK  Name = 
REMARK  5 active torsions:
REMARK  status: ('A' for Active; 'I' for Inactive)
REMARK    1  A    between atoms: C_2  and  C_4
REMARK    2  A    between atoms: C_7  and  O_8
REMARK    3  A    between atoms: O_8  and  C_9
REMARK    4  A    between atoms: C_9  and  C_10
REMARK    5  A    between atoms: C_15  and  C_16
REMARK                            x       y       z     vdW  Elec       q    Type
REMARK                         _______ _______ _______ _____ _____    ______ ____
ROOT
ATOM      1  C   UNL     1      46.722   4.914  14.071  0.00  0.00    +0.000 A 
ATOM      2  C   UNL     1      47.679   5.876  13.739  0.00  0.00    +0.000 A 
ATOM      3  C   UNL     1      47.563   6.580  12.544  0.00  0.00    +0.000 A 
ATOM      4  F   UNL     1      48.490   7.495  12.231  0.00  0.00    +0.000 F 
ATOM      5  C   UNL     1      46.510   6.344  11.662  0.00  0.00    +0.000 A 
ATOM      6  C   UNL     1      45.526   5.393  11.974  0.00  0.00    +0.000 A 
ATOM      7  C   UNL     1      45.645   4.712  13.194  0.00  0.00    +0.000 A 
ENDROOT
BRANCH   6   8
ATOM      8  C   UNL     1      44.409   5.102  10.980  0.00  0.00    +0.000 C 
ATOM      9  C   UNL     1      43.190   4.378  11.577  0.00  0.00    +0.000 C 
ATOM     10  C   UNL     1      43.353   2.862  11.673  0.00  0.00    +0.000 C 
ATOM     11  N   UNL     1      43.794   2.254  10.418  0.00  0.00    +0.000 NA
ATOM     12  C   UNL     1      45.021   2.857   9.896  0.00  0.00    +0.000 C 
ATOM     13  C   UNL     1      44.903   4.370   9.720  0.00  0.00    +0.000 C 
ATOM     14  H   UNL     1      43.055   2.358   9.723  0.00  0.00    +0.000 HD
ENDBRANCH   6   8
BRANCH   1  15
ATOM     15  C   UNL     1      46.810   4.147  15.371  0.00  0.00    +0.000 C 
BRANCH  15  16
ATOM     16  O   UNL     1      47.729   4.788  16.266  0.00  0.00    +0.000 OA
BRANCH  16  20
ATOM     17  C   UNL     1      50.865   2.354  17.317  0.00  0.00    +0.000 A 
ATOM     18  C   UNL     1      50.956   3.688  17.693  0.00  0.00    +0.000 A 
ATOM     19  C   UNL     1      49.913   4.551  17.357  0.00  0.00    +0.000 A 
ATOM     20  C   UNL     1      48.813   4.061  16.666  0.00  0.00    +0.000 A 
ATOM     21  C   UNL     1      48.809   2.705  16.338  0.00  0.00    +0.000 A 
ATOM     22  N   UNL     1      49.806   1.834  16.639  0.00  0.00    +0.000 NA
BRANCH  17  24
ATOM     23  N   UNL     1      51.605   0.189  18.130  0.00  0.00    +0.000 N 
ATOM     24  C   UNL     1      51.982   1.417  17.664  0.00  0.00    +0.000 C 
ATOM     25  O   UNL     1      53.160   1.725  17.535  0.00  0.00    +0.000 OA
ATOM     26  H   UNL     1      52.312  -0.488  18.376  0.00  0.00    +0.000 HD
ATOM     27  H   UNL     1      50.619  -0.035  18.216  0.00  0.00    +0.000 HD
ENDBRANCH  17  24
ENDBRANCH  16  20
ENDBRANCH  15  16
ENDBRANCH   1  15
TORSDOF 5
ENDMDL
MODEL 4
REMARK VINA RESULT:    -6.746      4.380      8.111
REMARK INTER + INTRA:          -9.162
REMARK INTER:                  -8.728
REMARK INTRA:                  -0.434
REMARK UNBOUND:                -0.444
REMARK  Name = 
REMARK  5 active torsions:
REMARK  status: ('A' for Active; 'I' for Inactive)
REMARK    1  A    between atoms: C_2  and  C_4
REMARK    2  A    between atoms: C_7  and  O_8
REMARK    3  A    between atoms: O_8  and  C_9
REMARK    4  A    between atoms: C_9  and  C_10
REMARK    5  A    between atoms: C_15  and  C_16
REMARK                            x       y       z     vdW  Elec       q    Type
REMARK                         _______ _______ _______ _____ _____    ______ ____
ROOT
ATOM      1  C   UNL     1      46.742   6.701  12.909  0.00  0.00    +0.000 A 
ATOM      2  C   UNL     1      46.494   8.076  12.883  0.00  0.00    +0.000 A 
ATOM      3  C   UNL     1      45.395   8.565  12.185  0.00  0.00    +0.000 A 
ATOM      4  F   UNL     1      45.170   9.885  12.160  0.00  0.00    +0.000 F 
ATOM      5  C   UNL     1      44.529   7.711  11.504  0.00  0.00    +0.000 A 
ATOM      6  C   UNL     1      44.743   6.324  11.522  0.00  0.00    +0.000 A 
ATOM      7  C   UNL     1      45.841   5.847  12.253  0.00  0.00    +0.000 A 
ENDROOT
BRANCH   6   8
ATOM      8  C   UNL     1      43.825   5.402  10.731  0.00  0.00    +0.000 C 
ATOM      9  C   UNL     1      42.823   4.606  11.583  0.00  0.00    +0.000 C 
ATOM     10  C   UNL     1      43.400   3.330  12.193  0.00  0.00    +0.000 C 
ATOM     11  N   UNL     1      44.080   2.485  11.212  0.00  0.00    +0.000 NA
ATOM     12  C   UNL     1      45.120   3.201  10.471  0.00  0.00    +0.000 C 
ATOM     13  C   UNL     1      44.591   4.460   9.785  0.00  0.00    +0.000 C 
ATOM     14  H   UNL     1      43.391   2.128  10.549  0.00  0.00    +0.000 HD
ENDBRANCH   6   8
BRANCH   1  15
ATOM     15  C   UNL     1      47.917   6.137  13.676  0.00  0.00    +0.000 C 
BRANCH  15  16
ATOM     16  O   UNL     1      47.552   4.904  14.310  0.00  0.00    +0.000 OA
BRANCH  16  20
ATOM     17  C   UNL     1      48.326   4.914  18.343  0.00  0.00    +0.000 A 
ATOM     18  C   UNL     1      47.570   3.856  17.855  0.00  0.00    +0.000 A 
ATOM     19  C   UNL     1      47.284   3.812  16.490  0.00  0.00    +0.000 A 
ATOM     20  C   UNL     1      47.761   4.814  15.656  0.00  0.00    +0.000 A 
ATOM     21  C   UNL     1      48.517   5.832  16.239  0.00  0.00    +0.000 A 
ATOM     22  N   UNL     1      48.811   5.917  17.562  0.00  0.00    +0.000 NA
BRANCH  17  24
ATOM     23  N   UNL     1      48.560   3.793  20.485  0.00  0.00    +0.000 N 
ATOM     24  C   UNL     1      48.634   4.978  19.808  0.00  0.00    +0.000 C 
ATOM     25  O   UNL     1      48.941   6.023  20.369  0.00  0.00    +0.000 OA
ATOM     26  H   UNL     1      48.763   3.771  21.473  0.00  0.00    +0.000 HD
ATOM     27  H   UNL     1      48.312   2.945  19.987  0.00  0.00    +0.000 HD
ENDBRANCH  17  24
ENDBRANCH  16  20
ENDBRANCH  15  16
ENDBRANCH   1  15
TORSDOF 5
ENDMDL
MODEL 5
REMARK VINA RESULT:    -6.744      4.130      7.317
REMARK INTER + INTRA:          -9.159
REMARK INTER:                  -9.004
REMARK INTRA:                  -0.156
REMARK UNBOUND:                -0.444
REMARK  Name = 
REMARK  5 active torsions:
REMARK  status: ('A' for Active; 'I' for Inactive)
REMARK    1  A    between atoms: C_2  and  C_4
REMARK    2  A    between atoms: C_7  and  O_8
REMARK    3  A    between atoms: O_8  and  C_9
REMARK    4  A    between atoms: C_9  and  C_10
REMARK    5  A    between atoms: C_15  and  C_16
REMARK                            x       y       z     vdW  Elec       q    Type
REMARK                         _______ _______ _______ _____ _____    ______ ____
ROOT
ATOM      1  C   UNL     1      47.304   7.434  12.214  0.00  0.00    +0.000 A 
ATOM      2  C   UNL     1      46.799   8.733  12.315  0.00  0.00    +0.000 A 
ATOM      3  C   UNL     1      45.469   8.982  11.992  0.00  0.00    +0.000 A 
ATOM      4  F   UNL     1      44.997  10.232  12.085  0.00  0.00    +0.000 F 
ATOM      5  C   UNL     1      44.622   7.960  11.566  0.00  0.00    +0.000 A 
ATOM      6  C   UNL     1      45.096   6.643  11.468  0.00  0.00    +0.000 A 
ATOM      7  C   UNL     1      46.432   6.406  11.821  0.00  0.00    +0.000 A 
ENDROOT
BRANCH   6   8
ATOM      8  C   UNL     1      44.180   5.542  10.949  0.00  0.00    +0.000 C 
ATOM      9  C   UNL     1      42.858   5.389  11.719  0.00  0.00    +0.000 C 
ATOM     10  C   UNL     1      42.972   4.548  12.989  0.00  0.00    +0.000 C 
ATOM     11  N   UNL     1      43.629   3.261  12.766  0.00  0.00    +0.000 NA
ATOM     12  C   UNL     1      44.943   3.398  12.136  0.00  0.00    +0.000 C 
ATOM     13  C   UNL     1      44.888   4.181  10.826  0.00  0.00    +0.000 C 
ATOM     14  H   UNL     1      43.035   2.687  12.166  0.00  0.00    +0.000 HD
ENDBRANCH   6   8
BRANCH   1  15
ATOM     15  C   UNL     1      48.740   7.128  12.577  0.00  0.00    +0.000 C 
BRANCH  15  16
ATOM     16  O   UNL     1      49.013   7.540  13.923  0.00  0.00    +0.000 OA
BRANCH  16  20
ATOM     17  C   UNL     1      47.911   4.713  16.691  0.00  0.00    +0.000 A 
ATOM     18  C   UNL     1      48.610   5.815  17.167  0.00  0.00    +0.000 A 
ATOM     19  C   UNL     1      49.004   6.800  16.262  0.00  0.00    +0.000 A 
ATOM     20  C   UNL     1      48.686   6.663  14.917  0.00  0.00    +0.000 A 
ATOM     21  C   UNL     1      47.975   5.525  14.535  0.00  0.00    +0.000 A 
ATOM     22  N   UNL     1      47.580   4.540  15.382  0.00  0.00    +0.000 NA
BRANCH  17  24
ATOM     23  N   UNL     1      48.180   3.594  18.829  0.00  0.00    +0.000 N 
ATOM     24  C   UNL     1      47.488   3.643  17.651  0.00  0.00    +0.000 C 
ATOM     25  O   UNL     1      46.577   2.864  17.404  0.00  0.00    +0.000 OA
ATOM     26  H   UNL     1      47.938   2.898  19.518  0.00  0.00    +0.000 HD
ATOM     27  H   UNL     1      48.923   4.261  19.004  0.00  0.00    +0.000 HD
ENDBRANCH  17  24
ENDBRANCH  16  20
ENDBRANCH  15  16
ENDBRANCH   1  15
TORSDOF 5
ENDMDL
MODEL 6
REMARK VINA RESULT:    -6.636      4.254      6.539
REMARK INTER + INTRA:          -9.019
REMARK INTER:                  -8.489
REMARK INTRA:                  -0.530
REMARK UNBOUND:                -0.444
REMARK  Name = 
REMARK  5 active torsions:
REMARK  status: ('A' for Active; 'I' for Inactive)
REMARK    1  A    between atoms: C_2  and  C_4
REMARK    2  A    between atoms: C_7  and  O_8
REMARK    3  A    between atoms: O_8  and  C_9
REMARK    4  A    between atoms: C_9  and  C_10
REMARK    5  A    between atoms: C_15  and  C_16
REMARK                            x       y       z     vdW  Elec       q    Type
REMARK                         _______ _______ _______ _____ _____    ______ ____
ROOT
ATOM      1  C   UNL     1      49.821   6.970  15.256  0.00  0.00    +0.000 A 
ATOM      2  C   UNL     1      51.158   7.356  15.380  0.00  0.00    +0.000 A 
ATOM      3  C   UNL     1      51.936   6.827  16.404  0.00  0.00    +0.000 A 
ATOM      4  F   UNL     1      53.214   7.209  16.520  0.00  0.00    +0.000 F 
ATOM      5  C   UNL     1      51.410   5.915  17.319  0.00  0.00    +0.000 A 
ATOM      6  C   UNL     1      50.074   5.498  17.212  0.00  0.00    +0.000 A 
ATOM      7  C   UNL     1      49.312   6.022  16.158  0.00  0.00    +0.000 A 
ENDROOT
BRANCH   6   8
ATOM      8  C   UNL     1      49.492   4.544  18.247  0.00  0.00    +0.000 C 
ATOM      9  C   UNL     1      49.363   3.085  17.777  0.00  0.00    +0.000 C 
ATOM     10  C   UNL     1      48.101   2.803  16.963  0.00  0.00    +0.000 C 
ATOM     11  N   UNL     1      46.882   3.280  17.615  0.00  0.00    +0.000 NA
ATOM     12  C   UNL     1      46.945   4.700  17.966  0.00  0.00    +0.000 C 
ATOM     13  C   UNL     1      48.157   5.037  18.833  0.00  0.00    +0.000 C 
ATOM     14  H   UNL     1      46.729   2.737  18.466  0.00  0.00    +0.000 HD
ENDBRANCH   6   8
BRANCH   1  15
ATOM     15  C   UNL     1      48.955   7.512  14.142  0.00  0.00    +0.000 C 
BRANCH  15  16
ATOM     16  O   UNL     1      48.754   6.511  13.135  0.00  0.00    +0.000 OA
BRANCH  16  20
ATOM     17  C   UNL     1      45.033   4.787  12.920  0.00  0.00    +0.000 A 
ATOM     18  C   UNL     1      45.202   5.992  12.250  0.00  0.00    +0.000 A 
ATOM     19  C   UNL     1      46.451   6.613  12.296  0.00  0.00    +0.000 A 
ATOM     20  C   UNL     1      47.489   6.016  12.998  0.00  0.00    +0.000 A 
ATOM     21  C   UNL     1      47.223   4.802  13.633  0.00  0.00    +0.000 A 
ATOM     22  N   UNL     1      46.022   4.169  13.620  0.00  0.00    +0.000 NA
BRANCH  17  24
ATOM     23  N   UNL     1      43.714   2.766  12.654  0.00  0.00    +0.000 N 
ATOM     24  C   UNL     1      43.695   4.113  12.885  0.00  0.00    +0.000 C 
ATOM     25  O   UNL     1      42.648   4.723  13.060  0.00  0.00    +0.000 OA
ATOM     26  H   UNL     1      42.844   2.255  12.625  0.00  0.00    +0.000 HD
ATOM     27  H   UNL     1      44.600   2.290  12.523  0.00  0.00    +0.000 HD
ENDBRANCH  17  24
ENDBRANCH  16  20
ENDBRANCH  15  16
ENDBRANCH   1  15
TORSDOF 5
ENDMDL
MODEL 7
REMARK VINA RESULT:    -6.575      4.515      6.547
REMARK INTER + INTRA:          -8.941
REMARK INTER:                  -8.237
REMARK INTRA:                  -0.704
REMARK UNBOUND:                -0.444
REMARK  Name = 
REMARK  5 active torsions:
REMARK  status: ('A' for Active; 'I' for Inactive)
REMARK    1  A    between atoms: C_2  and  C_4
REMARK    2  A    between atoms: C_7  and  O_8
REMARK    3  A    between atoms: O_8  and  C_9
REMARK    4  A    between atoms: C_9  and  C_10
REMARK    5  A    between atoms: C_15  and  C_16
REMARK                            x       y       z     vdW  Elec       q    Type
REMARK                         _______ _______ _______ _____ _____    ______ ____
ROOT
ATOM      1  C   UNL     1      48.953   7.279  15.608  0.00  0.00    +0.000 A 
ATOM      2  C   UNL     1      48.939   8.499  16.289  0.00  0.00    +0.000 A 
ATOM      3  C   UNL     1      49.426   8.569  17.590  0.00  0.00    +0.000 A 
ATOM      4  F   UNL     1      49.402   9.742  18.236  0.00  0.00    +0.000 F 
ATOM      5  C   UNL     1      49.929   7.441  18.237  0.00  0.00    +0.000 A 
ATOM      6  C   UNL     1      49.968   6.204  17.576  0.00  0.00    +0.000 A 
ATOM      7  C   UNL     1      49.497   6.159  16.256  0.00  0.00    +0.000 A 
ENDROOT
BRANCH   6   8
ATOM      8  C   UNL     1      50.468   4.966  18.309  0.00  0.00    +0.000 C 
ATOM      9  C   UNL     1      50.006   3.630  17.704  0.00  0.00    +0.000 C 
ATOM     10  C   UNL     1      48.609   3.196  18.145  0.00  0.00    +0.000 C 
ATOM     11  N   UNL     1      48.432   3.232  19.596  0.00  0.00    +0.000 NA
ATOM     12  C   UNL     1      48.758   4.536  20.175  0.00  0.00    +0.000 C 
ATOM     13  C   UNL     1      50.168   5.001  19.819  0.00  0.00    +0.000 C 
ATOM     14  H   UNL     1      49.033   2.525  20.020  0.00  0.00    +0.000 HD
ENDBRANCH   6   8
BRANCH   1  15
ATOM     15  C   UNL     1      48.450   7.176  14.186  0.00  0.00    +0.000 C 
BRANCH  15  16
ATOM     16  O   UNL     1      48.208   5.806  13.841  0.00  0.00    +0.000 OA
BRANCH  16  20
ATOM     17  C   UNL     1      44.586   4.687  12.263  0.00  0.00    +0.000 A 
ATOM     18  C   UNL     1      45.133   5.872  11.791  0.00  0.00    +0.000 A 
ATOM     19  C   UNL     1      46.363   6.291  12.299  0.00  0.00    +0.000 A 
ATOM     20  C   UNL     1      47.011   5.517  13.253  0.00  0.00    +0.000 A 
ATOM     21  C   UNL     1      46.384   4.338  13.660  0.00  0.00    +0.000 A 
ATOM     22  N   UNL     1      45.186   3.899  13.197  0.00  0.00    +0.000 NA
BRANCH  17  24
ATOM     23  N   UNL     1      42.268   5.168  11.720  0.00  0.00    +0.000 N 
ATOM     24  C   UNL     1      43.261   4.229  11.732  0.00  0.00    +0.000 C 
ATOM     25  O   UNL     1      43.076   3.088  11.326  0.00  0.00    +0.000 OA
ATOM     26  H   UNL     1      41.355   4.921  11.368  0.00  0.00    +0.000 HD
ATOM     27  H   UNL     1      42.459   6.106  12.055  0.00  0.00    +0.000 HD
ENDBRANCH  17  24
ENDBRANCH  16  20
ENDBRANCH  15  16
ENDBRANCH   1  15
TORSDOF 5
ENDMDL
MODEL 8
REMARK VINA RESULT:    -6.390      3.715      5.657
REMARK INTER + INTRA:          -8.701
REMARK INTER:                  -8.107
REMARK INTRA:                  -0.594
REMARK UNBOUND:                -0.444
REMARK  Name = 
REMARK  5 active torsions:
REMARK  status: ('A' for Active; 'I' for Inactive)
REMARK    1  A    between atoms: C_2  and  C_4
REMARK    2  A    between atoms: C_7  and  O_8
REMARK    3  A    between atoms: O_8  and  C_9
REMARK    4  A    between atoms: C_9  and  C_10
REMARK    5  A    between atoms: C_15  and  C_16
REMARK                            x       y       z     vdW  Elec       q    Type
REMARK                         _______ _______ _______ _____ _____    ______ ____
ROOT
ATOM      1  C   UNL     1      49.262   7.265  14.381  0.00  0.00    +0.000 A 
ATOM      2  C   UNL     1      50.494   7.924  14.382  0.00  0.00    +0.000 A 
ATOM      3  C   UNL     1      51.396   7.696  15.416  0.00  0.00    +0.000 A 
ATOM      4  F   UNL     1      52.572   8.337  15.412  0.00  0.00    +0.000 F 
ATOM      5  C   UNL     1      51.097   6.822  16.461  0.00  0.00    +0.000 A 
ATOM      6  C   UNL     1      49.873   6.137  16.481  0.00  0.00    +0.000 A 
ATOM      7  C   UNL     1      48.987   6.359  15.417  0.00  0.00    +0.000 A 
ENDROOT
BRANCH   6   8
ATOM      8  C   UNL     1      49.531   5.226  17.653  0.00  0.00    +0.000 C 
ATOM      9  C   UNL     1      48.626   4.035  17.300  0.00  0.00    +0.000 C 
ATOM     10  C   UNL     1      47.136   4.373  17.267  0.00  0.00    +0.000 C 
ATOM     11  N   UNL     1      46.682   5.070  18.469  0.00  0.00    +0.000 NA
ATOM     12  C   UNL     1      47.463   6.275  18.756  0.00  0.00    +0.000 C 
ATOM     13  C   UNL     1      48.961   5.992  18.860  0.00  0.00    +0.000 C 
ATOM     14  H   UNL     1      46.753   4.435  19.265  0.00  0.00    +0.000 HD
ENDBRANCH   6   8
BRANCH   1  15
ATOM     15  C   UNL     1      48.269   7.477  13.260  0.00  0.00    +0.000 C 
BRANCH  15  16
ATOM     16  O   UNL     1      46.952   7.098  13.683  0.00  0.00    +0.000 OA
BRANCH  16  20
ATOM     17  C   UNL     1      44.939   4.650  11.072  0.00  0.00    +0.000 A 
ATOM     18  C   UNL     1      45.237   4.120  12.321  0.00  0.00    +0.000 A 
ATOM     19  C   UNL     1      45.920   4.917  13.240  0.00  0.00    +0.000 A 
ATOM     20  C   UNL     1      46.278   6.213  12.892  0.00  0.00    +0.000 A 
ATOM     21  C   UNL     1      45.929   6.658  11.616  0.00  0.00    +0.000 A 
ATOM     22  N   UNL     1      45.272   5.913  10.690  0.00  0.00    +0.000 NA
BRANCH  17  24
ATOM     23  N   UNL     1      44.117   4.321   8.811  0.00  0.00    +0.000 N 
ATOM     24  C   UNL     1      44.213   3.802  10.072  0.00  0.00    +0.000 C 
ATOM     25  O   UNL     1      43.739   2.710  10.359  0.00  0.00    +0.000 OA
ATOM     26  H   UNL     1      43.644   3.794   8.092  0.00  0.00    +0.000 HD
ATOM     27  H   UNL     1      44.529   5.224   8.606  0.00  0.00    +0.000 HD
ENDBRANCH  17  24
ENDBRANCH  16  20
ENDBRANCH  15  16
ENDBRANCH   1  15
TORSDOF 5
ENDMDL
MODEL 9
REMARK VINA RESULT:    -6.362      4.953      6.922
REMARK INTER + INTRA:          -8.665
REMARK INTER:                  -8.001
REMARK INTRA:                  -0.664
REMARK UNBOUND:                -0.444
REMARK  Name = 
REMARK  5 active torsions:
REMARK  status: ('A' for Active; 'I' for Inactive)
REMARK    1  A    between atoms: C_2  and  C_4
REMARK    2  A    between atoms: C_7  and  O_8
REMARK    3  A    between atoms: O_8  and  C_9
REMARK    4  A    between atoms: C_9  and  C_10
REMARK    5  A    between atoms: C_15  and  C_16
REMARK                            x       y       z     vdW  Elec       q    Type
REMARK                         _______ _______ _______ _____ _____    ______ ____
ROOT
ATOM      1  C   UNL     1      46.813   5.060  14.104  0.00  0.00    +0.000 A 
ATOM      2  C   UNL     1      45.943   4.769  13.050  0.00  0.00    +0.000 A 
ATOM      3  C   UNL     1      45.882   5.621  11.953  0.00  0.00    +0.000 A 
ATOM      4  F   UNL     1      45.039   5.338  10.951  0.00  0.00    +0.000 F 
ATOM      5  C   UNL     1      46.672   6.768  11.879  0.00  0.00    +0.000 A 
ATOM      6  C   UNL     1      47.565   7.079  12.915  0.00  0.00    +0.000 A 
ATOM      7  C   UNL     1      47.632   6.195  14.002  0.00  0.00    +0.000 A 
ENDROOT
BRANCH   6   8
ATOM      8  C   UNL     1      48.384   8.362  12.852  0.00  0.00    +0.000 C 
ATOM      9  C   UNL     1      49.237   8.519  11.583  0.00  0.00    +0.000 C 
ATOM     10  C   UNL     1      50.580   7.791  11.641  0.00  0.00    +0.000 C 
ATOM     11  N   UNL     1      51.340   8.091  12.854  0.00  0.00    +0.000 NA
ATOM     12  C   UNL     1      50.578   7.836  14.078  0.00  0.00    +0.000 C 
ATOM     13  C   UNL     1      49.247   8.584  14.108  0.00  0.00    +0.000 C 
ATOM     14  H   UNL     1      51.615   9.073  12.837  0.00  0.00    +0.000 HD
ENDBRANCH   6   8
BRANCH   1  15
ATOM     15  C   UNL     1      46.917   4.142  15.302  0.00  0.00    +0.000 C 
BRANCH  15  16
ATOM     16  O   UNL     1      47.753   4.729  16.309  0.00  0.00    +0.000 OA
BRANCH  16  20
ATOM     17  C   UNL     1      50.914   2.322  17.344  0.00  0.00    +0.000 A 
ATOM     18  C   UNL     1      50.990   3.653  17.732  0.00  0.00    +0.000 A 
ATOM     19  C   UNL     1      49.938   4.507  17.401  0.00  0.00    +0.000 A 
ATOM     20  C   UNL     1      48.844   4.011  16.704  0.00  0.00    +0.000 A 
ATOM     21  C   UNL     1      48.856   2.658  16.364  0.00  0.00    +0.000 A 
ATOM     22  N   UNL     1      49.862   1.795  16.659  0.00  0.00    +0.000 NA
BRANCH  17  24
ATOM     23  N   UNL     1      51.677   0.154  18.128  0.00  0.00    +0.000 N 
ATOM     24  C   UNL     1      52.041   1.395  17.685  0.00  0.00    +0.000 C 
ATOM     25  O   UNL     1      53.216   1.720  17.570  0.00  0.00    +0.000 OA
ATOM     26  H   UNL     1      52.392  -0.517  18.368  0.00  0.00    +0.000 HD
ATOM     27  H   UNL     1      50.694  -0.085  18.202  0.00  0.00    +0.000 HD
ENDBRANCH  17  24
ENDBRANCH  16  20
ENDBRANCH  15  16
ENDBRANCH   1  15
TORSDOF 5
ENDMDL
