MODEL 1
REMARK VINA RESULT:    -6.658      0.000      0.000
REMARK INTER + INTRA:          -9.834
REMARK INTER:                  -8.994
REMARK INTRA:                  -0.840
REMARK UNBOUND:                -0.840
REMARK  Name = 
REMARK  8 active torsions:
REMARK  status: ('A' for Active; 'I' for Inactive)
REMARK    1  A    between atoms: C_1  and  C_2
REMARK    2  A    between atoms: C_2  and  C_3
REMARK    3  A    between atoms: C_2  and  C_9
REMARK    4  A    between atoms: N_16  and  C_17
REMARK    5  A    between atoms: C_17  and  CA_18
REMARK    6  A    between atoms: CA_18  and  N_19
REMARK    7  A    between atoms: CA_18  and  C_20
REMARK    8  A    between atoms: C_20  and  O_21
REMARK                            x       y       z     vdW  Elec       q    Type
REMARK                         _______ _______ _______ _____ _____    ______ ____
ROOT
ATOM      1  C   UNL     1      45.364   4.171  11.842  0.00  0.00    +0.000 A 
ATOM      2  C   UNL     1      45.804   3.297  12.904  0.00  0.00    +0.000 A 
ATOM      3  C   UNL     1      46.774   3.946  13.651  0.00  0.00    +0.000 A 
ATOM      4  N   UNL     1      46.945   5.157  13.077  0.00  0.00    +0.000 N 
ATOM      5  C   UNL     1      46.052   5.344  12.073  0.00  0.00    +0.000 A 
ATOM      6  C   UNL     1      46.205   6.709  11.533  0.00  0.00    +0.000 C 
ATOM      7  C   UNL     1      47.161   7.359  12.575  0.00  0.00    +0.000 C 
ATOM      8  N   UNL     1      47.852   6.235  13.261  0.00  0.00    +0.000 N 
ENDROOT
BRANCH   1  10
ATOM      9  C   UNL     1      43.270   4.869  10.619  0.00  0.00    +0.000 C 
ATOM     10  C   UNL     1      44.336   3.795  10.802  0.00  0.00    +0.000 C 
BRANCH  10  11
ATOM     11  C   UNL     1      45.045   3.361   9.524  0.00  0.00    +0.000 A 
ATOM     12  C   UNL     1      45.291   2.011   9.217  0.00  0.00    +0.000 A 
ATOM     13  C   UNL     1      46.057   1.651   8.104  0.00  0.00    +0.000 A 
ATOM     14  C   UNL     1      46.584   2.632   7.269  0.00  0.00    +0.000 A 
ATOM     15  C   UNL     1      46.327   3.975   7.537  0.00  0.00    +0.000 A 
ATOM     16  C   UNL     1      45.561   4.336   8.650  0.00  0.00    +0.000 A 
ENDBRANCH  10  11
ENDBRANCH   1  10
BRANCH   8  17
ATOM     17  C   UNL     1      48.208   6.543  14.649  0.00  0.00    +0.000 C 
BRANCH  17  18
ATOM     18  CA  UNL     1      49.293   7.655  14.747  0.00  0.00    +0.000 C 
BRANCH  18  19
ATOM     19  N   UNL     1      50.592   7.049  15.126  0.00  0.00    +0.000 NA
ATOM     20  H1  UNL     1      50.379   6.145  15.562  0.00  0.00    +0.000 HD
ATOM     21  H2  UNL     1      50.982   7.593  15.899  0.00  0.00    +0.000 HD
ENDBRANCH  18  19
BRANCH  18  22
ATOM     22  C   UNL     1      48.932   8.755  15.772  0.00  0.00    +0.000 C 
BRANCH  22  23
ATOM     23  O   UNL     1      47.546   9.097  15.690  0.00  0.00    +0.000 OA
ATOM     24  H   UNL     1      47.049   8.287  15.897  0.00  0.00    +0.000 HD
ENDBRANCH  22  23
ENDBRANCH  18  22
ENDBRANCH  17  18
ENDBRANCH   8  17
TORSDOF 7
ENDMDL
MODEL 2
REMARK VINA RESULT:    -6.225      1.355      1.454
REMARK INTER + INTRA:          -9.249
REMARK INTER:                  -8.403
REMARK INTRA:                  -0.846
REMARK UNBOUND:                -0.840
REMARK  Name = 
REMARK  8 active torsions:
REMARK  status: ('A' for Active; 'I' for Inactive)
REMARK    1  A    between atoms: C_1  and  C_2
REMARK    2  A    between atoms: C_2  and  C_3
REMARK    3  A    between atoms: C_2  and  C_9
REMARK    4  A    between atoms: N_16  and  C_17
REMARK    5  A    between atoms: C_17  and  CA_18
REMARK    6  A    between atoms: CA_18  and  N_19
REMARK    7  A    between atoms: CA_18  and  C_20
REMARK    8  A    between atoms: C_20  and  O_21
REMARK                            x       y       z     vdW  Elec       q    Type
REMARK                         _______ _______ _______ _____ _____    ______ ____
ROOT
ATOM      1  C   UNL     1      45.240   5.032  12.321  0.00  0.00    +0.000 A 
ATOM      2  C   UNL     1      46.074   4.251  13.205  0.00  0.00    +0.000 A 
ATOM      3  C   UNL     1      47.048   5.071  13.750  0.00  0.00    +0.000 A 
ATOM      4  N   UNL     1      46.847   6.299  13.222  0.00  0.00    +0.000 N 
ATOM      5  C   UNL     1      45.727   6.315  12.458  0.00  0.00    +0.000 A 
ATOM      6  C   UNL     1      45.486   7.690  11.976  0.00  0.00    +0.000 C 
ATOM      7  C   UNL     1      46.515   8.505  12.811  0.00  0.00    +0.000 C 
ATOM      8  N   UNL     1      47.549   7.534  13.259  0.00  0.00    +0.000 N 
ENDROOT
BRANCH   1  10
ATOM      9  C   UNL     1      42.945   5.465  11.367  0.00  0.00    +0.000 C 
ATOM     10  C   UNL     1      44.090   4.471  11.519  0.00  0.00    +0.000 C 
BRANCH  10  11
ATOM     11  C   UNL     1      44.621   3.888  10.215  0.00  0.00    +0.000 A 
ATOM     12  C   UNL     1      44.592   2.510   9.934  0.00  0.00    +0.000 A 
ATOM     13  C   UNL     1      45.203   1.992   8.788  0.00  0.00    +0.000 A 
ATOM     14  C   UNL     1      45.846   2.842   7.893  0.00  0.00    +0.000 A 
ATOM     15  C   UNL     1      45.861   4.214   8.135  0.00  0.00    +0.000 A 
ATOM     16  C   UNL     1      45.250   4.732   9.281  0.00  0.00    +0.000 A 
ENDBRANCH  10  11
ENDBRANCH   1  10
BRANCH   8  17
ATOM     17  C   UNL     1      48.151   7.890  14.546  0.00  0.00    +0.000 C 
BRANCH  17  18
ATOM     18  CA  UNL     1      49.706   7.915  14.482  0.00  0.00    +0.000 C 
BRANCH  18  19
ATOM     19  N   UNL     1      50.159   7.375  13.179  0.00  0.00    +0.000 NA
ATOM     20  H1  UNL     1      50.788   8.076  12.772  0.00  0.00    +0.000 HD
ATOM     21  H2  UNL     1      49.362   7.382  12.538  0.00  0.00    +0.000 HD
ENDBRANCH  18  19
BRANCH  18  22
ATOM     22  C   UNL     1      50.364   7.100  15.620  0.00  0.00    +0.000 C 
BRANCH  22  23
ATOM     23  O   UNL     1      49.605   5.924  15.914  0.00  0.00    +0.000 OA
ATOM     24  H   UNL     1      50.183   5.347  16.443  0.00  0.00    +0.000 HD
ENDBRANCH  22  23
ENDBRANCH  18  22
ENDBRANCH  17  18
ENDBRANCH   8  17
TORSDOF 7
ENDMDL
MODEL 3
REMARK VINA RESULT:    -5.906      1.896      2.817
REMARK INTER + INTRA:          -8.817
REMARK INTER:                  -8.004
REMARK INTRA:                  -0.813
REMARK UNBOUND:                -0.840
REMARK  Name = 
REMARK  8 active torsions:
REMARK  status: ('A' for Active; 'I' for Inactive)
REMARK    1  A    between atoms: C_1  and  C_2
REMARK    2  A    between atoms: C_2  and  C_3
REMARK    3  A    between atoms: C_2  and  C_9
REMARK    4  A    between atoms: N_16  and  C_17
REMARK    5  A    between atoms: C_17  and  CA_18
REMARK    6  A    between atoms: CA_18  and  N_19
REMARK    7  A    between atoms: CA_18  and  C_20
REMARK    8  A    between atoms: C_20  and  O_21
REMARK                            x       y       z     vdW  Elec       q    Type
REMARK                         _______ _______ _______ _____ _____    ______ ____
ROOT
ATOM      1  C   UNL     1      44.930   6.027  12.062  0.00  0.00    +0.000 A 
ATOM      2  C   UNL     1      44.919   7.391  11.587  0.00  0.00    +0.000 A 
ATOM      3  C   UNL     1      45.919   8.103  12.229  0.00  0.00    +0.000 A 
ATOM      4  N   UNL     1      46.514   7.235  13.077  0.00  0.00    +0.000 N 
ATOM      5  C   UNL     1      46.011   5.985  12.917  0.00  0.00    +0.000 A 
ATOM      6  C   UNL     1      46.748   5.048  13.788  0.00  0.00    +0.000 C 
ATOM      7  C   UNL     1      47.932   5.932  14.277  0.00  0.00    +0.000 C 
ATOM      8  N   UNL     1      47.499   7.344  14.095  0.00  0.00    +0.000 N 
ENDROOT
BRANCH   1  10
ATOM      9  C   UNL     1      42.553   5.507  11.398  0.00  0.00    +0.000 C 
ATOM     10  C   UNL     1      43.959   4.961  11.612  0.00  0.00    +0.000 C 
BRANCH  10  11
ATOM     11  C   UNL     1      44.550   4.207  10.426  0.00  0.00    +0.000 A 
ATOM     12  C   UNL     1      45.280   4.849   9.409  0.00  0.00    +0.000 A 
ATOM     13  C   UNL     1      45.698   4.154   8.270  0.00  0.00    +0.000 A 
ATOM     14  C   UNL     1      45.405   2.801   8.130  0.00  0.00    +0.000 A 
ATOM     15  C   UNL     1      44.711   2.137   9.139  0.00  0.00    +0.000 A 
ATOM     16  C   UNL     1      44.292   2.832  10.278  0.00  0.00    +0.000 A 
ENDBRANCH  10  11
ENDBRANCH   1  10
BRANCH   8  17
ATOM     17  C   UNL     1      48.613   8.254  13.815  0.00  0.00    +0.000 C 
BRANCH  17  18
ATOM     18  CA  UNL     1      49.800   7.533  13.111  0.00  0.00    +0.000 C 
BRANCH  18  19
ATOM     19  N   UNL     1      51.049   7.777  13.869  0.00  0.00    +0.000 NA
ATOM     20  H1  UNL     1      50.775   7.946  14.843  0.00  0.00    +0.000 HD
ATOM     21  H2  UNL     1      51.428   8.680  13.576  0.00  0.00    +0.000 HD
ENDBRANCH  18  19
BRANCH  18  22
ATOM     22  C   UNL     1      49.999   7.997  11.649  0.00  0.00    +0.000 C 
BRANCH  22  23
ATOM     23  O   UNL     1      51.109   7.328  11.046  0.00  0.00    +0.000 OA
ATOM     24  H   UNL     1      51.090   7.558  10.100  0.00  0.00    +0.000 HD
ENDBRANCH  22  23
ENDBRANCH  18  22
ENDBRANCH  17  18
ENDBRANCH   8  17
TORSDOF 7
ENDMDL
MODEL 4
REMARK VINA RESULT:    -5.800      3.194      6.585
REMARK INTER + INTRA:          -8.674
REMARK INTER:                  -7.876
REMARK INTRA:                  -0.799
REMARK UNBOUND:                -0.840
REMARK  Name = 
REMARK  8 active torsions:
REMARK  status: ('A' for Active; 'I' for Inactive)
REMARK    1  A    between atoms: C_1  and  C_2
REMARK    2  A    between atoms: C_2  and  C_3
REMARK    3  A    between atoms: C_2  and  C_9
REMARK    4  A    between atoms: N_16  and  C_17
REMARK    5  A    between atoms: C_17  and  CA_18
REMARK    6  A    between atoms: CA_18  and  N_19
REMARK    7  A    between atoms: CA_18  and  C_20
REMARK    8  A    between atoms: C_20  and  O_21
REMARK                            x       y       z     vdW  Elec       q    Type
REMARK                         _______ _______ _______ _____ _____    ______ ____
ROOT
ATOM      1  C   UNL     1      46.676   8.017  12.920  0.00  0.00    +0.000 A 
ATOM      2  C   UNL     1      45.527   8.445  12.157  0.00  0.00    +0.000 A 
ATOM      3  C   UNL     1      44.713   7.351  11.911  0.00  0.00    +0.000 A 
ATOM      4  N   UNL     1      45.329   6.288  12.475  0.00  0.00    +0.000 N 
ATOM      5  C   UNL     1      46.434   6.680  13.158  0.00  0.00    +0.000 A 
ATOM      6  C   UNL     1      47.026   5.510  13.838  0.00  0.00    +0.000 C 
ATOM      7  C   UNL     1      45.921   4.433  13.639  0.00  0.00    +0.000 C 
ATOM      8  N   UNL     1      45.103   4.885  12.482  0.00  0.00    +0.000 N 
ENDROOT
BRANCH   1  10
ATOM      9  C   UNL     1      48.173   8.749  14.814  0.00  0.00    +0.000 C 
ATOM     10  C   UNL     1      47.802   8.928  13.347  0.00  0.00    +0.000 C 
BRANCH  10  11
ATOM     11  C   UNL     1      48.960   8.795  12.364  0.00  0.00    +0.000 A 
ATOM     12  C   UNL     1      49.528   7.553  12.029  0.00  0.00    +0.000 A 
ATOM     13  C   UNL     1      50.670   7.473  11.226  0.00  0.00    +0.000 A 
ATOM     14  C   UNL     1      51.262   8.633  10.734  0.00  0.00    +0.000 A 
ATOM     15  C   UNL     1      50.699   9.872  11.029  0.00  0.00    +0.000 A 
ATOM     16  C   UNL     1      49.556   9.953  11.831  0.00  0.00    +0.000 A 
ENDBRANCH  10  11
ENDBRANCH   1  10
BRANCH   8  17
ATOM     17  C   UNL     1      43.703   4.462  12.568  0.00  0.00    +0.000 C 
BRANCH  17  18
ATOM     18  CA  UNL     1      43.248   3.671  11.307  0.00  0.00    +0.000 C 
BRANCH  18  19
ATOM     19  N   UNL     1      43.069   2.242  11.654  0.00  0.00    +0.000 NA
ATOM     20  H1  UNL     1      44.007   1.860  11.821  0.00  0.00    +0.000 HD
ATOM     21  H2  UNL     1      42.764   1.746  10.813  0.00  0.00    +0.000 HD
ENDBRANCH  18  19
BRANCH  18  22
ATOM     22  C   UNL     1      44.253   3.783  10.136  0.00  0.00    +0.000 C 
BRANCH  22  23
ATOM     23  O   UNL     1      43.739   4.623   9.099  0.00  0.00    +0.000 OA
ATOM     24  H   UNL     1      44.318   5.404   9.064  0.00  0.00    +0.000 HD
ENDBRANCH  22  23
ENDBRANCH  18  22
ENDBRANCH  17  18
ENDBRANCH   8  17
TORSDOF 7
ENDMDL
MODEL 5
REMARK VINA RESULT:    -5.757      1.920      2.997
REMARK INTER + INTRA:          -8.616
REMARK INTER:                  -8.650
REMARK INTRA:                   0.033
REMARK UNBOUND:                -0.840
REMARK  Name = 
REMARK  8 active torsions:
REMARK  status: ('A' for Active; 'I' for Inactive)
REMARK    1  A    between atoms: C_1  and  C_2
REMARK    2  A    between atoms: C_2  and  C_3
REMARK    3  A    between atoms: C_2  and  C_9
REMARK    4  A    between atoms: N_16  and  C_17
REMARK    5  A    between atoms: C_17  and  CA_18
REMARK    6  A    between atoms: CA_18  and  N_19
REMARK    7  A    between atoms: CA_18  and  C_20
REMARK    8  A    between atoms: C_20  and  O_21
REMARK                            x       y       z     vdW  Elec       q    Type
REMARK                         _______ _______ _______ _____ _____    ______ ____
ROOT
ATOM      1  C   UNL     1      45.468   3.544   9.873  0.00  0.00    +0.000 A 
ATOM      2  C   UNL     1      45.657   4.785   9.159  0.00  0.00    +0.000 A 
ATOM      3  C   UNL     1      45.615   5.837  10.059  0.00  0.00    +0.000 A 
ATOM      4  N   UNL     1      45.393   5.286  11.273  0.00  0.00    +0.000 N 
ATOM      5  C   UNL     1      45.404   3.932  11.195  0.00  0.00    +0.000 A 
ATOM      6  C   UNL     1      45.254   3.365  12.550  0.00  0.00    +0.000 C 
ATOM      7  C   UNL     1      45.418   4.628  13.444  0.00  0.00    +0.000 C 
ATOM      8  N   UNL     1      45.121   5.795  12.571  0.00  0.00    +0.000 N 
ENDROOT
BRANCH   1  10
ATOM      9  C   UNL     1      44.008   1.614   9.161  0.00  0.00    +0.000 C 
ATOM     10  C   UNL     1      45.420   2.184   9.218  0.00  0.00    +0.000 C 
BRANCH  10  11
ATOM     11  C   UNL     1      46.152   2.241   7.882  0.00  0.00    +0.000 A 
ATOM     12  C   UNL     1      47.202   1.364   7.557  0.00  0.00    +0.000 A 
ATOM     13  C   UNL     1      47.939   1.522   6.380  0.00  0.00    +0.000 A 
ATOM     14  C   UNL     1      47.633   2.555   5.497  0.00  0.00    +0.000 A 
ATOM     15  C   UNL     1      46.577   3.417   5.783  0.00  0.00    +0.000 A 
ATOM     16  C   UNL     1      45.840   3.258   6.962  0.00  0.00    +0.000 A 
ENDBRANCH  10  11
ENDBRANCH   1  10
BRANCH   8  17
ATOM     17  C   UNL     1      45.862   7.000  12.954  0.00  0.00    +0.000 C 
BRANCH  17  18
ATOM     18  CA  UNL     1      47.328   6.683  13.371  0.00  0.00    +0.000 C 
BRANCH  18  19
ATOM     19  N   UNL     1      47.632   7.347  14.661  0.00  0.00    +0.000 NA
ATOM     20  H1  UNL     1      47.103   8.226  14.672  0.00  0.00    +0.000 HD
ATOM     21  H2  UNL     1      48.604   7.663  14.634  0.00  0.00    +0.000 HD
ENDBRANCH  18  19
BRANCH  18  22
ATOM     22  C   UNL     1      48.362   7.138  12.315  0.00  0.00    +0.000 C 
BRANCH  22  23
ATOM     23  O   UNL     1      49.667   6.649  12.632  0.00  0.00    +0.000 OA
ATOM     24  H   UNL     1      49.557   5.720  12.900  0.00  0.00    +0.000 HD
ENDBRANCH  22  23
ENDBRANCH  18  22
ENDBRANCH  17  18
ENDBRANCH   8  17
TORSDOF 7
ENDMDL
MODEL 6
REMARK VINA RESULT:    -5.629      2.991      7.221
REMARK INTER + INTRA:          -8.443
REMARK INTER:                  -7.555
REMARK INTRA:                  -0.888
REMARK UNBOUND:                -0.840
REMARK  Name = 
REMARK  8 active torsions:
REMARK  status: ('A' for Active; 'I' for Inactive)
REMARK    1  A    between atoms: C_1  and  C_2
REMARK    2  A    between atoms: C_2  and  C_3
REMARK    3  A    between atoms: C_2  and  C_9
REMARK    4  A    between atoms: N_16  and  C_17
REMARK    5  A    between atoms: C_17  and  CA_18
REMARK    6  A    between atoms: CA_18  and  N_19
REMARK    7  A    between atoms: CA_18  and  C_20
REMARK    8  A    between atoms: C_20  and  O_21
REMARK                            x       y       z     vdW  Elec       q    Type
REMARK                         _______ _______ _______ _____ _____    ______ ____
ROOT
ATOM      1  C   UNL     1      46.960   7.768  12.501  0.00  0.00    +0.000 A 
ATOM      2  C   UNL     1      45.744   8.218  11.865  0.00  0.00    +0.000 A 
ATOM      3  C   UNL     1      44.873   7.147  11.744  0.00  0.00    +0.000 A 
ATOM      4  N   UNL     1      45.517   6.077  12.260  0.00  0.00    +0.000 N 
ATOM      5  C   UNL     1      46.706   6.446  12.800  0.00  0.00    +0.000 A 
ATOM      6  C   UNL     1      47.336   5.272  13.436  0.00  0.00    +0.000 C 
ATOM      7  C   UNL     1      46.183   4.229  13.395  0.00  0.00    +0.000 C 
ATOM      8  N   UNL     1      45.251   4.683  12.328  0.00  0.00    +0.000 N 
ENDROOT
BRANCH   1  10
ATOM      9  C   UNL     1      47.872  10.120  12.488  0.00  0.00    +0.000 C 
ATOM     10  C   UNL     1      48.156   8.650  12.771  0.00  0.00    +0.000 C 
BRANCH  10  11
ATOM     11  C   UNL     1      48.700   8.350  14.163  0.00  0.00    +0.000 A 
ATOM     12  C   UNL     1      48.111   8.864  15.332  0.00  0.00    +0.000 A 
ATOM     13  C   UNL     1      48.706   8.679  16.584  0.00  0.00    +0.000 A 
ATOM     14  C   UNL     1      49.898   7.967  16.693  0.00  0.00    +0.000 A 
ATOM     15  C   UNL     1      50.483   7.424  15.552  0.00  0.00    +0.000 A 
ATOM     16  C   UNL     1      49.888   7.608  14.300  0.00  0.00    +0.000 A 
ENDBRANCH  10  11
ENDBRANCH   1  10
BRANCH   8  17
ATOM     17  C   UNL     1      43.858   4.310  12.587  0.00  0.00    +0.000 C 
BRANCH  17  18
ATOM     18  CA  UNL     1      43.223   3.539  11.392  0.00  0.00    +0.000 C 
BRANCH  18  19
ATOM     19  N   UNL     1      43.029   2.117  11.765  0.00  0.00    +0.000 NA
ATOM     20  H1  UNL     1      42.468   1.691  11.019  0.00  0.00    +0.000 HD
ATOM     21  H2  UNL     1      42.404   2.083  12.573  0.00  0.00    +0.000 HD
ENDBRANCH  18  19
BRANCH  18  22
ATOM     22  C   UNL     1      44.084   3.610  10.109  0.00  0.00    +0.000 C 
BRANCH  22  23
ATOM     23  O   UNL     1      43.641   4.667   9.254  0.00  0.00    +0.000 OA
ATOM     24  H   UNL     1      44.006   4.479   8.371  0.00  0.00    +0.000 HD
ENDBRANCH  22  23
ENDBRANCH  18  22
ENDBRANCH  17  18
ENDBRANCH   8  17
TORSDOF 7
ENDMDL
MODEL 7
REMARK VINA RESULT:    -5.522      3.027      7.668
REMARK INTER + INTRA:          -8.299
REMARK INTER:                  -7.416
REMARK INTRA:                  -0.884
REMARK UNBOUND:                -0.840
REMARK  Name = 
REMARK  8 active torsions:
REMARK  status: ('A' for Active; 'I' for Inactive)
REMARK    1  A    between atoms: C_1  and  C_2
REMARK    2  A    between atoms: C_2  and  C_3
REMARK    3  A    between atoms: C_2  and  C_9
REMARK    4  A    between atoms: N_16  and  C_17
REMARK    5  A    between atoms: C_17  and  CA_18
REMARK    6  A    between atoms: CA_18  and  N_19
REMARK    7  A    between atoms: CA_18  and  C_20
REMARK    8  A    between atoms: C_20  and  O_21
REMARK                            x       y       z     vdW  Elec       q    Type
REMARK                         _______ _______ _______ _____ _____    ______ ____
ROOT
ATOM      1  C   UNL     1      48.577   6.838  14.445  0.00  0.00    +0.000 A 
ATOM      2  C   UNL     1      48.427   7.989  13.585  0.00  0.00    +0.000 A 
ATOM      3  C   UNL     1      47.455   7.720  12.635  0.00  0.00    +0.000 A 
ATOM      4  N   UNL     1      47.031   6.460  12.875  0.00  0.00    +0.000 N 
ATOM      5  C   UNL     1      47.609   5.964  13.997  0.00  0.00    +0.000 A 
ATOM      6  C   UNL     1      47.053   4.626  14.280  0.00  0.00    +0.000 C 
ATOM      7  C   UNL     1      45.868   4.553  13.275  0.00  0.00    +0.000 C 
ATOM      8  N   UNL     1      46.165   5.549  12.211  0.00  0.00    +0.000 N 
ENDROOT
BRANCH   1  10
ATOM      9  C   UNL     1      50.809   7.601  15.340  0.00  0.00    +0.000 C 
ATOM     10  C   UNL     1      49.570   6.747  15.579  0.00  0.00    +0.000 C 
BRANCH  10  11
ATOM     11  C   UNL     1      48.852   7.001  16.900  0.00  0.00    +0.000 A 
ATOM     12  C   UNL     1      48.362   5.958  17.707  0.00  0.00    +0.000 A 
ATOM     13  C   UNL     1      47.596   6.225  18.846  0.00  0.00    +0.000 A 
ATOM     14  C   UNL     1      47.314   7.539  19.207  0.00  0.00    +0.000 A 
ATOM     15  C   UNL     1      47.814   8.588  18.440  0.00  0.00    +0.000 A 
ATOM     16  C   UNL     1      48.581   8.322  17.301  0.00  0.00    +0.000 A 
ENDBRANCH  10  11
ENDBRANCH   1  10
BRANCH   8  17
ATOM     17  C   UNL     1      44.959   6.131  11.616  0.00  0.00    +0.000 C 
BRANCH  17  18
ATOM     18  CA  UNL     1      43.864   5.059  11.339  0.00  0.00    +0.000 C 
BRANCH  18  19
ATOM     19  N   UNL     1      43.679   4.904   9.877  0.00  0.00    +0.000 NA
ATOM     20  H1  UNL     1      43.295   5.791   9.532  0.00  0.00    +0.000 HD
ATOM     21  H2  UNL     1      42.913   4.244   9.722  0.00  0.00    +0.000 HD
ENDBRANCH  18  19
BRANCH  18  22
ATOM     22  C   UNL     1      42.503   5.415  11.983  0.00  0.00    +0.000 C 
BRANCH  22  23
ATOM     23  O   UNL     1      42.604   5.446  13.409  0.00  0.00    +0.000 OA
ATOM     24  H   UNL     1      42.679   4.521  13.701  0.00  0.00    +0.000 HD
ENDBRANCH  22  23
ENDBRANCH  18  22
ENDBRANCH  17  18
ENDBRANCH   8  17
TORSDOF 7
ENDMDL
MODEL 8
REMARK VINA RESULT:    -5.453      1.456      2.444
REMARK INTER + INTRA:          -8.206
REMARK INTER:                  -7.490
REMARK INTRA:                  -0.716
REMARK UNBOUND:                -0.840
REMARK  Name = 
REMARK  8 active torsions:
REMARK  status: ('A' for Active; 'I' for Inactive)
REMARK    1  A    between atoms: C_1  and  C_2
REMARK    2  A    between atoms: C_2  and  C_3
REMARK    3  A    between atoms: C_2  and  C_9
REMARK    4  A    between atoms: N_16  and  C_17
REMARK    5  A    between atoms: C_17  and  CA_18
REMARK    6  A    between atoms: CA_18  and  N_19
REMARK    7  A    between atoms: CA_18  and  C_20
REMARK    8  A    between atoms: C_20  and  O_21
REMARK                            x       y       z     vdW  Elec       q    Type
REMARK                         _______ _______ _______ _____ _____    ______ ____
ROOT
ATOM      1  C   UNL     1      44.927   5.831  12.170  0.00  0.00    +0.000 A 
ATOM      2  C   UNL     1      44.997   7.230  11.817  0.00  0.00    +0.000 A 
ATOM      3  C   UNL     1      46.023   7.826  12.532  0.00  0.00    +0.000 A 
ATOM      4  N   UNL     1      46.557   6.856  13.307  0.00  0.00    +0.000 N 
ATOM      5  C   UNL     1      45.989   5.655  13.031  0.00  0.00    +0.000 A 
ATOM      6  C   UNL     1      46.660   4.606  13.825  0.00  0.00    +0.000 C 
ATOM      7  C   UNL     1      47.881   5.377  14.404  0.00  0.00    +0.000 C 
ATOM      8  N   UNL     1      47.528   6.820  14.343  0.00  0.00    +0.000 N 
ENDROOT
BRANCH   1  10
ATOM      9  C   UNL     1      42.559   5.523  11.356  0.00  0.00    +0.000 C 
ATOM     10  C   UNL     1      43.908   4.864  11.616  0.00  0.00    +0.000 C 
BRANCH  10  11
ATOM     11  C   UNL     1      44.508   4.125  10.425  0.00  0.00    +0.000 A 
ATOM     12  C   UNL     1      45.202   4.786   9.395  0.00  0.00    +0.000 A 
ATOM     13  C   UNL     1      45.627   4.100   8.254  0.00  0.00    +0.000 A 
ATOM     14  C   UNL     1      45.379   2.737   8.124  0.00  0.00    +0.000 A 
ATOM     15  C   UNL     1      44.721   2.055   9.145  0.00  0.00    +0.000 A 
ATOM     16  C   UNL     1      44.295   2.741  10.287  0.00  0.00    +0.000 A 
ENDBRANCH  10  11
ENDBRANCH   1  10
BRANCH   8  17
ATOM     17  C   UNL     1      48.694   7.689  14.158  0.00  0.00    +0.000 C 
BRANCH  17  18
ATOM     18  CA  UNL     1      48.882   8.682  15.342  0.00  0.00    +0.000 C 
BRANCH  18  19
ATOM     19  N   UNL     1      47.576   9.285  15.698  0.00  0.00    +0.000 NA
ATOM     20  H1  UNL     1      47.096   9.490  14.814  0.00  0.00    +0.000 HD
ATOM     21  H2  UNL     1      47.750  10.214  16.087  0.00  0.00    +0.000 HD
ENDBRANCH  18  19
BRANCH  18  22
ATOM     22  C   UNL     1      49.887   9.813  15.019  0.00  0.00    +0.000 C 
BRANCH  22  23
ATOM     23  O   UNL     1      49.206  11.039  14.741  0.00  0.00    +0.000 OA
ATOM     24  H   UNL     1      48.673  10.884  13.941  0.00  0.00    +0.000 HD
ENDBRANCH  22  23
ENDBRANCH  18  22
ENDBRANCH  17  18
ENDBRANCH   8  17
TORSDOF 7
ENDMDL
MODEL 9
REMARK VINA RESULT:    -5.415      3.625      7.370
REMARK INTER + INTRA:          -8.154
REMARK INTER:                  -7.341
REMARK INTRA:                  -0.813
REMARK UNBOUND:                -0.840
REMARK  Name = 
REMARK  8 active torsions:
REMARK  status: ('A' for Active; 'I' for Inactive)
REMARK    1  A    between atoms: C_1  and  C_2
REMARK    2  A    between atoms: C_2  and  C_3
REMARK    3  A    between atoms: C_2  and  C_9
REMARK    4  A    between atoms: N_16  and  C_17
REMARK    5  A    between atoms: C_17  and  CA_18
REMARK    6  A    between atoms: CA_18  and  N_19
REMARK    7  A    between atoms: CA_18  and  C_20
REMARK    8  A    between atoms: C_20  and  O_21
REMARK                            x       y       z     vdW  Elec       q    Type
REMARK                         _______ _______ _______ _____ _____    ______ ____
ROOT
ATOM      1  C   UNL     1      48.492   5.902  16.187  0.00  0.00    +0.000 A 
ATOM      2  C   UNL     1      48.878   7.182  15.641  0.00  0.00    +0.000 A 
ATOM      3  C   UNL     1      48.438   7.266  14.330  0.00  0.00    +0.000 A 
ATOM      4  N   UNL     1      47.824   6.093  14.062  0.00  0.00    +0.000 N 
ATOM      5  C   UNL     1      47.759   5.319  15.175  0.00  0.00    +0.000 A 
ATOM      6  C   UNL     1      47.000   4.090  14.870  0.00  0.00    +0.000 C 
ATOM      7  C   UNL     1      46.419   4.415  13.464  0.00  0.00    +0.000 C 
ATOM      8  N   UNL     1      47.277   5.490  12.897  0.00  0.00    +0.000 N 
ENDROOT
BRANCH   1  10
ATOM      9  C   UNL     1      47.586   5.096  18.400  0.00  0.00    +0.000 C 
ATOM     10  C   UNL     1      48.828   5.437  17.584  0.00  0.00    +0.000 C 
BRANCH  10  11
ATOM     11  C   UNL     1      49.878   4.334  17.510  0.00  0.00    +0.000 A 
ATOM     12  C   UNL     1      49.545   2.985  17.292  0.00  0.00    +0.000 A 
ATOM     13  C   UNL     1      50.516   1.981  17.359  0.00  0.00    +0.000 A 
ATOM     14  C   UNL     1      51.841   2.306  17.633  0.00  0.00    +0.000 A 
ATOM     15  C   UNL     1      52.199   3.638  17.822  0.00  0.00    +0.000 A 
ATOM     16  C   UNL     1      51.229   4.644  17.756  0.00  0.00    +0.000 A 
ENDBRANCH  10  11
ENDBRANCH   1  10
BRANCH   8  17
ATOM     17  C   UNL     1      46.553   6.385  11.992  0.00  0.00    +0.000 C 
BRANCH  17  18
ATOM     18  CA  UNL     1      45.390   5.661  11.253  0.00  0.00    +0.000 C 
BRANCH  18  19
ATOM     19  N   UNL     1      45.666   5.636   9.797  0.00  0.00    +0.000 NA
ATOM     20  H1  UNL     1      45.964   4.680   9.570  0.00  0.00    +0.000 HD
ATOM     21  H2  UNL     1      46.510   6.187   9.624  0.00  0.00    +0.000 HD
ENDBRANCH  18  19
BRANCH  18  22
ATOM     22  C   UNL     1      44.018   6.334  11.493  0.00  0.00    +0.000 C 
BRANCH  22  23
ATOM     23  O   UNL     1      43.057   5.898  10.528  0.00  0.00    +0.000 OA
ATOM     24  H   UNL     1      42.650   5.092  10.890  0.00  0.00    +0.000 HD
ENDBRANCH  22  23
ENDBRANCH  18  22
ENDBRANCH  17  18
ENDBRANCH   8  17
TORSDOF 7
ENDMDL
