MODEL 1
REMARK VINA RESULT:    -8.301      0.000      0.000
REMARK INTER + INTRA:         -11.713
REMARK INTER:                 -10.727
REMARK INTRA:                  -0.986
REMARK UNBOUND:                -0.986
REMARK  Name = 
REMARK  5 active torsions:
REMARK  status: ('A' for Active; 'I' for Inactive)
REMARK    1  A    between atoms: C_2  and  C_4
REMARK    2  A    between atoms: C_7  and  O_8
REMARK    3  A    between atoms: O_8  and  C_9
REMARK    4  A    between atoms: C_9  and  C_10
REMARK    5  A    between atoms: C_14  and  C_15
REMARK                            x       y       z     vdW  Elec       q    Type
REMARK                         _______ _______ _______ _____ _____    ______ ____
ROOT
ATOM      1  C   UNL     1      43.887   4.852  11.367  0.00  0.00    +0.000 C 
ATOM      2  C   UNL     1      42.556   5.087  12.071  0.00  0.00    +0.000 C 
ATOM      3  C   UNL     1      43.015   6.044  11.020  0.00  0.00    +0.000 C 
ENDROOT
BRANCH   1   4
ATOM      4  C   UNL     1      45.168   5.044  12.159  0.00  0.00    +0.000 A 
ATOM      5  C   UNL     1      45.626   4.057  13.044  0.00  0.00    +0.000 A 
ATOM      6  C   UNL     1      46.841   4.195  13.715  0.00  0.00    +0.000 A 
ATOM      7  C   UNL     1      47.635   5.322  13.502  0.00  0.00    +0.000 A 
ATOM      8  C   UNL     1      47.235   6.337  12.620  0.00  0.00    +0.000 A 
ATOM      9  C   UNL     1      45.987   6.179  11.986  0.00  0.00    +0.000 A 
BRANCH   8  10
ATOM     10  C   UNL     1      48.107   7.483  12.305  0.00  0.00    +0.000 A 
ATOM     11  C   UNL     1      49.484   7.372  12.164  0.00  0.00    +0.000 A 
ATOM     12  N   UNL     1      50.313   8.378  11.809  0.00  0.00    +0.000 NA
ATOM     13  C   UNL     1      49.726   9.558  11.578  0.00  0.00    +0.000 A 
ATOM     14  N   UNL     1      48.416   9.815  11.691  0.00  0.00    +0.000 NA
ATOM     15  C   UNL     1      47.643   8.768  12.059  0.00  0.00    +0.000 A 
ENDBRANCH   8  10
ENDBRANCH   1   4
BRANCH   1  16
ATOM     16  O   UNL     1      43.820   3.668  10.534  0.00  0.00    +0.000 OA
BRANCH  16  20
ATOM     17  C   UNL     1      46.505   2.729   7.580  0.00  0.00    +0.000 A 
ATOM     18  C   UNL     1      46.211   4.077   7.741  0.00  0.00    +0.000 A 
ATOM     19  C   UNL     1      45.317   4.448   8.743  0.00  0.00    +0.000 A 
ATOM     20  C   UNL     1      44.752   3.472   9.553  0.00  0.00    +0.000 A 
ATOM     21  C   UNL     1      45.137   2.151   9.336  0.00  0.00    +0.000 A 
ATOM     22  N   UNL     1      45.994   1.744   8.368  0.00  0.00    +0.000 NA
BRANCH  17  24
ATOM     23  N   UNL     1      47.252   2.991   5.291  0.00  0.00    +0.000 N 
ATOM     24  C   UNL     1      47.405   2.300   6.456  0.00  0.00    +0.000 C 
ATOM     25  O   UNL     1      48.240   1.409   6.590  0.00  0.00    +0.000 OA
ATOM     26  H   UNL     1      47.867   2.790   4.516  0.00  0.00    +0.000 HD
ATOM     27  H   UNL     1      46.584   3.753   5.239  0.00  0.00    +0.000 HD
ENDBRANCH  17  24
ENDBRANCH  16  20
ENDBRANCH   1  16
TORSDOF 5
ENDMDL
MODEL 2
REMARK VINA RESULT:    -8.049      2.349      3.404
REMARK INTER + INTRA:         -11.387
REMARK INTER:                 -11.566
REMARK INTRA:                   0.179
REMARK UNBOUND:                -0.986
REMARK  Name = 
REMARK  5 active torsions:
REMARK  status: ('A' for Active; 'I' for Inactive)
REMARK    1  A    between atoms: C_2  and  C_4
REMARK    2  A    between atoms: C_7  and  O_8
REMARK    3  A    between atoms: O_8  and  C_9
REMARK    4  A    between atoms: C_9  and  C_10
REMARK    5  A    between atoms: C_14  and  C_15
REMARK                            x       y       z     vdW  Elec       q    Type
REMARK                         _______ _______ _______ _____ _____    ______ ____
ROOT
ATOM      1  C   UNL     1      43.844   4.923  11.267  0.00  0.00    +0.000 C 
ATOM      2  C   UNL     1      43.138   3.817  12.042  0.00  0.00    +0.000 C 
ATOM      3  C   UNL     1      42.582   5.204  12.062  0.00  0.00    +0.000 C 
ENDROOT
BRANCH   1   4
ATOM      4  C   UNL     1      45.192   5.411  11.769  0.00  0.00    +0.000 A 
ATOM      5  C   UNL     1      45.888   6.427  11.100  0.00  0.00    +0.000 A 
ATOM      6  C   UNL     1      47.089   6.931  11.599  0.00  0.00    +0.000 A 
ATOM      7  C   UNL     1      47.613   6.438  12.795  0.00  0.00    +0.000 A 
ATOM      8  C   UNL     1      46.954   5.429  13.515  0.00  0.00    +0.000 A 
ATOM      9  C   UNL     1      45.763   4.921  12.963  0.00  0.00    +0.000 A 
BRANCH   8  10
ATOM     10  C   UNL     1      47.439   4.969  14.830  0.00  0.00    +0.000 A 
ATOM     11  C   UNL     1      48.301   5.714  15.624  0.00  0.00    +0.000 A 
ATOM     12  N   UNL     1      48.715   5.365  16.861  0.00  0.00    +0.000 NA
ATOM     13  C   UNL     1      48.232   4.207  17.329  0.00  0.00    +0.000 A 
ATOM     14  N   UNL     1      47.409   3.381  16.671  0.00  0.00    +0.000 NA
ATOM     15  C   UNL     1      47.040   3.785  15.433  0.00  0.00    +0.000 A 
ENDBRANCH   8  10
ENDBRANCH   1   4
BRANCH   1  16
ATOM     16  O   UNL     1      43.738   4.693   9.841  0.00  0.00    +0.000 OA
BRANCH  16  20
ATOM     17  C   UNL     1      46.275   2.028   8.028  0.00  0.00    +0.000 A 
ATOM     18  C   UNL     1      46.407   3.360   7.653  0.00  0.00    +0.000 A 
ATOM     19  C   UNL     1      45.578   4.306   8.254  0.00  0.00    +0.000 A 
ATOM     20  C   UNL     1      44.654   3.900   9.208  0.00  0.00    +0.000 A 
ATOM     21  C   UNL     1      44.623   2.548   9.542  0.00  0.00    +0.000 A 
ATOM     22  N   UNL     1      45.401   1.593   8.977  0.00  0.00    +0.000 NA
BRANCH  17  24
ATOM     23  N   UNL     1      46.743  -0.308   7.593  0.00  0.00    +0.000 N 
ATOM     24  C   UNL     1      47.103   0.983   7.337  0.00  0.00    +0.000 C 
ATOM     25  O   UNL     1      48.019   1.272   6.572  0.00  0.00    +0.000 OA
ATOM     26  H   UNL     1      47.222  -1.056   7.114  0.00  0.00    +0.000 HD
ATOM     27  H   UNL     1      45.948  -0.502   8.194  0.00  0.00    +0.000 HD
ENDBRANCH  17  24
ENDBRANCH  16  20
ENDBRANCH   1  16
TORSDOF 5
ENDMDL
MODEL 3
REMARK VINA RESULT:    -7.285      1.494      2.406
REMARK INTER + INTRA:         -10.400
REMARK INTER:                 -10.791
REMARK INTRA:                   0.391
REMARK UNBOUND:                -0.986
REMARK  Name = 
REMARK  5 active torsions:
REMARK  status: ('A' for Active; 'I' for Inactive)
REMARK    1  A    between atoms: C_2  and  C_4
REMARK    2  A    between atoms: C_7  and  O_8
REMARK    3  A    between atoms: O_8  and  C_9
REMARK    4  A    between atoms: C_9  and  C_10
REMARK    5  A    between atoms: C_14  and  C_15
REMARK                            x       y       z     vdW  Elec       q    Type
REMARK                         _______ _______ _______ _____ _____    ______ ____
ROOT
ATOM      1  C   UNL     1      44.174   4.407  11.673  0.00  0.00    +0.000 C 
ATOM      2  C   UNL     1      44.846   3.228  12.364  0.00  0.00    +0.000 C 
ATOM      3  C   UNL     1      43.560   3.765  12.903  0.00  0.00    +0.000 C 
ENDROOT
BRANCH   1   4
ATOM      4  C   UNL     1      44.832   5.773  11.768  0.00  0.00    +0.000 A 
ATOM      5  C   UNL     1      44.161   6.930  11.348  0.00  0.00    +0.000 A 
ATOM      6  C   UNL     1      44.731   8.194  11.504  0.00  0.00    +0.000 A 
ATOM      7  C   UNL     1      45.984   8.328  12.103  0.00  0.00    +0.000 A 
ATOM      8  C   UNL     1      46.698   7.207  12.554  0.00  0.00    +0.000 A 
ATOM      9  C   UNL     1      46.106   5.946  12.348  0.00  0.00    +0.000 A 
BRANCH   8  10
ATOM     10  C   UNL     1      47.975   7.338  13.279  0.00  0.00    +0.000 A 
ATOM     11  C   UNL     1      48.267   6.625  14.434  0.00  0.00    +0.000 A 
ATOM     12  N   UNL     1      49.447   6.661  15.093  0.00  0.00    +0.000 NA
ATOM     13  C   UNL     1      50.385   7.451  14.557  0.00  0.00    +0.000 A 
ATOM     14  N   UNL     1      50.239   8.205  13.460  0.00  0.00    +0.000 NA
ATOM     15  C   UNL     1      49.032   8.131  12.854  0.00  0.00    +0.000 A 
ENDBRANCH   8  10
ENDBRANCH   1   4
BRANCH   1  16
ATOM     16  O   UNL     1      43.689   4.021  10.364  0.00  0.00    +0.000 OA
BRANCH  16  20
ATOM     17  C   UNL     1      46.422   2.751   7.582  0.00  0.00    +0.000 A 
ATOM     18  C   UNL     1      45.835   1.765   8.366  0.00  0.00    +0.000 A 
ATOM     19  C   UNL     1      44.887   2.145   9.314  0.00  0.00    +0.000 A 
ATOM     20  C   UNL     1      44.551   3.487   9.448  0.00  0.00    +0.000 A 
ATOM     21  C   UNL     1      45.169   4.395   8.591  0.00  0.00    +0.000 A 
ATOM     22  N   UNL     1      46.102   4.071   7.663  0.00  0.00    +0.000 NA
BRANCH  17  24
ATOM     23  N   UNL     1      47.580   3.153   5.494  0.00  0.00    +0.000 N 
ATOM     24  C   UNL     1      47.502   2.373   6.609  0.00  0.00    +0.000 C 
ATOM     25  O   UNL     1      48.279   1.445   6.821  0.00  0.00    +0.000 OA
ATOM     26  H   UNL     1      48.322   2.987   4.829  0.00  0.00    +0.000 HD
ATOM     27  H   UNL     1      46.950   3.940   5.382  0.00  0.00    +0.000 HD
ENDBRANCH  17  24
ENDBRANCH  16  20
ENDBRANCH   1  16
TORSDOF 5
ENDMDL
MODEL 4
REMARK VINA RESULT:    -7.283      3.179      7.153
REMARK INTER + INTRA:         -10.397
REMARK INTER:                  -9.947
REMARK INTRA:                  -0.450
REMARK UNBOUND:                -0.986
REMARK  Name = 
REMARK  5 active torsions:
REMARK  status: ('A' for Active; 'I' for Inactive)
REMARK    1  A    between atoms: C_2  and  C_4
REMARK    2  A    between atoms: C_7  and  O_8
REMARK    3  A    between atoms: O_8  and  C_9
REMARK    4  A    between atoms: C_9  and  C_10
REMARK    5  A    between atoms: C_14  and  C_15
REMARK                            x       y       z     vdW  Elec       q    Type
REMARK                         _______ _______ _______ _____ _____    ______ ____
ROOT
ATOM      1  C   UNL     1      46.242   7.265  12.418  0.00  0.00    +0.000 C 
ATOM      2  C   UNL     1      46.458   8.653  11.826  0.00  0.00    +0.000 C 
ATOM      3  C   UNL     1      45.712   8.506  13.111  0.00  0.00    +0.000 C 
ENDROOT
BRANCH   1   4
ATOM      4  C   UNL     1      45.291   6.317  11.709  0.00  0.00    +0.000 A 
ATOM      5  C   UNL     1      43.902   6.452  11.842  0.00  0.00    +0.000 A 
ATOM      6  C   UNL     1      43.024   5.632  11.133  0.00  0.00    +0.000 A 
ATOM      7  C   UNL     1      43.520   4.665  10.258  0.00  0.00    +0.000 A 
ATOM      8  C   UNL     1      44.901   4.491  10.074  0.00  0.00    +0.000 A 
ATOM      9  C   UNL     1      45.757   5.314  10.832  0.00  0.00    +0.000 A 
BRANCH   8  10
ATOM     10  C   UNL     1      45.441   3.546   9.079  0.00  0.00    +0.000 A 
ATOM     11  C   UNL     1      46.121   3.953   7.939  0.00  0.00    +0.000 A 
ATOM     12  N   UNL     1      46.691   3.123   7.037  0.00  0.00    +0.000 NA
ATOM     13  C   UNL     1      46.578   1.816   7.300  0.00  0.00    +0.000 A 
ATOM     14  N   UNL     1      45.940   1.282   8.349  0.00  0.00    +0.000 NA
ATOM     15  C   UNL     1      45.382   2.166   9.208  0.00  0.00    +0.000 A 
ENDBRANCH   8  10
ENDBRANCH   1   4
BRANCH   1  16
ATOM     16  O   UNL     1      47.500   6.698  12.859  0.00  0.00    +0.000 OA
BRANCH  16  20
ATOM     17  C   UNL     1      47.558   4.316  16.197  0.00  0.00    +0.000 A 
ATOM     18  C   UNL     1      48.316   5.479  16.255  0.00  0.00    +0.000 A 
ATOM     19  C   UNL     1      48.316   6.329  15.151  0.00  0.00    +0.000 A 
ATOM     20  C   UNL     1      47.559   6.002  14.033  0.00  0.00    +0.000 A 
ATOM     21  C   UNL     1      46.804   4.832  14.086  0.00  0.00    +0.000 A 
ATOM     22  N   UNL     1      46.783   3.971  15.132  0.00  0.00    +0.000 NA
BRANCH  17  24
ATOM     23  N   UNL     1      48.786   3.309  18.025  0.00  0.00    +0.000 N 
ATOM     24  C   UNL     1      47.605   3.347  17.344  0.00  0.00    +0.000 C 
ATOM     25  O   UNL     1      46.638   2.661  17.662  0.00  0.00    +0.000 OA
ATOM     26  H   UNL     1      48.863   2.720  18.842  0.00  0.00    +0.000 HD
ATOM     27  H   UNL     1      49.544   3.928  17.759  0.00  0.00    +0.000 HD
ENDBRANCH  17  24
ENDBRANCH  16  20
ENDBRANCH   1  16
TORSDOF 5
ENDMDL
MODEL 5
REMARK VINA RESULT:    -6.456      2.770      3.783
REMARK INTER + INTRA:          -9.329
REMARK INTER:                  -9.451
REMARK INTRA:                   0.121
REMARK UNBOUND:                -0.986
REMARK  Name = 
REMARK  5 active torsions:
REMARK  status: ('A' for Active; 'I' for Inactive)
REMARK    1  A    between atoms: C_2  and  C_4
REMARK    2  A    between atoms: C_7  and  O_8
REMARK    3  A    between atoms: O_8  and  C_9
REMARK    4  A    between atoms: C_9  and  C_10
REMARK    5  A    between atoms: C_14  and  C_15
REMARK                            x       y       z     vdW  Elec       q    Type
REMARK                         _______ _______ _______ _____ _____    ______ ____
ROOT
ATOM      1  C   UNL     1      44.284   4.569  11.723  0.00  0.00    +0.000 C 
ATOM      2  C   UNL     1      45.101   3.468  12.388  0.00  0.00    +0.000 C 
ATOM      3  C   UNL     1      43.748   3.810  12.922  0.00  0.00    +0.000 C 
ENDROOT
BRANCH   1   4
ATOM      4  C   UNL     1      44.752   6.007  11.871  0.00  0.00    +0.000 A 
ATOM      5  C   UNL     1      45.983   6.309  12.470  0.00  0.00    +0.000 A 
ATOM      6  C   UNL     1      46.451   7.621  12.539  0.00  0.00    +0.000 A 
ATOM      7  C   UNL     1      45.700   8.662  11.993  0.00  0.00    +0.000 A 
ATOM      8  C   UNL     1      44.466   8.420  11.371  0.00  0.00    +0.000 A 
ATOM      9  C   UNL     1      44.010   7.087  11.350  0.00  0.00    +0.000 A 
BRANCH   8  10
ATOM     10  C   UNL     1      43.709   9.492  10.700  0.00  0.00    +0.000 A 
ATOM     11  C   UNL     1      44.300  10.425   9.858  0.00  0.00    +0.000 A 
ATOM     12  N   UNL     1      43.637  11.381   9.169  0.00  0.00    +0.000 NA
ATOM     13  C   UNL     1      42.309  11.394   9.330  0.00  0.00    +0.000 A 
ATOM     14  N   UNL     1      41.608  10.570  10.118  0.00  0.00    +0.000 NA
ATOM     15  C   UNL     1      42.332   9.643  10.788  0.00  0.00    +0.000 A 
ENDBRANCH   8  10
ENDBRANCH   1   4
BRANCH   1  16
ATOM     16  O   UNL     1      43.872   4.165  10.395  0.00  0.00    +0.000 OA
BRANCH  16  20
ATOM     17  C   UNL     1      46.528   3.088   7.462  0.00  0.00    +0.000 A 
ATOM     18  C   UNL     1      46.456   4.442   7.761  0.00  0.00    +0.000 A 
ATOM     19  C   UNL     1      45.579   4.856   8.763  0.00  0.00    +0.000 A 
ATOM     20  C   UNL     1      44.812   3.913   9.435  0.00  0.00    +0.000 A 
ATOM     21  C   UNL     1      44.983   2.575   9.086  0.00  0.00    +0.000 A 
ATOM     22  N   UNL     1      45.813   2.130   8.113  0.00  0.00    +0.000 NA
BRANCH  17  24
ATOM     23  N   UNL     1      48.518   1.931   6.707  0.00  0.00    +0.000 N 
ATOM     24  C   UNL     1      47.407   2.628   6.333  0.00  0.00    +0.000 C 
ATOM     25  O   UNL     1      47.126   2.841   5.157  0.00  0.00    +0.000 OA
ATOM     26  H   UNL     1      49.119   1.545   5.993  0.00  0.00    +0.000 HD
ATOM     27  H   UNL     1      48.686   1.736   7.689  0.00  0.00    +0.000 HD
ENDBRANCH  17  24
ENDBRANCH  16  20
ENDBRANCH   1  16
TORSDOF 5
ENDMDL
MODEL 6
REMARK VINA RESULT:    -6.282      3.600      5.936
REMARK INTER + INTRA:          -9.104
REMARK INTER:                  -8.488
REMARK INTRA:                  -0.616
REMARK UNBOUND:                -0.986
REMARK  Name = 
REMARK  5 active torsions:
REMARK  status: ('A' for Active; 'I' for Inactive)
REMARK    1  A    between atoms: C_2  and  C_4
REMARK    2  A    between atoms: C_7  and  O_8
REMARK    3  A    between atoms: O_8  and  C_9
REMARK    4  A    between atoms: C_9  and  C_10
REMARK    5  A    between atoms: C_14  and  C_15
REMARK                            x       y       z     vdW  Elec       q    Type
REMARK                         _______ _______ _______ _____ _____    ______ ____
ROOT
ATOM      1  C   UNL     1      48.117   8.038  12.421  0.00  0.00    +0.000 C 
ATOM      2  C   UNL     1      48.946   9.043  11.631  0.00  0.00    +0.000 C 
ATOM      3  C   UNL     1      49.156   7.579  11.416  0.00  0.00    +0.000 C 
ENDROOT
BRANCH   1   4
ATOM      4  C   UNL     1      48.376   7.899  13.911  0.00  0.00    +0.000 A 
ATOM      5  C   UNL     1      48.582   9.027  14.718  0.00  0.00    +0.000 A 
ATOM      6  C   UNL     1      48.744   8.909  16.099  0.00  0.00    +0.000 A 
ATOM      7  C   UNL     1      48.686   7.654  16.706  0.00  0.00    +0.000 A 
ATOM      8  C   UNL     1      48.471   6.491  15.952  0.00  0.00    +0.000 A 
ATOM      9  C   UNL     1      48.346   6.645  14.557  0.00  0.00    +0.000 A 
BRANCH   8  10
ATOM     10  C   UNL     1      48.305   5.170  16.587  0.00  0.00    +0.000 A 
ATOM     11  C   UNL     1      49.260   4.606  17.422  0.00  0.00    +0.000 A 
ATOM     12  N   UNL     1      49.122   3.433  18.080  0.00  0.00    +0.000 NA
ATOM     13  C   UNL     1      47.959   2.798  17.893  0.00  0.00    +0.000 A 
ATOM     14  N   UNL     1      46.958   3.214  17.107  0.00  0.00    +0.000 NA
ATOM     15  C   UNL     1      47.164   4.390  16.470  0.00  0.00    +0.000 A 
ENDBRANCH   8  10
ENDBRANCH   1   4
BRANCH   1  16
ATOM     16  O   UNL     1      46.727   8.096  12.017  0.00  0.00    +0.000 OA
BRANCH  16  20
ATOM     17  C   UNL     1      44.692   4.560  11.593  0.00  0.00    +0.000 A 
ATOM     18  C   UNL     1      44.591   5.186  12.829  0.00  0.00    +0.000 A 
ATOM     19  C   UNL     1      45.251   6.399  13.017  0.00  0.00    +0.000 A 
ATOM     20  C   UNL     1      45.982   6.951  11.972  0.00  0.00    +0.000 A 
ATOM     21  C   UNL     1      45.993   6.264  10.760  0.00  0.00    +0.000 A 
ATOM     22  N   UNL     1      45.376   5.079  10.536  0.00  0.00    +0.000 NA
BRANCH  17  24
ATOM     23  N   UNL     1      43.793   2.519  12.536  0.00  0.00    +0.000 N 
ATOM     24  C   UNL     1      44.054   3.215  11.393  0.00  0.00    +0.000 C 
ATOM     25  O   UNL     1      43.761   2.788  10.279  0.00  0.00    +0.000 OA
ATOM     26  H   UNL     1      43.312   1.633  12.473  0.00  0.00    +0.000 HD
ATOM     27  H   UNL     1      44.007   2.930  13.439  0.00  0.00    +0.000 HD
ENDBRANCH  17  24
ENDBRANCH  16  20
ENDBRANCH   1  16
TORSDOF 5
ENDMDL
MODEL 7
REMARK VINA RESULT:    -6.038      4.440      8.499
REMARK INTER + INTRA:          -8.789
REMARK INTER:                  -7.895
REMARK INTRA:                  -0.894
REMARK UNBOUND:                -0.986
REMARK  Name = 
REMARK  5 active torsions:
REMARK  status: ('A' for Active; 'I' for Inactive)
REMARK    1  A    between atoms: C_2  and  C_4
REMARK    2  A    between atoms: C_7  and  O_8
REMARK    3  A    between atoms: O_8  and  C_9
REMARK    4  A    between atoms: C_9  and  C_10
REMARK    5  A    between atoms: C_14  and  C_15
REMARK                            x       y       z     vdW  Elec       q    Type
REMARK                         _______ _______ _______ _____ _____    ______ ____
ROOT
ATOM      1  C   UNL     1      48.990   7.623  13.161  0.00  0.00    +0.000 C 
ATOM      2  C   UNL     1      50.003   7.650  12.023  0.00  0.00    +0.000 C 
ATOM      3  C   UNL     1      49.873   8.834  12.925  0.00  0.00    +0.000 C 
ENDROOT
BRANCH   1   4
ATOM      4  C   UNL     1      47.512   7.672  12.815  0.00  0.00    +0.000 A 
ATOM      5  C   UNL     1      46.876   8.889  12.530  0.00  0.00    +0.000 A 
ATOM      6  C   UNL     1      45.538   8.931  12.138  0.00  0.00    +0.000 A 
ATOM      7  C   UNL     1      44.809   7.749  12.006  0.00  0.00    +0.000 A 
ATOM      8  C   UNL     1      45.395   6.501  12.266  0.00  0.00    +0.000 A 
ATOM      9  C   UNL     1      46.737   6.500  12.693  0.00  0.00    +0.000 A 
BRANCH   8  10
ATOM     10  C   UNL     1      44.671   5.237  12.033  0.00  0.00    +0.000 A 
ATOM     11  C   UNL     1      44.299   4.798  10.770  0.00  0.00    +0.000 A 
ATOM     12  N   UNL     1      43.697   3.618  10.503  0.00  0.00    +0.000 NA
ATOM     13  C   UNL     1      43.463   2.835  11.562  0.00  0.00    +0.000 A 
ATOM     14  N   UNL     1      43.752   3.134  12.835  0.00  0.00    +0.000 NA
ATOM     15  C   UNL     1      44.344   4.334  13.035  0.00  0.00    +0.000 A 
ENDBRANCH   8  10
ENDBRANCH   1   4
BRANCH   1  16
ATOM     16  O   UNL     1      49.379   6.655  14.166  0.00  0.00    +0.000 OA
BRANCH  16  20
ATOM     17  C   UNL     1      48.231   6.791  18.101  0.00  0.00    +0.000 A 
ATOM     18  C   UNL     1      48.605   7.998  17.526  0.00  0.00    +0.000 A 
ATOM     19  C   UNL     1      48.988   8.007  16.185  0.00  0.00    +0.000 A 
ATOM     20  C   UNL     1      48.979   6.820  15.462  0.00  0.00    +0.000 A 
ATOM     21  C   UNL     1      48.554   5.668  16.120  0.00  0.00    +0.000 A 
ATOM     22  N   UNL     1      48.184   5.612  17.422  0.00  0.00    +0.000 NA
BRANCH  17  24
ATOM     23  N   UNL     1      47.083   5.714  19.942  0.00  0.00    +0.000 N 
ATOM     24  C   UNL     1      47.891   6.745  19.563  0.00  0.00    +0.000 C 
ATOM     25  O   UNL     1      48.335   7.563  20.365  0.00  0.00    +0.000 OA
ATOM     26  H   UNL     1      46.865   5.593  20.920  0.00  0.00    +0.000 HD
ATOM     27  H   UNL     1      46.778   5.032  19.255  0.00  0.00    +0.000 HD
ENDBRANCH  17  24
ENDBRANCH  16  20
ENDBRANCH   1  16
TORSDOF 5
ENDMDL
MODEL 8
REMARK VINA RESULT:    -5.760      3.953      6.612
REMARK INTER + INTRA:          -8.430
REMARK INTER:                  -7.610
REMARK INTRA:                  -0.820
REMARK UNBOUND:                -0.986
REMARK  Name = 
REMARK  5 active torsions:
REMARK  status: ('A' for Active; 'I' for Inactive)
REMARK    1  A    between atoms: C_2  and  C_4
REMARK    2  A    between atoms: C_7  and  O_8
REMARK    3  A    between atoms: O_8  and  C_9
REMARK    4  A    between atoms: C_9  and  C_10
REMARK    5  A    between atoms: C_14  and  C_15
REMARK                            x       y       z     vdW  Elec       q    Type
REMARK                         _______ _______ _______ _____ _____    ______ ____
ROOT
ATOM      1  C   UNL     1      49.099   8.519  12.874  0.00  0.00    +0.000 C 
ATOM      2  C   UNL     1      50.283   9.317  12.342  0.00  0.00    +0.000 C 
ATOM      3  C   UNL     1      50.180   7.857  12.041  0.00  0.00    +0.000 C 
ENDROOT
BRANCH   1   4
ATOM      4  C   UNL     1      49.014   8.259  14.368  0.00  0.00    +0.000 A 
ATOM      5  C   UNL     1      49.007   9.318  15.287  0.00  0.00    +0.000 A 
ATOM      6  C   UNL     1      48.852   9.088  16.654  0.00  0.00    +0.000 A 
ATOM      7  C   UNL     1      48.683   7.788  17.131  0.00  0.00    +0.000 A 
ATOM      8  C   UNL     1      48.670   6.689  16.258  0.00  0.00    +0.000 A 
ATOM      9  C   UNL     1      48.863   6.957  14.889  0.00  0.00    +0.000 A 
BRANCH   8  10
ATOM     10  C   UNL     1      48.392   5.321  16.733  0.00  0.00    +0.000 A 
ATOM     11  C   UNL     1      48.967   4.784  17.877  0.00  0.00    +0.000 A 
ATOM     12  N   UNL     1      48.689   3.563  18.387  0.00  0.00    +0.000 NA
ATOM     13  C   UNL     1      47.780   2.848  17.714  0.00  0.00    +0.000 A 
ATOM     14  N   UNL     1      47.158   3.231  16.592  0.00  0.00    +0.000 NA
ATOM     15  C   UNL     1      47.488   4.459  16.129  0.00  0.00    +0.000 A 
ENDBRANCH   8  10
ENDBRANCH   1   4
BRANCH   1  16
ATOM     16  O   UNL     1      47.872   8.936  12.227  0.00  0.00    +0.000 OA
BRANCH  16  20
ATOM     17  C   UNL     1      44.611   6.524  11.619  0.00  0.00    +0.000 A 
ATOM     18  C   UNL     1      45.856   5.931  11.456  0.00  0.00    +0.000 A 
ATOM     19  C   UNL     1      46.996   6.705  11.668  0.00  0.00    +0.000 A 
ATOM     20  C   UNL     1      46.860   8.037  12.040  0.00  0.00    +0.000 A 
ATOM     21  C   UNL     1      45.568   8.530  12.212  0.00  0.00    +0.000 A 
ATOM     22  N   UNL     1      44.434   7.817  12.007  0.00  0.00    +0.000 NA
BRANCH  17  24
ATOM     23  N   UNL     1      42.205   6.284  11.759  0.00  0.00    +0.000 N 
ATOM     24  C   UNL     1      43.371   5.731  11.320  0.00  0.00    +0.000 C 
ATOM     25  O   UNL     1      43.406   4.673  10.697  0.00  0.00    +0.000 OA
ATOM     26  H   UNL     1      41.331   5.829  11.538  0.00  0.00    +0.000 HD
ATOM     27  H   UNL     1      42.217   7.185  12.227  0.00  0.00    +0.000 HD
ENDBRANCH  17  24
ENDBRANCH  16  20
ENDBRANCH   1  16
TORSDOF 5
ENDMDL
MODEL 9
REMARK VINA RESULT:    -5.652      3.792      5.912
REMARK INTER + INTRA:          -8.290
REMARK INTER:                  -7.433
REMARK INTRA:                  -0.856
REMARK UNBOUND:                -0.986
REMARK  Name = 
REMARK  5 active torsions:
REMARK  status: ('A' for Active; 'I' for Inactive)
REMARK    1  A    between atoms: C_2  and  C_4
REMARK    2  A    between atoms: C_7  and  O_8
REMARK    3  A    between atoms: O_8  and  C_9
REMARK    4  A    between atoms: C_9  and  C_10
REMARK    5  A    between atoms: C_14  and  C_15
REMARK                            x       y       z     vdW  Elec       q    Type
REMARK                         _______ _______ _______ _____ _____    ______ ____
ROOT
ATOM      1  C   UNL     1      48.831   7.186  13.858  0.00  0.00    +0.000 C 
ATOM      2  C   UNL     1      49.579   7.036  15.177  0.00  0.00    +0.000 C 
ATOM      3  C   UNL     1      48.244   7.706  15.157  0.00  0.00    +0.000 C 
ENDROOT
BRANCH   1   4
ATOM      4  C   UNL     1      49.378   8.152  12.821  0.00  0.00    +0.000 A 
ATOM      5  C   UNL     1      48.924   9.477  12.757  0.00  0.00    +0.000 A 
ATOM      6  C   UNL     1      49.477  10.389  11.859  0.00  0.00    +0.000 A 
ATOM      7  C   UNL     1      50.514   9.997  11.011  0.00  0.00    +0.000 A 
ATOM      8  C   UNL     1      51.018   8.687  11.038  0.00  0.00    +0.000 A 
ATOM      9  C   UNL     1      50.412   7.785  11.935  0.00  0.00    +0.000 A 
BRANCH   8  10
ATOM     10  C   UNL     1      52.180   8.283  10.224  0.00  0.00    +0.000 A 
ATOM     11  C   UNL     1      52.502   6.957   9.970  0.00  0.00    +0.000 A 
ATOM     12  N   UNL     1      53.514   6.542   9.175  0.00  0.00    +0.000 NA
ATOM     13  C   UNL     1      54.235   7.512   8.601  0.00  0.00    +0.000 A 
ATOM     14  N   UNL     1      54.048   8.828   8.767  0.00  0.00    +0.000 NA
ATOM     15  C   UNL     1      53.026   9.176   9.582  0.00  0.00    +0.000 A 
ENDBRANCH   8  10
ENDBRANCH   1   4
BRANCH   1  16
ATOM     16  O   UNL     1      48.406   5.892  13.364  0.00  0.00    +0.000 OA
BRANCH  16  20
ATOM     17  C   UNL     1      44.575   5.326  12.014  0.00  0.00    +0.000 A 
ATOM     18  C   UNL     1      45.359   6.215  11.289  0.00  0.00    +0.000 A 
ATOM     19  C   UNL     1      46.674   6.429  11.699  0.00  0.00    +0.000 A 
ATOM     20  C   UNL     1      47.166   5.749  12.807  0.00  0.00    +0.000 A 
ATOM     21  C   UNL     1      46.312   4.852  13.444  0.00  0.00    +0.000 A 
ATOM     22  N   UNL     1      45.025   4.622  13.088  0.00  0.00    +0.000 NA
BRANCH  17  24
ATOM     23  N   UNL     1      42.366   6.267  11.695  0.00  0.00    +0.000 N 
ATOM     24  C   UNL     1      43.132   5.141  11.637  0.00  0.00    +0.000 C 
ATOM     25  O   UNL     1      42.685   4.056  11.274  0.00  0.00    +0.000 OA
ATOM     26  H   UNL     1      41.402   6.221  11.398  0.00  0.00    +0.000 HD
ATOM     27  H   UNL     1      42.787   7.153  11.953  0.00  0.00    +0.000 HD
ENDBRANCH  17  24
ENDBRANCH  16  20
ENDBRANCH   1  16
TORSDOF 5
ENDMDL
