MODEL 1
REMARK VINA RESULT:    -7.138      0.000      0.000
REMARK INTER + INTRA:         -11.361
REMARK INTER:                 -10.059
REMARK INTRA:                  -1.302
REMARK UNBOUND:                -1.302
REMARK  Name = 
REMARK  7 active torsions:
REMARK  status: ('A' for Active; 'I' for Inactive)
REMARK    1  A    between atoms: C_2  and  C_3
REMARK    2  A    between atoms: C_6  and  C_7
REMARK    3  A    between atoms: N_9  and  C_10
REMARK    4  A    between atoms: C_10  and  C_11
REMARK    5  A    between atoms: C_14  and  C_15
REMARK    6  A    between atoms: C_15  and  N_16
REMARK    7  A    between atoms: C_17  and  C_19
REMARK                            x       y       z     vdW  Elec       q    Type
REMARK                         _______ _______ _______ _____ _____    ______ ____
ROOT
ATOM      1  C   UNL     1      50.383   7.600  14.934  0.00  0.00    +0.000 A 
ATOM      2  C   UNL     1      50.683   8.275  13.743  0.00  0.00    +0.000 A 
ATOM      3  C   UNL     1      49.731   8.373  12.722  0.00  0.00    +0.000 A 
ATOM      4  C   UNL     1      48.456   7.816  12.882  0.00  0.00    +0.000 A 
ATOM      5  C   UNL     1      48.161   7.134  14.070  0.00  0.00    +0.000 A 
ATOM      6  C   UNL     1      49.111   7.036  15.090  0.00  0.00    +0.000 A 
ENDROOT
BRANCH   1   7
ATOM      7  C   UNL     1      51.400   7.494  16.038  0.00  0.00    +0.000 C 
BRANCH   7  10
ATOM      8  C   UNL     1      51.894   5.482  17.331  0.00  0.00    +0.000 C 
ATOM      9  O   UNL     1      52.999   5.368  16.804  0.00  0.00    +0.000 OA
ATOM     10  N   UNL     1      51.027   6.500  17.016  0.00  0.00    +0.000 N 
ATOM     11  H   UNL     1      50.090   6.518  17.395  0.00  0.00    +0.000 HD
BRANCH   8  15
ATOM     12  C   UNL     1      49.396   3.680  17.317  0.00  0.00    +0.000 C 
ATOM     13  C   UNL     1      50.412   2.535  17.278  0.00  0.00    +0.000 C 
ATOM     14  C   UNL     1      51.664   3.045  18.000  0.00  0.00    +0.000 C 
ATOM     15  C   UNL     1      51.377   4.500  18.381  0.00  0.00    +0.000 C 
ATOM     16  C   UNL     1      49.850   4.537  18.495  0.00  0.00    +0.000 C 
BRANCH  12  18
ATOM     17  N   UNL     1      46.799   2.734  17.623  0.00  0.00    +0.000 NA
ATOM     18  C   UNL     1      47.977   3.163  17.484  0.00  0.00    +0.000 C 
ENDBRANCH  12  18
ENDBRANCH   8  15
ENDBRANCH   7  10
ENDBRANCH   1   7
BRANCH   4  19
ATOM     19  C   UNL     1      47.424   7.908  11.787  0.00  0.00    +0.000 C 
BRANCH  19  20
ATOM     20  N   UNL     1      46.767   6.643  11.579  0.00  0.00    +0.000 N 
ATOM     21  C   UNL     1      45.400   6.541  11.620  0.00  0.00    +0.000 C 
ATOM     22  O   UNL     1      44.680   7.522  11.785  0.00  0.00    +0.000 OA
ATOM     23  H   UNL     1      47.334   5.806  11.677  0.00  0.00    +0.000 HD
BRANCH  21  24
ATOM     24  C   UNL     1      44.834   5.205  11.394  0.00  0.00    +0.000 A 
ATOM     25  C   UNL     1      44.092   4.594  12.396  0.00  0.00    +0.000 A 
ATOM     26  S   UNL     1      43.461   3.073  11.951  0.00  0.00    +0.000 S 
ATOM     27  C   UNL     1      44.204   3.153  10.421  0.00  0.00    +0.000 A 
ATOM     28  N   UNL     1      44.077   2.133   9.530  0.00  0.00    +0.000 NA
ATOM     29  C   UNL     1      44.718   2.312   8.422  0.00  0.00    +0.000 A 
ATOM     30  N   UNL     1      45.467   3.420   8.125  0.00  0.00    +0.000 N 
ATOM     31  C   UNL     1      45.599   4.486   8.985  0.00  0.00    +0.000 A 
ATOM     32  O   UNL     1      46.247   5.479   8.669  0.00  0.00    +0.000 OA
ATOM     33  C   UNL     1      44.907   4.331  10.247  0.00  0.00    +0.000 A 
ATOM     34  H   UNL     1      45.938   3.501   7.236  0.00  0.00    +0.000 HD
ENDBRANCH  21  24
ENDBRANCH  19  20
ENDBRANCH   4  19
TORSDOF 7
ENDMDL
MODEL 2
REMARK VINA RESULT:    -6.853      3.502      5.165
REMARK INTER + INTRA:         -10.960
REMARK INTER:                  -9.777
REMARK INTRA:                  -1.183
REMARK UNBOUND:                -1.302
REMARK  Name = 
REMARK  7 active torsions:
REMARK  status: ('A' for Active; 'I' for Inactive)
REMARK    1  A    between atoms: C_2  and  C_3
REMARK    2  A    between atoms: C_6  and  C_7
REMARK    3  A    between atoms: N_9  and  C_10
REMARK    4  A    between atoms: C_10  and  C_11
REMARK    5  A    between atoms: C_14  and  C_15
REMARK    6  A    between atoms: C_15  and  N_16
REMARK    7  A    between atoms: C_17  and  C_19
REMARK                            x       y       z     vdW  Elec       q    Type
REMARK                         _______ _______ _______ _____ _____    ______ ____
ROOT
ATOM      1  C   UNL     1      51.369   4.397  17.800  0.00  0.00    +0.000 A 
ATOM      2  C   UNL     1      50.972   3.057  17.697  0.00  0.00    +0.000 A 
ATOM      3  C   UNL     1      49.664   2.729  17.325  0.00  0.00    +0.000 A 
ATOM      4  C   UNL     1      48.736   3.735  17.027  0.00  0.00    +0.000 A 
ATOM      5  C   UNL     1      49.132   5.074  17.139  0.00  0.00    +0.000 A 
ATOM      6  C   UNL     1      50.438   5.402  17.510  0.00  0.00    +0.000 A 
ENDROOT
BRANCH   1   7
ATOM      7  C   UNL     1      52.776   4.756  18.196  0.00  0.00    +0.000 C 
BRANCH   7  10
ATOM      8  C   UNL     1      54.435   3.043  18.723  0.00  0.00    +0.000 C 
ATOM      9  O   UNL     1      54.309   3.238  19.930  0.00  0.00    +0.000 OA
ATOM     10  N   UNL     1      53.722   3.748  17.783  0.00  0.00    +0.000 N 
ATOM     11  H   UNL     1      53.913   3.633  16.796  0.00  0.00    +0.000 HD
BRANCH   8  15
ATOM     12  C   UNL     1      54.155  -0.014  18.460  0.00  0.00    +0.000 C 
ATOM     13  C   UNL     1      54.148   0.272  16.955  0.00  0.00    +0.000 C 
ATOM     14  C   UNL     1      54.985   1.540  16.753  0.00  0.00    +0.000 C 
ATOM     15  C   UNL     1      55.401   2.007  18.152  0.00  0.00    +0.000 C 
ATOM     16  C   UNL     1      55.399   0.711  18.967  0.00  0.00    +0.000 C 
BRANCH  12  18
ATOM     17  N   UNL     1      54.223  -2.744  18.984  0.00  0.00    +0.000 NA
ATOM     18  C   UNL     1      54.192  -1.506  18.746  0.00  0.00    +0.000 C 
ENDBRANCH  12  18
ENDBRANCH   8  15
ENDBRANCH   7  10
ENDBRANCH   1   7
BRANCH   4  19
ATOM     19  C   UNL     1      47.321   3.395  16.632  0.00  0.00    +0.000 C 
BRANCH  19  20
ATOM     20  N   UNL     1      46.781   4.376  15.725  0.00  0.00    +0.000 N 
ATOM     21  C   UNL     1      46.773   4.159  14.371  0.00  0.00    +0.000 C 
ATOM     22  O   UNL     1      47.176   3.107  13.880  0.00  0.00    +0.000 OA
ATOM     23  H   UNL     1      46.667   5.321  16.080  0.00  0.00    +0.000 HD
BRANCH  21  24
ATOM     24  C   UNL     1      46.198   5.222  13.538  0.00  0.00    +0.000 A 
ATOM     25  C   UNL     1      46.907   6.399  13.340  0.00  0.00    +0.000 A 
ATOM     26  S   UNL     1      46.124   7.505  12.303  0.00  0.00    +0.000 S 
ATOM     27  C   UNL     1      44.783   6.471  12.127  0.00  0.00    +0.000 A 
ATOM     28  N   UNL     1      43.717   6.836  11.366  0.00  0.00    +0.000 NA
ATOM     29  C   UNL     1      42.756   5.972  11.345  0.00  0.00    +0.000 A 
ATOM     30  N   UNL     1      42.772   4.774  12.012  0.00  0.00    +0.000 N 
ATOM     31  C   UNL     1      43.840   4.353  12.769  0.00  0.00    +0.000 A 
ATOM     32  O   UNL     1      43.833   3.258  13.322  0.00  0.00    +0.000 OA
ATOM     33  C   UNL     1      44.940   5.293  12.834  0.00  0.00    +0.000 A 
ATOM     34  H   UNL     1      41.990   4.139  11.949  0.00  0.00    +0.000 HD
ENDBRANCH  21  24
ENDBRANCH  19  20
ENDBRANCH   4  19
TORSDOF 7
ENDMDL
MODEL 3
REMARK VINA RESULT:    -6.671      4.908      8.442
REMARK INTER + INTRA:         -10.703
REMARK INTER:                  -9.597
REMARK INTRA:                  -1.106
REMARK UNBOUND:                -1.302
REMARK  Name = 
REMARK  7 active torsions:
REMARK  status: ('A' for Active; 'I' for Inactive)
REMARK    1  A    between atoms: C_2  and  C_3
REMARK    2  A    between atoms: C_6  and  C_7
REMARK    3  A    between atoms: N_9  and  C_10
REMARK    4  A    between atoms: C_10  and  C_11
REMARK    5  A    between atoms: C_14  and  C_15
REMARK    6  A    between atoms: C_15  and  N_16
REMARK    7  A    between atoms: C_17  and  C_19
REMARK                            x       y       z     vdW  Elec       q    Type
REMARK                         _______ _______ _______ _____ _____    ______ ____
ROOT
ATOM      1  C   UNL     1      46.897   6.333  12.713  0.00  0.00    +0.000 A 
ATOM      2  C   UNL     1      47.052   6.967  11.474  0.00  0.00    +0.000 A 
ATOM      3  C   UNL     1      48.246   7.624  11.156  0.00  0.00    +0.000 A 
ATOM      4  C   UNL     1      49.314   7.639  12.062  0.00  0.00    +0.000 A 
ATOM      5  C   UNL     1      49.153   7.011  13.304  0.00  0.00    +0.000 A 
ATOM      6  C   UNL     1      47.962   6.356  13.623  0.00  0.00    +0.000 A 
ENDROOT
BRANCH   1   7
ATOM      7  C   UNL     1      45.617   5.622  13.061  0.00  0.00    +0.000 C 
BRANCH   7  10
ATOM      8  C   UNL     1      44.928   3.882  11.491  0.00  0.00    +0.000 C 
ATOM      9  O   UNL     1      45.552   3.022  12.111  0.00  0.00    +0.000 OA
ATOM     10  N   UNL     1      44.902   5.200  11.880  0.00  0.00    +0.000 N 
ATOM     11  H   UNL     1      44.459   5.901  11.302  0.00  0.00    +0.000 HD
BRANCH   8  15
ATOM     12  C   UNL     1      45.879   3.371   8.605  0.00  0.00    +0.000 C 
ATOM     13  C   UNL     1      45.352   1.954   8.847  0.00  0.00    +0.000 C 
ATOM     14  C   UNL     1      44.201   2.087   9.850  0.00  0.00    +0.000 C 
ATOM     15  C   UNL     1      44.129   3.570  10.227  0.00  0.00    +0.000 C 
ATOM     16  C   UNL     1      44.710   4.272   8.996  0.00  0.00    +0.000 C 
BRANCH  12  18
ATOM     17  N   UNL     1      46.670   3.733   5.964  0.00  0.00    +0.000 NA
ATOM     18  C   UNL     1      46.311   3.569   7.162  0.00  0.00    +0.000 C 
ENDBRANCH  12  18
ENDBRANCH   8  15
ENDBRANCH   7  10
ENDBRANCH   1   7
BRANCH   4  19
ATOM     19  C   UNL     1      50.603   8.349  11.734  0.00  0.00    +0.000 C 
BRANCH  19  20
ATOM     20  N   UNL     1      51.626   7.417  11.333  0.00  0.00    +0.000 N 
ATOM     21  C   UNL     1      52.458   7.691  10.279  0.00  0.00    +0.000 C 
ATOM     22  O   UNL     1      52.403   8.756   9.667  0.00  0.00    +0.000 OA
ATOM     23  H   UNL     1      51.534   6.460  11.662  0.00  0.00    +0.000 HD
BRANCH  21  24
ATOM     24  C   UNL     1      53.467   6.675   9.956  0.00  0.00    +0.000 A 
ATOM     25  C   UNL     1      54.445   6.356  10.889  0.00  0.00    +0.000 A 
ATOM     26  S   UNL     1      55.501   5.118  10.378  0.00  0.00    +0.000 S 
ATOM     27  C   UNL     1      54.723   5.002   8.869  0.00  0.00    +0.000 A 
ATOM     28  N   UNL     1      55.158   4.125   7.925  0.00  0.00    +0.000 NA
ATOM     29  C   UNL     1      54.496   4.165   6.816  0.00  0.00    +0.000 A 
ATOM     30  N   UNL     1      53.436   4.999   6.571  0.00  0.00    +0.000 N 
ATOM     31  C   UNL     1      52.946   5.881   7.506  0.00  0.00    +0.000 A 
ATOM     32  O   UNL     1      51.971   6.586   7.263  0.00  0.00    +0.000 OA
ATOM     33  C   UNL     1      53.661   5.883   8.765  0.00  0.00    +0.000 A 
ATOM     34  H   UNL     1      52.957   4.976   5.683  0.00  0.00    +0.000 HD
ENDBRANCH  21  24
ENDBRANCH  19  20
ENDBRANCH   4  19
TORSDOF 7
ENDMDL
MODEL 4
REMARK VINA RESULT:    -6.382      4.875      8.449
REMARK INTER + INTRA:         -10.296
REMARK INTER:                  -9.037
REMARK INTRA:                  -1.259
REMARK UNBOUND:                -1.302
REMARK  Name = 
REMARK  7 active torsions:
REMARK  status: ('A' for Active; 'I' for Inactive)
REMARK    1  A    between atoms: C_2  and  C_3
REMARK    2  A    between atoms: C_6  and  C_7
REMARK    3  A    between atoms: N_9  and  C_10
REMARK    4  A    between atoms: C_10  and  C_11
REMARK    5  A    between atoms: C_14  and  C_15
REMARK    6  A    between atoms: C_15  and  N_16
REMARK    7  A    between atoms: C_17  and  C_19
REMARK                            x       y       z     vdW  Elec       q    Type
REMARK                         _______ _______ _______ _____ _____    ______ ____
ROOT
ATOM      1  C   UNL     1      47.335   6.544  13.095  0.00  0.00    +0.000 A 
ATOM      2  C   UNL     1      48.363   6.741  14.025  0.00  0.00    +0.000 A 
ATOM      3  C   UNL     1      49.556   7.366  13.645  0.00  0.00    +0.000 A 
ATOM      4  C   UNL     1      49.733   7.824  12.333  0.00  0.00    +0.000 A 
ATOM      5  C   UNL     1      48.707   7.619  11.403  0.00  0.00    +0.000 A 
ATOM      6  C   UNL     1      47.515   6.995  11.781  0.00  0.00    +0.000 A 
ENDROOT
BRANCH   1   7
ATOM      7  C   UNL     1      46.048   5.877  13.497  0.00  0.00    +0.000 C 
BRANCH   7  10
ATOM      8  C   UNL     1      45.004   4.247  12.006  0.00  0.00    +0.000 C 
ATOM      9  O   UNL     1      45.483   3.307  12.636  0.00  0.00    +0.000 OA
ATOM     10  N   UNL     1      45.229   5.558  12.352  0.00  0.00    +0.000 N 
ATOM     11  H   UNL     1      44.900   6.312  11.763  0.00  0.00    +0.000 HD
BRANCH   8  15
ATOM     12  C   UNL     1      45.757   3.569   9.096  0.00  0.00    +0.000 C 
ATOM     13  C   UNL     1      45.028   2.252   9.378  0.00  0.00    +0.000 C 
ATOM     14  C   UNL     1      43.950   2.571  10.419  0.00  0.00    +0.000 C 
ATOM     15  C   UNL     1      44.120   4.050  10.775  0.00  0.00    +0.000 C 
ATOM     16  C   UNL     1      44.756   4.642   9.514  0.00  0.00    +0.000 C 
BRANCH  12  18
ATOM     17  N   UNL     1      46.495   3.780   6.423  0.00  0.00    +0.000 NA
ATOM     18  C   UNL     1      46.161   3.684   7.636  0.00  0.00    +0.000 C 
ENDBRANCH  12  18
ENDBRANCH   8  15
ENDBRANCH   7  10
ENDBRANCH   1   7
BRANCH   4  19
ATOM     19  C   UNL     1      51.016   8.492  11.910  0.00  0.00    +0.000 C 
BRANCH  19  20
ATOM     20  N   UNL     1      51.505   7.947  10.669  0.00  0.00    +0.000 N 
ATOM     21  C   UNL     1      52.811   7.552  10.536  0.00  0.00    +0.000 C 
ATOM     22  O   UNL     1      53.603   7.598  11.475  0.00  0.00    +0.000 OA
ATOM     23  H   UNL     1      50.948   8.119   9.837  0.00  0.00    +0.000 HD
BRANCH  21  24
ATOM     24  C   UNL     1      53.204   7.009   9.229  0.00  0.00    +0.000 A 
ATOM     25  C   UNL     1      53.608   5.685   9.129  0.00  0.00    +0.000 A 
ATOM     26  S   UNL     1      53.975   5.199   7.535  0.00  0.00    +0.000 S 
ATOM     27  C   UNL     1      53.660   6.759   6.930  0.00  0.00    +0.000 A 
ATOM     28  N   UNL     1      53.810   7.038   5.608  0.00  0.00    +0.000 NA
ATOM     29  C   UNL     1      53.569   8.268   5.292  0.00  0.00    +0.000 A 
ATOM     30  N   UNL     1      53.186   9.239   6.180  0.00  0.00    +0.000 N 
ATOM     31  C   UNL     1      52.995   8.995   7.520  0.00  0.00    +0.000 A 
ATOM     32  O   UNL     1      52.615   9.881   8.279  0.00  0.00    +0.000 OA
ATOM     33  C   UNL     1      53.263   7.631   7.928  0.00  0.00    +0.000 A 
ATOM     34  H   UNL     1      53.006  10.182   5.867  0.00  0.00    +0.000 HD
ENDBRANCH  21  24
ENDBRANCH  19  20
ENDBRANCH   4  19
TORSDOF 7
ENDMDL
MODEL 5
REMARK VINA RESULT:    -6.379      4.959      8.133
REMARK INTER + INTRA:         -10.292
REMARK INTER:                  -9.009
REMARK INTRA:                  -1.283
REMARK UNBOUND:                -1.302
REMARK  Name = 
REMARK  7 active torsions:
REMARK  status: ('A' for Active; 'I' for Inactive)
REMARK    1  A    between atoms: C_2  and  C_3
REMARK    2  A    between atoms: C_6  and  C_7
REMARK    3  A    between atoms: N_9  and  C_10
REMARK    4  A    between atoms: C_10  and  C_11
REMARK    5  A    between atoms: C_14  and  C_15
REMARK    6  A    between atoms: C_15  and  N_16
REMARK    7  A    between atoms: C_17  and  C_19
REMARK                            x       y       z     vdW  Elec       q    Type
REMARK                         _______ _______ _______ _____ _____    ______ ____
ROOT
ATOM      1  C   UNL     1      47.047   8.359  12.541  0.00  0.00    +0.000 A 
ATOM      2  C   UNL     1      47.741   9.522  12.185  0.00  0.00    +0.000 A 
ATOM      3  C   UNL     1      49.126   9.491  11.984  0.00  0.00    +0.000 A 
ATOM      4  C   UNL     1      49.837   8.291  12.113  0.00  0.00    +0.000 A 
ATOM      5  C   UNL     1      49.142   7.131  12.478  0.00  0.00    +0.000 A 
ATOM      6  C   UNL     1      47.760   7.161  12.680  0.00  0.00    +0.000 A 
ENDROOT
BRANCH   1   7
ATOM      7  C   UNL     1      45.558   8.384  12.755  0.00  0.00    +0.000 C 
BRANCH   7  10
ATOM      8  C   UNL     1      44.065   6.593  12.026  0.00  0.00    +0.000 C 
ATOM      9  O   UNL     1      43.636   7.277  11.098  0.00  0.00    +0.000 OA
ATOM     10  N   UNL     1      45.016   7.055  12.905  0.00  0.00    +0.000 N 
ATOM     11  H   UNL     1      45.282   6.508  13.713  0.00  0.00    +0.000 HD
BRANCH   8  15
ATOM     12  C   UNL     1      44.839   3.929  10.686  0.00  0.00    +0.000 C 
ATOM     13  C   UNL     1      45.438   3.593  12.055  0.00  0.00    +0.000 C 
ATOM     14  C   UNL     1      44.600   4.352  13.090  0.00  0.00    +0.000 C 
ATOM     15  C   UNL     1      43.577   5.171  12.297  0.00  0.00    +0.000 C 
ATOM     16  C   UNL     1      43.412   4.367  11.004  0.00  0.00    +0.000 C 
BRANCH  12  18
ATOM     17  N   UNL     1      44.928   1.747   8.965  0.00  0.00    +0.000 NA
ATOM     18  C   UNL     1      44.888   2.737   9.746  0.00  0.00    +0.000 C 
ENDBRANCH  12  18
ENDBRANCH   8  15
ENDBRANCH   7  10
ENDBRANCH   1   7
BRANCH   4  19
ATOM     19  C   UNL     1      51.329   8.246  11.906  0.00  0.00    +0.000 C 
BRANCH  19  20
ATOM     20  N   UNL     1      51.659   7.906  10.545  0.00  0.00    +0.000 N 
ATOM     21  C   UNL     1      52.676   8.545   9.884  0.00  0.00    +0.000 C 
ATOM     22  O   UNL     1      53.378   9.391  10.432  0.00  0.00    +0.000 OA
ATOM     23  H   UNL     1      50.959   7.396  10.014  0.00  0.00    +0.000 HD
BRANCH  21  24
ATOM     24  C   UNL     1      52.928   8.120   8.501  0.00  0.00    +0.000 A 
ATOM     25  C   UNL     1      52.775   9.031   7.464  0.00  0.00    +0.000 A 
ATOM     26  S   UNL     1      53.161   8.393   5.930  0.00  0.00    +0.000 S 
ATOM     27  C   UNL     1      53.494   6.860   6.591  0.00  0.00    +0.000 A 
ATOM     28  N   UNL     1      53.868   5.823   5.795  0.00  0.00    +0.000 NA
ATOM     29  C   UNL     1      54.058   4.711   6.424  0.00  0.00    +0.000 A 
ATOM     30  N   UNL     1      53.915   4.546   7.777  0.00  0.00    +0.000 N 
ATOM     31  C   UNL     1      53.566   5.574   8.623  0.00  0.00    +0.000 A 
ATOM     32  O   UNL     1      53.484   5.398   9.834  0.00  0.00    +0.000 OA
ATOM     33  C   UNL     1      53.331   6.842   7.965  0.00  0.00    +0.000 A 
ATOM     34  H   UNL     1      54.085   3.650   8.209  0.00  0.00    +0.000 HD
ENDBRANCH  21  24
ENDBRANCH  19  20
ENDBRANCH   4  19
TORSDOF 7
ENDMDL
MODEL 6
REMARK VINA RESULT:    -6.373      3.801      5.922
REMARK INTER + INTRA:         -10.283
REMARK INTER:                  -9.146
REMARK INTRA:                  -1.138
REMARK UNBOUND:                -1.302
REMARK  Name = 
REMARK  7 active torsions:
REMARK  status: ('A' for Active; 'I' for Inactive)
REMARK    1  A    between atoms: C_2  and  C_3
REMARK    2  A    between atoms: C_6  and  C_7
REMARK    3  A    between atoms: N_9  and  C_10
REMARK    4  A    between atoms: C_10  and  C_11
REMARK    5  A    between atoms: C_14  and  C_15
REMARK    6  A    between atoms: C_15  and  N_16
REMARK    7  A    between atoms: C_17  and  C_19
REMARK                            x       y       z     vdW  Elec       q    Type
REMARK                         _______ _______ _______ _____ _____    ______ ____
ROOT
ATOM      1  C   UNL     1      50.991   8.226  12.438  0.00  0.00    +0.000 A 
ATOM      2  C   UNL     1      50.143   7.985  11.349  0.00  0.00    +0.000 A 
ATOM      3  C   UNL     1      48.757   7.915  11.529  0.00  0.00    +0.000 A 
ATOM      4  C   UNL     1      48.193   8.108  12.797  0.00  0.00    +0.000 A 
ATOM      5  C   UNL     1      49.044   8.340  13.885  0.00  0.00    +0.000 A 
ATOM      6  C   UNL     1      50.427   8.409  13.707  0.00  0.00    +0.000 A 
ENDROOT
BRANCH   1   7
ATOM      7  C   UNL     1      52.482   8.306  12.251  0.00  0.00    +0.000 C 
BRANCH   7  10
ATOM      8  C   UNL     1      53.956   7.666  10.411  0.00  0.00    +0.000 C 
ATOM      9  O   UNL     1      54.679   7.018  11.166  0.00  0.00    +0.000 OA
ATOM     10  N   UNL     1      52.845   8.343  10.854  0.00  0.00    +0.000 N 
ATOM     11  H   UNL     1      52.322   8.943  10.230  0.00  0.00    +0.000 HD
BRANCH   8  15
ATOM     12  C   UNL     1      53.520   5.636   8.134  0.00  0.00    +0.000 C 
ATOM     13  C   UNL     1      52.465   6.636   7.653  0.00  0.00    +0.000 C 
ATOM     14  C   UNL     1      52.941   8.019   8.112  0.00  0.00    +0.000 C 
ATOM     15  C   UNL     1      54.226   7.787   8.912  0.00  0.00    +0.000 C 
ATOM     16  C   UNL     1      54.774   6.485   8.323  0.00  0.00    +0.000 C 
BRANCH  12  18
ATOM     17  N   UNL     1      53.889   3.577   6.302  0.00  0.00    +0.000 NA
ATOM     18  C   UNL     1      53.722   4.511   7.134  0.00  0.00    +0.000 C 
ENDBRANCH  12  18
ENDBRANCH   8  15
ENDBRANCH   7  10
ENDBRANCH   1   7
BRANCH   4  19
ATOM     19  C   UNL     1      46.702   8.028  13.005  0.00  0.00    +0.000 C 
BRANCH  19  20
ATOM     20  N   UNL     1      46.194   6.725  12.657  0.00  0.00    +0.000 N 
ATOM     21  C   UNL     1      45.139   6.585  11.793  0.00  0.00    +0.000 C 
ATOM     22  O   UNL     1      44.617   7.551  11.243  0.00  0.00    +0.000 OA
ATOM     23  H   UNL     1      46.448   5.952  13.267  0.00  0.00    +0.000 HD
BRANCH  21  24
ATOM     24  C   UNL     1      44.703   5.213  11.506  0.00  0.00    +0.000 A 
ATOM     25  C   UNL     1      43.973   4.510  12.456  0.00  0.00    +0.000 A 
ATOM     26  S   UNL     1      43.498   2.955  11.943  0.00  0.00    +0.000 S 
ATOM     27  C   UNL     1      44.298   3.143  10.452  0.00  0.00    +0.000 A 
ATOM     28  N   UNL     1      44.301   2.143   9.531  0.00  0.00    +0.000 NA
ATOM     29  C   UNL     1      44.973   2.409   8.459  0.00  0.00    +0.000 A 
ATOM     30  N   UNL     1      45.634   3.587   8.226  0.00  0.00    +0.000 N 
ATOM     31  C   UNL     1      45.634   4.634   9.118  0.00  0.00    +0.000 A 
ATOM     32  O   UNL     1      46.206   5.688   8.858  0.00  0.00    +0.000 OA
ATOM     33  C   UNL     1      44.903   4.383  10.342  0.00  0.00    +0.000 A 
ATOM     34  H   UNL     1      46.136   3.734   7.363  0.00  0.00    +0.000 HD
ENDBRANCH  21  24
ENDBRANCH  19  20
ENDBRANCH   4  19
TORSDOF 7
ENDMDL
MODEL 7
REMARK VINA RESULT:    -6.143      4.693      6.649
REMARK INTER + INTRA:          -9.959
REMARK INTER:                  -9.014
REMARK INTRA:                  -0.945
REMARK UNBOUND:                -1.302
REMARK  Name = 
REMARK  7 active torsions:
REMARK  status: ('A' for Active; 'I' for Inactive)
REMARK    1  A    between atoms: C_2  and  C_3
REMARK    2  A    between atoms: C_6  and  C_7
REMARK    3  A    between atoms: N_9  and  C_10
REMARK    4  A    between atoms: C_10  and  C_11
REMARK    5  A    between atoms: C_14  and  C_15
REMARK    6  A    between atoms: C_15  and  N_16
REMARK    7  A    between atoms: C_17  and  C_19
REMARK                            x       y       z     vdW  Elec       q    Type
REMARK                         _______ _______ _______ _____ _____    ______ ____
ROOT
ATOM      1  C   UNL     1      51.968   1.787  17.402  0.00  0.00    +0.000 A 
ATOM      2  C   UNL     1      52.405   3.026  17.889  0.00  0.00    +0.000 A 
ATOM      3  C   UNL     1      51.497   4.073  18.087  0.00  0.00    +0.000 A 
ATOM      4  C   UNL     1      50.133   3.891  17.823  0.00  0.00    +0.000 A 
ATOM      5  C   UNL     1      49.700   2.654  17.329  0.00  0.00    +0.000 A 
ATOM      6  C   UNL     1      50.605   1.609  17.131  0.00  0.00    +0.000 A 
ENDROOT
BRANCH   1   7
ATOM      7  C   UNL     1      52.938   0.656  17.191  0.00  0.00    +0.000 C 
BRANCH   7  10
ATOM      8  C   UNL     1      54.095  -1.033  18.523  0.00  0.00    +0.000 C 
ATOM      9  O   UNL     1      55.032  -1.074  17.727  0.00  0.00    +0.000 OA
ATOM     10  N   UNL     1      53.009  -0.211  18.343  0.00  0.00    +0.000 N 
ATOM     11  H   UNL     1      52.211  -0.265  18.962  0.00  0.00    +0.000 HD
BRANCH   8  15
ATOM     12  C   UNL     1      53.302  -3.988  18.886  0.00  0.00    +0.000 C 
ATOM     13  C   UNL     1      54.775  -4.178  19.257  0.00  0.00    +0.000 C 
ATOM     14  C   UNL     1      55.238  -2.853  19.873  0.00  0.00    +0.000 C 
ATOM     15  C   UNL     1      54.045  -1.897  19.782  0.00  0.00    +0.000 C 
ATOM     16  C   UNL     1      52.840  -2.841  19.780  0.00  0.00    +0.000 C 
BRANCH  12  18
ATOM     17  N   UNL     1      51.836  -6.316  19.292  0.00  0.00    +0.000 NA
ATOM     18  C   UNL     1      52.500  -5.260  19.107  0.00  0.00    +0.000 C 
ENDBRANCH  12  18
ENDBRANCH   8  15
ENDBRANCH   7  10
ENDBRANCH   1   7
BRANCH   4  19
ATOM     19  C   UNL     1      49.146   5.013  18.025  0.00  0.00    +0.000 C 
BRANCH  19  20
ATOM     20  N   UNL     1      48.364   5.242  16.837  0.00  0.00    +0.000 N 
ATOM     21  C   UNL     1      48.868   5.964  15.787  0.00  0.00    +0.000 C 
ATOM     22  O   UNL     1      50.016   6.401  15.790  0.00  0.00    +0.000 OA
ATOM     23  H   UNL     1      47.361   5.099  16.911  0.00  0.00    +0.000 HD
BRANCH  21  24
ATOM     24  C   UNL     1      47.987   6.136  14.625  0.00  0.00    +0.000 A 
ATOM     25  C   UNL     1      47.803   7.401  14.082  0.00  0.00    +0.000 A 
ATOM     26  S   UNL     1      46.797   7.417  12.706  0.00  0.00    +0.000 S 
ATOM     27  C   UNL     1      46.525   5.740  12.819  0.00  0.00    +0.000 A 
ATOM     28  N   UNL     1      45.713   5.104  11.932  0.00  0.00    +0.000 NA
ATOM     29  C   UNL     1      45.571   3.839  12.154  0.00  0.00    +0.000 A 
ATOM     30  N   UNL     1      46.173   3.155  13.178  0.00  0.00    +0.000 N 
ATOM     31  C   UNL     1      47.023   3.753  14.079  0.00  0.00    +0.000 A 
ATOM     32  O   UNL     1      47.574   3.100  14.961  0.00  0.00    +0.000 OA
ATOM     33  C   UNL     1      47.208   5.175  13.880  0.00  0.00    +0.000 A 
ATOM     34  H   UNL     1      46.025   2.163  13.292  0.00  0.00    +0.000 HD
ENDBRANCH  21  24
ENDBRANCH  19  20
ENDBRANCH   4  19
TORSDOF 7
ENDMDL
MODEL 8
REMARK VINA RESULT:    -6.109      2.908      8.421
REMARK INTER + INTRA:          -9.911
REMARK INTER:                  -8.631
REMARK INTRA:                  -1.281
REMARK UNBOUND:                -1.302
REMARK  Name = 
REMARK  7 active torsions:
REMARK  status: ('A' for Active; 'I' for Inactive)
REMARK    1  A    between atoms: C_2  and  C_3
REMARK    2  A    between atoms: C_6  and  C_7
REMARK    3  A    between atoms: N_9  and  C_10
REMARK    4  A    between atoms: C_10  and  C_11
REMARK    5  A    between atoms: C_14  and  C_15
REMARK    6  A    between atoms: C_15  and  N_16
REMARK    7  A    between atoms: C_17  and  C_19
REMARK                            x       y       z     vdW  Elec       q    Type
REMARK                         _______ _______ _______ _____ _____    ______ ____
ROOT
ATOM      1  C   UNL     1      45.935   8.052  12.080  0.00  0.00    +0.000 A 
ATOM      2  C   UNL     1      46.524   9.187  12.653  0.00  0.00    +0.000 A 
ATOM      3  C   UNL     1      47.899   9.223  12.907  0.00  0.00    +0.000 A 
ATOM      4  C   UNL     1      48.714   8.134  12.571  0.00  0.00    +0.000 A 
ATOM      5  C   UNL     1      48.122   6.997  12.006  0.00  0.00    +0.000 A 
ATOM      6  C   UNL     1      46.749   6.960  11.753  0.00  0.00    +0.000 A 
ENDROOT
BRANCH   1   7
ATOM      7  C   UNL     1      44.457   8.008  11.800  0.00  0.00    +0.000 C 
BRANCH   7  10
ATOM      8  C   UNL     1      43.692   5.688  11.777  0.00  0.00    +0.000 C 
ATOM      9  O   UNL     1      43.649   5.650  13.005  0.00  0.00    +0.000 OA
ATOM     10  N   UNL     1      44.083   6.810  11.087  0.00  0.00    +0.000 N 
ATOM     11  H   UNL     1      44.199   6.785  10.082  0.00  0.00    +0.000 HD
BRANCH   8  15
ATOM     12  C   UNL     1      45.257   4.321   9.502  0.00  0.00    +0.000 C 
ATOM     13  C   UNL     1      45.315   3.132  10.465  0.00  0.00    +0.000 C 
ATOM     14  C   UNL     1      44.052   3.216  11.330  0.00  0.00    +0.000 C 
ATOM     15  C   UNL     1      43.322   4.492  10.901  0.00  0.00    +0.000 C 
ATOM     16  C   UNL     1      43.775   4.683   9.451  0.00  0.00    +0.000 C 
BRANCH  12  18
ATOM     17  N   UNL     1      46.283   3.665   7.002  0.00  0.00    +0.000 NA
ATOM     18  C   UNL     1      45.817   3.962   8.136  0.00  0.00    +0.000 C 
ENDBRANCH  12  18
ENDBRANCH   8  15
ENDBRANCH   7  10
ENDBRANCH   1   7
BRANCH   4  19
ATOM     19  C   UNL     1      50.196   8.158  12.846  0.00  0.00    +0.000 C 
BRANCH  19  20
ATOM     20  N   UNL     1      50.524   7.383  14.016  0.00  0.00    +0.000 N 
ATOM     21  C   UNL     1      50.714   7.985  15.233  0.00  0.00    +0.000 C 
ATOM     22  O   UNL     1      50.566   9.194  15.390  0.00  0.00    +0.000 OA
ATOM     23  H   UNL     1      50.875   6.442  13.863  0.00  0.00    +0.000 HD
BRANCH  21  24
ATOM     24  C   UNL     1      51.043   7.101  16.359  0.00  0.00    +0.000 A 
ATOM     25  C   UNL     1      52.231   7.286  17.054  0.00  0.00    +0.000 A 
ATOM     26  S   UNL     1      52.432   6.214  18.365  0.00  0.00    +0.000 S 
ATOM     27  C   UNL     1      50.963   5.428  18.017  0.00  0.00    +0.000 A 
ATOM     28  N   UNL     1      50.540   4.375  18.767  0.00  0.00    +0.000 NA
ATOM     29  C   UNL     1      49.425   3.854  18.372  0.00  0.00    +0.000 A 
ATOM     30  N   UNL     1      48.695   4.296  17.300  0.00  0.00    +0.000 N 
ATOM     31  C   UNL     1      49.070   5.374  16.532  0.00  0.00    +0.000 A 
ATOM     32  O   UNL     1      48.371   5.765  15.603  0.00  0.00    +0.000 OA
ATOM     33  C   UNL     1      50.320   5.989  16.927  0.00  0.00    +0.000 A 
ATOM     34  H   UNL     1      47.826   3.847  17.048  0.00  0.00    +0.000 HD
ENDBRANCH  21  24
ENDBRANCH  19  20
ENDBRANCH   4  19
TORSDOF 7
ENDMDL
MODEL 9
REMARK VINA RESULT:    -5.934      4.963      6.786
REMARK INTER + INTRA:          -9.665
REMARK INTER:                  -8.265
REMARK INTRA:                  -1.399
REMARK UNBOUND:                -1.302
REMARK  Name = 
REMARK  7 active torsions:
REMARK  status: ('A' for Active; 'I' for Inactive)
REMARK    1  A    between atoms: C_2  and  C_3
REMARK    2  A    between atoms: C_6  and  C_7
REMARK    3  A    between atoms: N_9  and  C_10
REMARK    4  A    between atoms: C_10  and  C_11
REMARK    5  A    between atoms: C_14  and  C_15
REMARK    6  A    between atoms: C_15  and  N_16
REMARK    7  A    between atoms: C_17  and  C_19
REMARK                            x       y       z     vdW  Elec       q    Type
REMARK                         _______ _______ _______ _____ _____    ______ ____
ROOT
ATOM      1  C   UNL     1      47.636   6.334  13.371  0.00  0.00    +0.000 A 
ATOM      2  C   UNL     1      48.674   6.763  14.208  0.00  0.00    +0.000 A 
ATOM      3  C   UNL     1      49.720   7.543  13.702  0.00  0.00    +0.000 A 
ATOM      4  C   UNL     1      49.734   7.927  12.354  0.00  0.00    +0.000 A 
ATOM      5  C   UNL     1      48.699   7.490  11.518  0.00  0.00    +0.000 A 
ATOM      6  C   UNL     1      47.655   6.711  12.022  0.00  0.00    +0.000 A 
ENDROOT
BRANCH   1   7
ATOM      7  C   UNL     1      46.506   5.498  13.909  0.00  0.00    +0.000 C 
BRANCH   7  10
ATOM      8  C   UNL     1      47.283   3.793  15.476  0.00  0.00    +0.000 C 
ATOM      9  O   UNL     1      47.533   3.011  14.560  0.00  0.00    +0.000 OA
ATOM     10  N   UNL     1      46.768   5.048  15.255  0.00  0.00    +0.000 N 
ATOM     11  H   UNL     1      46.485   5.634  16.029  0.00  0.00    +0.000 HD
BRANCH   8  15
ATOM     12  C   UNL     1      49.817   4.034  17.212  0.00  0.00    +0.000 C 
ATOM     13  C   UNL     1      49.011   5.092  17.969  0.00  0.00    +0.000 C 
ATOM     14  C   UNL     1      47.538   4.688  17.837  0.00  0.00    +0.000 C 
ATOM     15  C   UNL     1      47.513   3.443  16.945  0.00  0.00    +0.000 C 
ATOM     16  C   UNL     1      48.892   2.820  17.176  0.00  0.00    +0.000 C 
BRANCH  12  18
ATOM     17  N   UNL     1      52.237   3.495  18.472  0.00  0.00    +0.000 NA
ATOM     18  C   UNL     1      51.139   3.739  17.900  0.00  0.00    +0.000 C 
ENDBRANCH  12  18
ENDBRANCH   8  15
ENDBRANCH   7  10
ENDBRANCH   1   7
BRANCH   4  19
ATOM     19  C   UNL     1      50.859   8.761  11.795  0.00  0.00    +0.000 C 
BRANCH  19  20
ATOM     20  N   UNL     1      51.392   8.180  10.589  0.00  0.00    +0.000 N 
ATOM     21  C   UNL     1      52.659   7.658  10.555  0.00  0.00    +0.000 C 
ATOM     22  O   UNL     1      53.372   7.617  11.556  0.00  0.00    +0.000 OA
ATOM     23  H   UNL     1      50.923   8.413   9.718  0.00  0.00    +0.000 HD
BRANCH  21  24
ATOM     24  C   UNL     1      53.102   7.090   9.276  0.00  0.00    +0.000 A 
ATOM     25  C   UNL     1      53.514   5.765   9.218  0.00  0.00    +0.000 A 
ATOM     26  S   UNL     1      53.942   5.248   7.651  0.00  0.00    +0.000 S 
ATOM     27  C   UNL     1      53.644   6.794   7.001  0.00  0.00    +0.000 A 
ATOM     28  N   UNL     1      53.842   7.045   5.680  0.00  0.00    +0.000 NA
ATOM     29  C   UNL     1      53.607   8.267   5.329  0.00  0.00    +0.000 A 
ATOM     30  N   UNL     1      53.188   9.255   6.182  0.00  0.00    +0.000 N 
ATOM     31  C   UNL     1      52.948   9.038   7.519  0.00  0.00    +0.000 A 
ATOM     32  O   UNL     1      52.537   9.938   8.244  0.00  0.00    +0.000 OA
ATOM     33  C   UNL     1      53.206   7.684   7.965  0.00  0.00    +0.000 A 
ATOM     34  H   UNL     1      53.016  10.190   5.842  0.00  0.00    +0.000 HD
ENDBRANCH  21  24
ENDBRANCH  19  20
ENDBRANCH   4  19
TORSDOF 7
ENDMDL
