MODEL 1
REMARK VINA RESULT:    -8.246      0.000      0.000
REMARK INTER + INTRA:         -11.344
REMARK INTER:                 -10.657
REMARK INTRA:                  -0.687
REMARK UNBOUND:                -0.687
REMARK  Name = 
REMARK  5 active torsions:
REMARK  status: ('A' for Active; 'I' for Inactive)
REMARK    1  A    between atoms: C_2  and  C_18
REMARK    2  A    between atoms: N_3  and  C_4
REMARK    3  A    between atoms: C_4  and  C_5
REMARK    4  A    between atoms: C_8  and  C_9
REMARK    5  A    between atoms: C_9  and  C_10
REMARK                            x       y       z     vdW  Elec       q    Type
REMARK                         _______ _______ _______ _____ _____    ______ ____
ROOT
ATOM      1  O   UNL     1      47.113   3.329  14.007  0.00  0.00    +0.000 OA
ATOM      2  C   UNL     1      46.883   4.501  14.247  0.00  0.00    +0.000 C 
ATOM      3  N   UNL     1      45.693   5.142  13.968  0.00  0.00    +0.000 N 
ATOM      4  H   UNL     1      45.514   5.998  14.469  0.00  0.00    +0.000 HD
ENDROOT
BRANCH   2   5
ATOM      5  C   UNL     1      47.716   5.344  15.098  0.00  0.00    +0.000 A 
ATOM      6  C   UNL     1      48.285   6.520  14.648  0.00  0.00    +0.000 A 
ATOM      7  S   UNL     1      49.725   6.875  15.517  0.00  0.00    +0.000 S 
ATOM      8  C   UNL     1      49.450   5.595  16.611  0.00  0.00    +0.000 A 
ATOM      9  N   UNL     1      50.367   5.215  17.542  0.00  0.00    +0.000 NA
ATOM     10  C   UNL     1      49.957   4.276  18.329  0.00  0.00    +0.000 A 
ATOM     11  N   UNL     1      48.707   3.711  18.312  0.00  0.00    +0.000 N 
ATOM     12  C   UNL     1      47.752   4.052  17.372  0.00  0.00    +0.000 A 
ATOM     13  O   UNL     1      46.625   3.576  17.393  0.00  0.00    +0.000 OA
ATOM     14  C   UNL     1      48.216   5.019  16.402  0.00  0.00    +0.000 A 
ATOM     15  H   UNL     1      48.426   3.041  19.010  0.00  0.00    +0.000 HD
ENDBRANCH   2   5
BRANCH   3  16
ATOM     16  C   UNL     1      44.522   4.434  13.528  0.00  0.00    +0.000 C 
BRANCH  16  17
ATOM     17  C   UNL     1      44.525   4.346  12.028  0.00  0.00    +0.000 A 
ATOM     18  C   UNL     1      45.294   5.215  11.247  0.00  0.00    +0.000 A 
ATOM     19  C   UNL     1      45.319   5.069   9.861  0.00  0.00    +0.000 A 
ATOM     20  C   UNL     1      44.588   4.036   9.280  0.00  0.00    +0.000 A 
ATOM     21  N   UNL     1      43.847   3.173  10.018  0.00  0.00    +0.000 NA
ATOM     22  C   UNL     1      43.832   3.343  11.362  0.00  0.00    +0.000 A 
BRANCH  20  23
ATOM     23  C   UNL     1      44.680   3.765   7.792  0.00  0.00    +0.000 C 
BRANCH  23  24
ATOM     24  C   UNL     1      45.900   2.964   7.438  0.00  0.00    +0.000 A 
ATOM     25  C   UNL     1      46.809   3.388   6.486  0.00  0.00    +0.000 A 
ATOM     26  N   UNL     1      47.855   2.648   6.063  0.00  0.00    +0.000 NA
ATOM     27  C   UNL     1      47.987   1.447   6.644  0.00  0.00    +0.000 A 
ATOM     28  N   UNL     1      47.198   0.946   7.607  0.00  0.00    +0.000 NA
ATOM     29  C   UNL     1      46.170   1.728   7.988  0.00  0.00    +0.000 A 
ENDBRANCH  23  24
ENDBRANCH  20  23
ENDBRANCH  16  17
ENDBRANCH   3  16
TORSDOF 5
ENDMDL
MODEL 2
REMARK VINA RESULT:    -7.850      1.709      2.717
REMARK INTER + INTRA:         -10.832
REMARK INTER:                  -9.879
REMARK INTRA:                  -0.953
REMARK UNBOUND:                -0.687
REMARK  Name = 
REMARK  5 active torsions:
REMARK  status: ('A' for Active; 'I' for Inactive)
REMARK    1  A    between atoms: C_2  and  C_18
REMARK    2  A    between atoms: N_3  and  C_4
REMARK    3  A    between atoms: C_4  and  C_5
REMARK    4  A    between atoms: C_8  and  C_9
REMARK    5  A    between atoms: C_9  and  C_10
REMARK                            x       y       z     vdW  Elec       q    Type
REMARK                         _______ _______ _______ _____ _____    ______ ____
ROOT
ATOM      1  O   UNL     1      47.138   3.433  14.743  0.00  0.00    +0.000 OA
ATOM      2  C   UNL     1      47.119   4.647  14.640  0.00  0.00    +0.000 C 
ATOM      3  N   UNL     1      46.078   5.374  14.100  0.00  0.00    +0.000 N 
ATOM      4  H   UNL     1      46.042   6.354  14.336  0.00  0.00    +0.000 HD
ENDROOT
BRANCH   2   5
ATOM      5  C   UNL     1      48.063   5.543  15.300  0.00  0.00    +0.000 A 
ATOM      6  C   UNL     1      48.454   5.371  16.614  0.00  0.00    +0.000 A 
ATOM      7  S   UNL     1      48.909   6.871  17.318  0.00  0.00    +0.000 S 
ATOM      8  C   UNL     1      48.793   7.677  15.818  0.00  0.00    +0.000 A 
ATOM      9  N   UNL     1      48.901   9.028  15.701  0.00  0.00    +0.000 NA
ATOM     10  C   UNL     1      48.859   9.453  14.482  0.00  0.00    +0.000 A 
ATOM     11  N   UNL     1      48.767   8.663  13.364  0.00  0.00    +0.000 N 
ATOM     12  C   UNL     1      48.635   7.289  13.437  0.00  0.00    +0.000 A 
ATOM     13  O   UNL     1      48.600   6.587  12.436  0.00  0.00    +0.000 OA
ATOM     14  C   UNL     1      48.563   6.787  14.792  0.00  0.00    +0.000 A 
ATOM     15  H   UNL     1      48.824   9.056  12.439  0.00  0.00    +0.000 HD
ENDBRANCH   2   5
BRANCH   3  16
ATOM     16  C   UNL     1      44.811   4.778  13.769  0.00  0.00    +0.000 C 
BRANCH  16  17
ATOM     17  C   UNL     1      44.720   4.590  12.281  0.00  0.00    +0.000 A 
ATOM     18  C   UNL     1      45.468   5.377  11.399  0.00  0.00    +0.000 A 
ATOM     19  C   UNL     1      45.404   5.137  10.027  0.00  0.00    +0.000 A 
ATOM     20  C   UNL     1      44.607   4.095   9.562  0.00  0.00    +0.000 A 
ATOM     21  N   UNL     1      43.885   3.310  10.400  0.00  0.00    +0.000 NA
ATOM     22  C   UNL     1      43.957   3.570  11.728  0.00  0.00    +0.000 A 
BRANCH  20  23
ATOM     23  C   UNL     1      44.600   3.722   8.094  0.00  0.00    +0.000 C 
BRANCH  23  24
ATOM     24  C   UNL     1      45.794   2.896   7.714  0.00  0.00    +0.000 A 
ATOM     25  C   UNL     1      46.748   3.345   6.819  0.00  0.00    +0.000 A 
ATOM     26  N   UNL     1      47.773   2.591   6.372  0.00  0.00    +0.000 NA
ATOM     27  C   UNL     1      47.838   1.348   6.869  0.00  0.00    +0.000 A 
ATOM     28  N   UNL     1      47.001   0.814   7.772  0.00  0.00    +0.000 NA
ATOM     29  C   UNL     1      45.996   1.613   8.182  0.00  0.00    +0.000 A 
ENDBRANCH  23  24
ENDBRANCH  20  23
ENDBRANCH  16  17
ENDBRANCH   3  16
TORSDOF 5
ENDMDL
MODEL 3
REMARK VINA RESULT:    -7.784      2.965      8.509
REMARK INTER + INTRA:         -10.746
REMARK INTER:                  -9.864
REMARK INTRA:                  -0.882
REMARK UNBOUND:                -0.687
REMARK  Name = 
REMARK  5 active torsions:
REMARK  status: ('A' for Active; 'I' for Inactive)
REMARK    1  A    between atoms: C_2  and  C_18
REMARK    2  A    between atoms: N_3  and  C_4
REMARK    3  A    between atoms: C_4  and  C_5
REMARK    4  A    between atoms: C_8  and  C_9
REMARK    5  A    between atoms: C_9  and  C_10
REMARK                            x       y       z     vdW  Elec       q    Type
REMARK                         _______ _______ _______ _____ _____    ______ ____
ROOT
ATOM      1  O   UNL     1      45.095   7.521  11.282  0.00  0.00    +0.000 OA
ATOM      2  C   UNL     1      45.454   6.359  11.225  0.00  0.00    +0.000 C 
ATOM      3  N   UNL     1      46.653   5.882  11.715  0.00  0.00    +0.000 N 
ATOM      4  H   UNL     1      46.709   4.888  11.879  0.00  0.00    +0.000 HD
ENDROOT
BRANCH   2   5
ATOM      5  C   UNL     1      44.581   5.244  10.872  0.00  0.00    +0.000 A 
ATOM      6  C   UNL     1      43.473   4.904  11.624  0.00  0.00    +0.000 A 
ATOM      7  S   UNL     1      43.111   3.232  11.457  0.00  0.00    +0.000 S 
ATOM      8  C   UNL     1      44.282   3.040  10.231  0.00  0.00    +0.000 A 
ATOM      9  N   UNL     1      44.624   1.825   9.725  0.00  0.00    +0.000 NA
ATOM     10  C   UNL     1      45.474   1.881   8.754  0.00  0.00    +0.000 A 
ATOM     11  N   UNL     1      45.984   3.030   8.206  0.00  0.00    +0.000 N 
ATOM     12  C   UNL     1      45.680   4.285   8.700  0.00  0.00    +0.000 A 
ATOM     13  O   UNL     1      46.101   5.307   8.177  0.00  0.00    +0.000 OA
ATOM     14  C   UNL     1      44.818   4.255   9.862  0.00  0.00    +0.000 A 
ATOM     15  H   UNL     1      46.579   3.004   7.394  0.00  0.00    +0.000 HD
ENDBRANCH   2   5
BRANCH   3  16
ATOM     16  C   UNL     1      47.531   6.686  12.522  0.00  0.00    +0.000 C 
BRANCH  16  17
ATOM     17  C   UNL     1      47.683   6.055  13.877  0.00  0.00    +0.000 A 
ATOM     18  C   UNL     1      46.961   4.912  14.235  0.00  0.00    +0.000 A 
ATOM     19  C   UNL     1      47.169   4.317  15.478  0.00  0.00    +0.000 A 
ATOM     20  C   UNL     1      48.118   4.867  16.337  0.00  0.00    +0.000 A 
ATOM     21  N   UNL     1      48.840   5.966  16.005  0.00  0.00    +0.000 NA
ATOM     22  C   UNL     1      48.611   6.530  14.794  0.00  0.00    +0.000 A 
BRANCH  20  23
ATOM     23  C   UNL     1      48.463   4.187  17.646  0.00  0.00    +0.000 C 
BRANCH  23  24
ATOM     24  C   UNL     1      49.741   3.405  17.557  0.00  0.00    +0.000 A 
ATOM     25  C   UNL     1      49.794   2.138  17.005  0.00  0.00    +0.000 A 
ATOM     26  N   UNL     1      50.898   1.363  17.006  0.00  0.00    +0.000 NA
ATOM     27  C   UNL     1      51.986   1.906  17.570  0.00  0.00    +0.000 A 
ATOM     28  N   UNL     1      52.071   3.137  18.097  0.00  0.00    +0.000 NA
ATOM     29  C   UNL     1      50.937   3.865  18.069  0.00  0.00    +0.000 A 
ENDBRANCH  23  24
ENDBRANCH  20  23
ENDBRANCH  16  17
ENDBRANCH   3  16
TORSDOF 5
ENDMDL
MODEL 4
REMARK VINA RESULT:    -7.480      2.036      3.089
REMARK INTER + INTRA:         -10.354
REMARK INTER:                  -9.637
REMARK INTRA:                  -0.717
REMARK UNBOUND:                -0.687
REMARK  Name = 
REMARK  5 active torsions:
REMARK  status: ('A' for Active; 'I' for Inactive)
REMARK    1  A    between atoms: C_2  and  C_18
REMARK    2  A    between atoms: N_3  and  C_4
REMARK    3  A    between atoms: C_4  and  C_5
REMARK    4  A    between atoms: C_8  and  C_9
REMARK    5  A    between atoms: C_9  and  C_10
REMARK                            x       y       z     vdW  Elec       q    Type
REMARK                         _______ _______ _______ _____ _____    ______ ____
ROOT
ATOM      1  O   UNL     1      48.561   8.014  16.662  0.00  0.00    +0.000 OA
ATOM      2  C   UNL     1      48.645   6.833  16.375  0.00  0.00    +0.000 C 
ATOM      3  N   UNL     1      48.309   6.296  15.149  0.00  0.00    +0.000 N 
ATOM      4  H   UNL     1      48.693   5.389  14.934  0.00  0.00    +0.000 HD
ENDROOT
BRANCH   2   5
ATOM      5  C   UNL     1      49.354   5.841  17.177  0.00  0.00    +0.000 A 
ATOM      6  C   UNL     1      50.463   6.158  17.937  0.00  0.00    +0.000 A 
ATOM      7  S   UNL     1      51.481   4.787  18.133  0.00  0.00    +0.000 S 
ATOM      8  C   UNL     1      50.334   3.757  17.403  0.00  0.00    +0.000 A 
ATOM      9  N   UNL     1      50.601   2.458  17.099  0.00  0.00    +0.000 NA
ATOM     10  C   UNL     1      49.590   1.813  16.618  0.00  0.00    +0.000 A 
ATOM     11  N   UNL     1      48.327   2.321  16.451  0.00  0.00    +0.000 N 
ATOM     12  C   UNL     1      48.015   3.639  16.726  0.00  0.00    +0.000 A 
ATOM     13  O   UNL     1      46.876   4.072  16.619  0.00  0.00    +0.000 OA
ATOM     14  C   UNL     1      49.151   4.422  17.161  0.00  0.00    +0.000 A 
ATOM     15  H   UNL     1      47.564   1.738  16.148  0.00  0.00    +0.000 HD
ENDBRANCH   2   5
BRANCH   3  16
ATOM     16  C   UNL     1      47.997   7.114  14.009  0.00  0.00    +0.000 C 
BRANCH  16  17
ATOM     17  C   UNL     1      46.933   6.442  13.187  0.00  0.00    +0.000 A 
ATOM     18  C   UNL     1      46.210   7.142  12.215  0.00  0.00    +0.000 A 
ATOM     19  C   UNL     1      45.271   6.474  11.431  0.00  0.00    +0.000 A 
ATOM     20  C   UNL     1      45.086   5.107  11.619  0.00  0.00    +0.000 A 
ATOM     21  N   UNL     1      45.786   4.405  12.546  0.00  0.00    +0.000 NA
ATOM     22  C   UNL     1      46.686   5.080  13.302  0.00  0.00    +0.000 A 
BRANCH  20  23
ATOM     23  C   UNL     1      44.166   4.318  10.711  0.00  0.00    +0.000 C 
BRANCH  23  24
ATOM     24  C   UNL     1      44.898   3.718   9.546  0.00  0.00    +0.000 A 
ATOM     25  C   UNL     1      45.099   2.355   9.425  0.00  0.00    +0.000 A 
ATOM     26  N   UNL     1      45.843   1.789   8.453  0.00  0.00    +0.000 NA
ATOM     27  C   UNL     1      46.382   2.638   7.567  0.00  0.00    +0.000 A 
ATOM     28  N   UNL     1      46.223   3.970   7.553  0.00  0.00    +0.000 NA
ATOM     29  C   UNL     1      45.471   4.480   8.549  0.00  0.00    +0.000 A 
ENDBRANCH  23  24
ENDBRANCH  20  23
ENDBRANCH  16  17
ENDBRANCH   3  16
TORSDOF 5
ENDMDL
MODEL 5
REMARK VINA RESULT:    -7.459      3.106      4.615
REMARK INTER + INTRA:         -10.326
REMARK INTER:                  -9.012
REMARK INTRA:                  -1.315
REMARK UNBOUND:                -0.687
REMARK  Name = 
REMARK  5 active torsions:
REMARK  status: ('A' for Active; 'I' for Inactive)
REMARK    1  A    between atoms: C_2  and  C_18
REMARK    2  A    between atoms: N_3  and  C_4
REMARK    3  A    between atoms: C_4  and  C_5
REMARK    4  A    between atoms: C_8  and  C_9
REMARK    5  A    between atoms: C_9  and  C_10
REMARK                            x       y       z     vdW  Elec       q    Type
REMARK                         _______ _______ _______ _____ _____    ______ ____
ROOT
ATOM      1  O   UNL     1      50.674   6.752  15.252  0.00  0.00    +0.000 OA
ATOM      2  C   UNL     1      49.643   7.139  15.772  0.00  0.00    +0.000 C 
ATOM      3  N   UNL     1      48.758   8.028  15.196  0.00  0.00    +0.000 N 
ATOM      4  H   UNL     1      47.823   8.041  15.573  0.00  0.00    +0.000 HD
ENDROOT
BRANCH   2   5
ATOM      5  C   UNL     1      49.044   6.537  16.958  0.00  0.00    +0.000 A 
ATOM      6  C   UNL     1      49.287   7.010  18.233  0.00  0.00    +0.000 A 
ATOM      7  S   UNL     1      49.112   5.755  19.395  0.00  0.00    +0.000 S 
ATOM      8  C   UNL     1      48.508   4.673  18.222  0.00  0.00    +0.000 A 
ATOM      9  N   UNL     1      48.287   3.356  18.482  0.00  0.00    +0.000 NA
ATOM     10  C   UNL     1      47.761   2.708  17.497  0.00  0.00    +0.000 A 
ATOM     11  N   UNL     1      47.390   3.251  16.293  0.00  0.00    +0.000 N 
ATOM     12  C   UNL     1      47.613   4.578  15.978  0.00  0.00    +0.000 A 
ATOM     13  O   UNL     1      47.237   5.065  14.921  0.00  0.00    +0.000 OA
ATOM     14  C   UNL     1      48.305   5.309  17.016  0.00  0.00    +0.000 A 
ATOM     15  H   UNL     1      46.907   2.704  15.599  0.00  0.00    +0.000 HD
ENDBRANCH   2   5
BRANCH   3  16
ATOM     16  C   UNL     1      48.872   8.450  13.826  0.00  0.00    +0.000 C 
BRANCH  16  17
ATOM     17  C   UNL     1      47.647   8.023  13.068  0.00  0.00    +0.000 A 
ATOM     18  C   UNL     1      47.693   6.986  12.131  0.00  0.00    +0.000 A 
ATOM     19  C   UNL     1      46.526   6.576  11.488  0.00  0.00    +0.000 A 
ATOM     20  C   UNL     1      45.324   7.199  11.812  0.00  0.00    +0.000 A 
ATOM     21  N   UNL     1      45.253   8.197  12.729  0.00  0.00    +0.000 NA
ATOM     22  C   UNL     1      46.404   8.583  13.332  0.00  0.00    +0.000 A 
BRANCH  20  23
ATOM     23  C   UNL     1      44.015   6.707  11.229  0.00  0.00    +0.000 C 
BRANCH  23  24
ATOM     24  C   UNL     1      43.751   5.268  11.566  0.00  0.00    +0.000 A 
ATOM     25  C   UNL     1      43.634   4.826  12.871  0.00  0.00    +0.000 A 
ATOM     26  N   UNL     1      43.506   3.528  13.215  0.00  0.00    +0.000 NA
ATOM     27  C   UNL     1      43.476   2.658  12.196  0.00  0.00    +0.000 A 
ATOM     28  N   UNL     1      43.536   2.968  10.892  0.00  0.00    +0.000 NA
ATOM     29  C   UNL     1      43.665   4.279  10.608  0.00  0.00    +0.000 A 
ENDBRANCH  23  24
ENDBRANCH  20  23
ENDBRANCH  16  17
ENDBRANCH   3  16
TORSDOF 5
ENDMDL
MODEL 6
REMARK VINA RESULT:    -7.100      3.837      4.664
REMARK INTER + INTRA:          -9.863
REMARK INTER:                  -9.568
REMARK INTRA:                  -0.295
REMARK UNBOUND:                -0.687
REMARK  Name = 
REMARK  5 active torsions:
REMARK  status: ('A' for Active; 'I' for Inactive)
REMARK    1  A    between atoms: C_2  and  C_18
REMARK    2  A    between atoms: N_3  and  C_4
REMARK    3  A    between atoms: C_4  and  C_5
REMARK    4  A    between atoms: C_8  and  C_9
REMARK    5  A    between atoms: C_9  and  C_10
REMARK                            x       y       z     vdW  Elec       q    Type
REMARK                         _______ _______ _______ _____ _____    ______ ____
ROOT
ATOM      1  O   UNL     1      47.414   6.483  12.295  0.00  0.00    +0.000 OA
ATOM      2  C   UNL     1      46.588   7.378  12.306  0.00  0.00    +0.000 C 
ATOM      3  N   UNL     1      45.253   7.213  12.617  0.00  0.00    +0.000 N 
ATOM      4  H   UNL     1      44.746   8.043  12.882  0.00  0.00    +0.000 HD
ENDROOT
BRANCH   2   5
ATOM      5  C   UNL     1      46.914   8.799  12.252  0.00  0.00    +0.000 A 
ATOM      6  C   UNL     1      45.947   9.779  12.134  0.00  0.00    +0.000 A 
ATOM      7  S   UNL     1      46.583  11.178  11.365  0.00  0.00    +0.000 S 
ATOM      8  C   UNL     1      48.169  10.550  11.403  0.00  0.00    +0.000 A 
ATOM      9  N   UNL     1      49.214  11.154  10.775  0.00  0.00    +0.000 NA
ATOM     10  C   UNL     1      50.351  10.575  10.973  0.00  0.00    +0.000 A 
ATOM     11  N   UNL     1      50.559   9.479  11.772  0.00  0.00    +0.000 N 
ATOM     12  C   UNL     1      49.525   8.821  12.412  0.00  0.00    +0.000 A 
ATOM     13  O   UNL     1      49.725   7.873  13.159  0.00  0.00    +0.000 OA
ATOM     14  C   UNL     1      48.221   9.374  12.121  0.00  0.00    +0.000 A 
ATOM     15  H   UNL     1      51.487   9.128  11.948  0.00  0.00    +0.000 HD
ENDBRANCH   2   5
BRANCH   3  16
ATOM     16  C   UNL     1      44.733   5.982  13.150  0.00  0.00    +0.000 C 
BRANCH  16  17
ATOM     17  C   UNL     1      44.582   4.981  12.039  0.00  0.00    +0.000 A 
ATOM     18  C   UNL     1      43.870   5.285  10.874  0.00  0.00    +0.000 A 
ATOM     19  C   UNL     1      43.799   4.355   9.838  0.00  0.00    +0.000 A 
ATOM     20  C   UNL     1      44.464   3.139   9.979  0.00  0.00    +0.000 A 
ATOM     21  N   UNL     1      45.172   2.829  11.093  0.00  0.00    +0.000 NA
ATOM     22  C   UNL     1      45.217   3.747  12.089  0.00  0.00    +0.000 A 
BRANCH  20  23
ATOM     23  C   UNL     1      44.514   2.148   8.834  0.00  0.00    +0.000 C 
BRANCH  23  24
ATOM     24  C   UNL     1      45.819   2.204   8.095  0.00  0.00    +0.000 A 
ATOM     25  C   UNL     1      46.310   3.378   7.551  0.00  0.00    +0.000 A 
ATOM     26  N   UNL     1      47.420   3.446   6.789  0.00  0.00    +0.000 NA
ATOM     27  C   UNL     1      48.060   2.285   6.592  0.00  0.00    +0.000 A 
ATOM     28  N   UNL     1      47.709   1.094   7.101  0.00  0.00    +0.000 NA
ATOM     29  C   UNL     1      46.591   1.086   7.853  0.00  0.00    +0.000 A 
ENDBRANCH  23  24
ENDBRANCH  20  23
ENDBRANCH  16  17
ENDBRANCH   3  16
TORSDOF 5
ENDMDL
MODEL 7
REMARK VINA RESULT:    -6.940      3.072      3.567
REMARK INTER + INTRA:          -9.656
REMARK INTER:                  -8.906
REMARK INTRA:                  -0.750
REMARK UNBOUND:                -0.687
REMARK  Name = 
REMARK  5 active torsions:
REMARK  status: ('A' for Active; 'I' for Inactive)
REMARK    1  A    between atoms: C_2  and  C_18
REMARK    2  A    between atoms: N_3  and  C_4
REMARK    3  A    between atoms: C_4  and  C_5
REMARK    4  A    between atoms: C_8  and  C_9
REMARK    5  A    between atoms: C_9  and  C_10
REMARK                            x       y       z     vdW  Elec       q    Type
REMARK                         _______ _______ _______ _____ _____    ______ ____
ROOT
ATOM      1  O   UNL     1      46.095   8.492  13.443  0.00  0.00    +0.000 OA
ATOM      2  C   UNL     1      47.085   7.783  13.400  0.00  0.00    +0.000 C 
ATOM      3  N   UNL     1      47.079   6.412  13.558  0.00  0.00    +0.000 N 
ATOM      4  H   UNL     1      47.885   5.915  13.213  0.00  0.00    +0.000 HD
ENDROOT
BRANCH   2   5
ATOM      5  C   UNL     1      48.391   8.224  12.918  0.00  0.00    +0.000 A 
ATOM      6  C   UNL     1      48.795   8.049  11.609  0.00  0.00    +0.000 A 
ATOM      7  S   UNL     1      50.508   7.944  11.507  0.00  0.00    +0.000 S 
ATOM      8  C   UNL     1      50.690   8.351  13.154  0.00  0.00    +0.000 A 
ATOM      9  N   UNL     1      51.889   8.301  13.795  0.00  0.00    +0.000 NA
ATOM     10  C   UNL     1      51.847   8.712  15.019  0.00  0.00    +0.000 A 
ATOM     11  N   UNL     1      50.739   9.212  15.654  0.00  0.00    +0.000 N 
ATOM     12  C   UNL     1      49.497   9.263  15.049  0.00  0.00    +0.000 A 
ATOM     13  O   UNL     1      48.524   9.752  15.607  0.00  0.00    +0.000 OA
ATOM     14  C   UNL     1      49.481   8.704  13.715  0.00  0.00    +0.000 A 
ATOM     15  H   UNL     1      50.796   9.594  16.585  0.00  0.00    +0.000 HD
ENDBRANCH   2   5
BRANCH   3  16
ATOM     16  C   UNL     1      45.862   5.648  13.605  0.00  0.00    +0.000 C 
BRANCH  16  17
ATOM     17  C   UNL     1      45.621   5.010  12.266  0.00  0.00    +0.000 A 
ATOM     18  C   UNL     1      45.155   3.695  12.157  0.00  0.00    +0.000 A 
ATOM     19  C   UNL     1      44.886   3.153  10.901  0.00  0.00    +0.000 A 
ATOM     20  C   UNL     1      45.068   3.948   9.773  0.00  0.00    +0.000 A 
ATOM     21  N   UNL     1      45.504   5.230   9.855  0.00  0.00    +0.000 NA
ATOM     22  C   UNL     1      45.768   5.729  11.087  0.00  0.00    +0.000 A 
BRANCH  20  23
ATOM     23  C   UNL     1      44.675   3.443   8.399  0.00  0.00    +0.000 C 
BRANCH  23  24
ATOM     24  C   UNL     1      45.834   2.828   7.670  0.00  0.00    +0.000 A 
ATOM     25  C   UNL     1      46.450   3.455   6.602  0.00  0.00    +0.000 A 
ATOM     26  N   UNL     1      47.419   2.888   5.855  0.00  0.00    +0.000 NA
ATOM     27  C   UNL     1      47.784   1.651   6.221  0.00  0.00    +0.000 A 
ATOM     28  N   UNL     1      47.294   0.959   7.261  0.00  0.00    +0.000 NA
ATOM     29  C   UNL     1      46.328   1.575   7.970  0.00  0.00    +0.000 A 
ENDBRANCH  23  24
ENDBRANCH  20  23
ENDBRANCH  16  17
ENDBRANCH   3  16
TORSDOF 5
ENDMDL
MODEL 8
REMARK VINA RESULT:    -6.529      2.953      3.735
REMARK INTER + INTRA:          -9.125
REMARK INTER:                  -8.178
REMARK INTRA:                  -0.947
REMARK UNBOUND:                -0.687
REMARK  Name = 
REMARK  5 active torsions:
REMARK  status: ('A' for Active; 'I' for Inactive)
REMARK    1  A    between atoms: C_2  and  C_18
REMARK    2  A    between atoms: N_3  and  C_4
REMARK    3  A    between atoms: C_4  and  C_5
REMARK    4  A    between atoms: C_8  and  C_9
REMARK    5  A    between atoms: C_9  and  C_10
REMARK                            x       y       z     vdW  Elec       q    Type
REMARK                         _______ _______ _______ _____ _____    ______ ____
ROOT
ATOM      1  O   UNL     1      49.298   6.598  13.067  0.00  0.00    +0.000 OA
ATOM      2  C   UNL     1      48.550   7.323  13.698  0.00  0.00    +0.000 C 
ATOM      3  N   UNL     1      47.477   6.885  14.447  0.00  0.00    +0.000 N 
ATOM      4  H   UNL     1      47.126   7.521  15.146  0.00  0.00    +0.000 HD
ENDROOT
BRANCH   2   5
ATOM      5  C   UNL     1      48.815   8.730  13.981  0.00  0.00    +0.000 A 
ATOM      6  C   UNL     1      48.575   9.730  13.058  0.00  0.00    +0.000 A 
ATOM      7  S   UNL     1      49.616  11.071  13.324  0.00  0.00    +0.000 S 
ATOM      8  C   UNL     1      50.205  10.400  14.779  0.00  0.00    +0.000 A 
ATOM      9  N   UNL     1      51.243  10.943  15.471  0.00  0.00    +0.000 NA
ATOM     10  C   UNL     1      51.503  10.341  16.584  0.00  0.00    +0.000 A 
ATOM     11  N   UNL     1      50.802   9.280  17.099  0.00  0.00    +0.000 N 
ATOM     12  C   UNL     1      49.755   8.684  16.422  0.00  0.00    +0.000 A 
ATOM     13  O   UNL     1      49.106   7.769  16.908  0.00  0.00    +0.000 OA
ATOM     14  C   UNL     1      49.509   9.260  15.118  0.00  0.00    +0.000 A 
ATOM     15  H   UNL     1      51.007   8.912  18.014  0.00  0.00    +0.000 HD
ENDBRANCH   2   5
BRANCH   3  16
ATOM     16  C   UNL     1      47.240   5.492  14.713  0.00  0.00    +0.000 C 
BRANCH  16  17
ATOM     17  C   UNL     1      46.359   4.921  13.638  0.00  0.00    +0.000 A 
ATOM     18  C   UNL     1      45.560   5.742  12.835  0.00  0.00    +0.000 A 
ATOM     19  C   UNL     1      44.799   5.185  11.808  0.00  0.00    +0.000 A 
ATOM     20  C   UNL     1      44.869   3.812  11.588  0.00  0.00    +0.000 A 
ATOM     21  N   UNL     1      45.648   2.998  12.344  0.00  0.00    +0.000 NA
ATOM     22  C   UNL     1      46.370   3.564  13.342  0.00  0.00    +0.000 A 
BRANCH  20  23
ATOM     23  C   UNL     1      44.155   3.181  10.410  0.00  0.00    +0.000 C 
BRANCH  23  24
ATOM     24  C   UNL     1      45.053   3.032   9.217  0.00  0.00    +0.000 A 
ATOM     25  C   UNL     1      45.355   4.095   8.384  0.00  0.00    +0.000 A 
ATOM     26  N   UNL     1      46.067   3.977   7.244  0.00  0.00    +0.000 NA
ATOM     27  C   UNL     1      46.501   2.742   6.957  0.00  0.00    +0.000 A 
ATOM     28  N   UNL     1      46.312   1.645   7.706  0.00  0.00    +0.000 NA
ATOM     29  C   UNL     1      45.593   1.822   8.832  0.00  0.00    +0.000 A 
ENDBRANCH  23  24
ENDBRANCH  20  23
ENDBRANCH  16  17
ENDBRANCH   3  16
TORSDOF 5
ENDMDL
MODEL 9
REMARK VINA RESULT:    -6.341      3.116      4.601
REMARK INTER + INTRA:          -8.882
REMARK INTER:                  -8.494
REMARK INTRA:                  -0.388
REMARK UNBOUND:                -0.687
REMARK  Name = 
REMARK  5 active torsions:
REMARK  status: ('A' for Active; 'I' for Inactive)
REMARK    1  A    between atoms: C_2  and  C_18
REMARK    2  A    between atoms: N_3  and  C_4
REMARK    3  A    between atoms: C_4  and  C_5
REMARK    4  A    between atoms: C_8  and  C_9
REMARK    5  A    between atoms: C_9  and  C_10
REMARK                            x       y       z     vdW  Elec       q    Type
REMARK                         _______ _______ _______ _____ _____    ______ ____
ROOT
ATOM      1  O   UNL     1      49.673   5.907  15.812  0.00  0.00    +0.000 OA
ATOM      2  C   UNL     1      49.325   6.973  16.289  0.00  0.00    +0.000 C 
ATOM      3  N   UNL     1      49.222   8.154  15.583  0.00  0.00    +0.000 N 
ATOM      4  H   UNL     1      48.653   8.877  15.996  0.00  0.00    +0.000 HD
ENDROOT
BRANCH   2   5
ATOM      5  C   UNL     1      48.713   7.123  17.605  0.00  0.00    +0.000 A 
ATOM      6  C   UNL     1      48.445   8.359  18.162  0.00  0.00    +0.000 A 
ATOM      7  S   UNL     1      48.458   8.273  19.878  0.00  0.00    +0.000 S 
ATOM      8  C   UNL     1      48.598   6.572  19.851  0.00  0.00    +0.000 A 
ATOM      9  N   UNL     1      48.814   5.835  20.973  0.00  0.00    +0.000 NA
ATOM     10  C   UNL     1      48.820   4.560  20.770  0.00  0.00    +0.000 A 
ATOM     11  N   UNL     1      48.586   3.943  19.567  0.00  0.00    +0.000 N 
ATOM     12  C   UNL     1      48.382   4.652  18.398  0.00  0.00    +0.000 A 
ATOM     13  O   UNL     1      48.128   4.095  17.339  0.00  0.00    +0.000 OA
ATOM     14  C   UNL     1      48.482   6.085  18.567  0.00  0.00    +0.000 A 
ATOM     15  H   UNL     1      48.522   2.940  19.496  0.00  0.00    +0.000 HD
ENDBRANCH   2   5
BRANCH   3  16
ATOM     16  C   UNL     1      49.337   8.209  14.151  0.00  0.00    +0.000 C 
BRANCH  16  17
ATOM     17  C   UNL     1      48.033   7.796  13.529  0.00  0.00    +0.000 A 
ATOM     18  C   UNL     1      46.898   8.611  13.602  0.00  0.00    +0.000 A 
ATOM     19  C   UNL     1      45.721   8.224  12.963  0.00  0.00    +0.000 A 
ATOM     20  C   UNL     1      45.706   7.033  12.241  0.00  0.00    +0.000 A 
ATOM     21  N   UNL     1      46.798   6.235  12.144  0.00  0.00    +0.000 NA
ATOM     22  C   UNL     1      47.927   6.629  12.783  0.00  0.00    +0.000 A 
BRANCH  20  23
ATOM     23  C   UNL     1      44.488   6.633  11.434  0.00  0.00    +0.000 C 
BRANCH  23  24
ATOM     24  C   UNL     1      44.157   5.178  11.593  0.00  0.00    +0.000 A 
ATOM     25  C   UNL     1      43.994   4.336  10.508  0.00  0.00    +0.000 A 
ATOM     26  N   UNL     1      43.590   3.052  10.607  0.00  0.00    +0.000 NA
ATOM     27  C   UNL     1      43.365   2.610  11.852  0.00  0.00    +0.000 A 
ATOM     28  N   UNL     1      43.530   3.316  12.982  0.00  0.00    +0.000 NA
ATOM     29  C   UNL     1      43.933   4.591  12.822  0.00  0.00    +0.000 A 
ENDBRANCH  23  24
ENDBRANCH  20  23
ENDBRANCH  16  17
ENDBRANCH   3  16
TORSDOF 5
ENDMDL
