MODEL 1
REMARK VINA RESULT:   -10.033      0.000      0.000
REMARK INTER + INTRA:         -14.379
REMARK INTER:                 -13.552
REMARK INTRA:                  -0.827
REMARK UNBOUND:                -0.827
REMARK  Name = 
REMARK  6 active torsions:
REMARK  status: ('A' for Active; 'I' for Inactive)
REMARK    1  A    between atoms: C_2  and  C_4
REMARK    2  A    between atoms: N_8  and  C_9
REMARK    3  A    between atoms: C_9  and  C_10
REMARK    4  A    between atoms: C_10  and  C_13
REMARK    5  A    between atoms: C_17  and  O_18
REMARK    6  A    between atoms: O_18  and  C_19
REMARK                            x       y       z     vdW  Elec       q    Type
REMARK                         _______ _______ _______ _____ _____    ______ ____
ROOT
ATOM      1  C   UNL     1      43.333   4.311  11.176  0.00  0.00    +0.000 C 
ENDROOT
BRANCH   1   6
ATOM      2  C   UNL     1      46.533   2.536   7.652  0.00  0.00    +0.000 A 
ATOM      3  C   UNL     1      45.678   1.850   8.505  0.00  0.00    +0.000 A 
ATOM      4  C   UNL     1      44.757   2.572   9.266  0.00  0.00    +0.000 A 
ATOM      5  C   UNL     1      44.709   3.962   9.174  0.00  0.00    +0.000 A 
ATOM      6  N   UNL     1      43.756   4.726   9.829  0.00  0.00    +0.000 N 
ATOM      7  N   UNL     1      45.557   4.636   8.374  0.00  0.00    +0.000 NA
ATOM      8  C   UNL     1      46.453   3.921   7.642  0.00  0.00    +0.000 A 
ATOM      9  H   UNL     1      43.998   5.710   9.722  0.00  0.00    +0.000 HD
BRANCH   2  11
ATOM     10  N   UNL     1      48.609   2.558   6.398  0.00  0.00    +0.000 N 
ATOM     11  C   UNL     1      47.504   1.848   6.779  0.00  0.00    +0.000 C 
ATOM     12  O   UNL     1      47.347   0.683   6.436  0.00  0.00    +0.000 OA
ATOM     13  H   UNL     1      49.320   2.046   5.886  0.00  0.00    +0.000 HD
ATOM     14  H   UNL     1      48.897   3.408   6.864  0.00  0.00    +0.000 HD
ENDBRANCH   2  11
ENDBRANCH   1   6
BRANCH   1  15
ATOM     15  C   UNL     1      43.470   5.404  12.264  0.00  0.00    +0.000 C 
ATOM     16  F   UNL     1      43.065   6.597  11.729  0.00  0.00    +0.000 F 
ATOM     17  F   UNL     1      42.587   5.145  13.276  0.00  0.00    +0.000 F 
BRANCH  15  18
ATOM     18  C   UNL     1      44.906   5.471  12.783  0.00  0.00    +0.000 A 
ATOM     19  C   UNL     1      45.671   6.611  12.537  0.00  0.00    +0.000 A 
ATOM     20  C   UNL     1      46.995   6.641  12.972  0.00  0.00    +0.000 A 
ATOM     21  C   UNL     1      47.520   5.546  13.649  0.00  0.00    +0.000 A 
ATOM     22  C   UNL     1      46.683   4.475  13.899  0.00  0.00    +0.000 A 
ATOM     23  N   UNL     1      45.404   4.410  13.481  0.00  0.00    +0.000 NA
BRANCH  22  24
ATOM     24  O   UNL     1      47.193   3.426  14.635  0.00  0.00    +0.000 OA
BRANCH  24  25
ATOM     25  C   UNL     1      47.599   3.752  15.979  0.00  0.00    +0.000 C 
ATOM     26  C   UNL     1      48.522   2.748  16.690  0.00  0.00    +0.000 C 
ATOM     27  C   UNL     1      47.485   2.785  17.802  0.00  0.00    +0.000 C 
ATOM     28  O   UNL     1      46.551   3.502  16.962  0.00  0.00    +0.000 OA
ENDBRANCH  24  25
ENDBRANCH  22  24
ENDBRANCH  15  18
ENDBRANCH   1  15
TORSDOF 6
ENDMDL
MODEL 2
REMARK VINA RESULT:    -8.708      2.077      3.351
REMARK INTER + INTRA:         -12.589
REMARK INTER:                 -11.655
REMARK INTRA:                  -0.934
REMARK UNBOUND:                -0.827
REMARK  Name = 
REMARK  6 active torsions:
REMARK  status: ('A' for Active; 'I' for Inactive)
REMARK    1  A    between atoms: C_2  and  C_4
REMARK    2  A    between atoms: N_8  and  C_9
REMARK    3  A    between atoms: C_9  and  C_10
REMARK    4  A    between atoms: C_10  and  C_13
REMARK    5  A    between atoms: C_17  and  O_18
REMARK    6  A    between atoms: O_18  and  C_19
REMARK                            x       y       z     vdW  Elec       q    Type
REMARK                         _______ _______ _______ _____ _____    ______ ____
ROOT
ATOM      1  C   UNL     1      43.318   4.405  11.158  0.00  0.00    +0.000 C 
ENDROOT
BRANCH   1   6
ATOM      2  C   UNL     1      46.471   2.464   7.679  0.00  0.00    +0.000 A 
ATOM      3  C   UNL     1      45.650   1.819   8.596  0.00  0.00    +0.000 A 
ATOM      4  C   UNL     1      44.733   2.572   9.331  0.00  0.00    +0.000 A 
ATOM      5  C   UNL     1      44.654   3.952   9.150  0.00  0.00    +0.000 A 
ATOM      6  N   UNL     1      43.700   4.739   9.777  0.00  0.00    +0.000 N 
ATOM      7  N   UNL     1      45.469   4.589   8.287  0.00  0.00    +0.000 NA
ATOM      8  C   UNL     1      46.361   3.844   7.582  0.00  0.00    +0.000 A 
ATOM      9  H   UNL     1      43.919   5.718   9.600  0.00  0.00    +0.000 HD
BRANCH   2  11
ATOM     10  N   UNL     1      48.561   2.416   6.450  0.00  0.00    +0.000 N 
ATOM     11  C   UNL     1      47.434   1.739   6.830  0.00  0.00    +0.000 C 
ATOM     12  O   UNL     1      47.254   0.573   6.504  0.00  0.00    +0.000 OA
ATOM     13  H   UNL     1      49.266   1.880   5.955  0.00  0.00    +0.000 HD
ATOM     14  H   UNL     1      48.864   3.267   6.906  0.00  0.00    +0.000 HD
ENDBRANCH   2  11
ENDBRANCH   1   6
BRANCH   1  15
ATOM     15  C   UNL     1      43.557   5.536  12.189  0.00  0.00    +0.000 C 
ATOM     16  F   UNL     1      43.283   6.734  11.584  0.00  0.00    +0.000 F 
ATOM     17  F   UNL     1      42.642   5.426  13.199  0.00  0.00    +0.000 F 
BRANCH  15  18
ATOM     18  C   UNL     1      44.987   5.483  12.725  0.00  0.00    +0.000 A 
ATOM     19  C   UNL     1      45.522   4.260  13.131  0.00  0.00    +0.000 A 
ATOM     20  C   UNL     1      46.809   4.231  13.665  0.00  0.00    +0.000 A 
ATOM     21  C   UNL     1      47.535   5.412  13.770  0.00  0.00    +0.000 A 
ATOM     22  C   UNL     1      46.955   6.575  13.299  0.00  0.00    +0.000 A 
ATOM     23  N   UNL     1      45.709   6.638  12.789  0.00  0.00    +0.000 NA
BRANCH  22  24
ATOM     24  O   UNL     1      47.712   7.727  13.341  0.00  0.00    +0.000 OA
BRANCH  24  25
ATOM     25  C   UNL     1      48.604   7.923  12.225  0.00  0.00    +0.000 C 
ATOM     26  C   UNL     1      50.047   8.342  12.553  0.00  0.00    +0.000 C 
ATOM     27  C   UNL     1      49.796   9.483  11.580  0.00  0.00    +0.000 C 
ATOM     28  O   UNL     1      48.380   9.190  11.538  0.00  0.00    +0.000 OA
ENDBRANCH  24  25
ENDBRANCH  22  24
ENDBRANCH  15  18
ENDBRANCH   1  15
TORSDOF 6
ENDMDL
MODEL 3
REMARK VINA RESULT:    -8.032      2.247      2.600
REMARK INTER + INTRA:         -11.677
REMARK INTER:                 -10.900
REMARK INTRA:                  -0.777
REMARK UNBOUND:                -0.827
REMARK  Name = 
REMARK  6 active torsions:
REMARK  status: ('A' for Active; 'I' for Inactive)
REMARK    1  A    between atoms: C_2  and  C_4
REMARK    2  A    between atoms: N_8  and  C_9
REMARK    3  A    between atoms: C_9  and  C_10
REMARK    4  A    between atoms: C_10  and  C_13
REMARK    5  A    between atoms: C_17  and  O_18
REMARK    6  A    between atoms: O_18  and  C_19
REMARK                            x       y       z     vdW  Elec       q    Type
REMARK                         _______ _______ _______ _____ _____    ______ ____
ROOT
ATOM      1  C   UNL     1      43.260   3.823  11.221  0.00  0.00    +0.000 C 
ENDROOT
BRANCH   1   6
ATOM      2  C   UNL     1      46.462   2.849   7.399  0.00  0.00    +0.000 A 
ATOM      3  C   UNL     1      45.985   4.065   7.874  0.00  0.00    +0.000 A 
ATOM      4  C   UNL     1      45.250   4.087   9.060  0.00  0.00    +0.000 A 
ATOM      5  C   UNL     1      44.993   2.902   9.747  0.00  0.00    +0.000 A 
ATOM      6  N   UNL     1      44.354   2.870  10.977  0.00  0.00    +0.000 N 
ATOM      7  N   UNL     1      45.424   1.716   9.276  0.00  0.00    +0.000 NA
ATOM      8  C   UNL     1      46.134   1.708   8.117  0.00  0.00    +0.000 A 
ATOM      9  H   UNL     1      44.161   1.900  11.219  0.00  0.00    +0.000 HD
BRANCH   2  11
ATOM     10  N   UNL     1      48.604   2.420   6.345  0.00  0.00    +0.000 N 
ATOM     11  C   UNL     1      47.284   2.742   6.179  0.00  0.00    +0.000 C 
ATOM     12  O   UNL     1      46.805   2.900   5.064  0.00  0.00    +0.000 OA
ATOM     13  H   UNL     1      49.137   2.246   5.499  0.00  0.00    +0.000 HD
ATOM     14  H   UNL     1      48.965   2.032   7.206  0.00  0.00    +0.000 HD
ENDBRANCH   2  11
ENDBRANCH   1   6
BRANCH   1  15
ATOM     15  C   UNL     1      43.428   4.693  12.491  0.00  0.00    +0.000 C 
ATOM     16  F   UNL     1      42.269   5.395  12.689  0.00  0.00    +0.000 F 
ATOM     17  F   UNL     1      43.545   3.878  13.583  0.00  0.00    +0.000 F 
BRANCH  15  18
ATOM     18  C   UNL     1      44.637   5.617  12.355  0.00  0.00    +0.000 A 
ATOM     19  C   UNL     1      44.542   6.759  11.559  0.00  0.00    +0.000 A 
ATOM     20  C   UNL     1      45.665   7.569  11.402  0.00  0.00    +0.000 A 
ATOM     21  C   UNL     1      46.849   7.231  12.049  0.00  0.00    +0.000 A 
ATOM     22  C   UNL     1      46.850   6.113  12.861  0.00  0.00    +0.000 A 
ATOM     23  N   UNL     1      45.785   5.304  13.023  0.00  0.00    +0.000 NA
BRANCH  22  24
ATOM     24  O   UNL     1      48.008   5.829  13.554  0.00  0.00    +0.000 OA
BRANCH  24  25
ATOM     25  C   UNL     1      48.791   6.974  13.945  0.00  0.00    +0.000 C 
ATOM     26  C   UNL     1      49.658   6.826  15.207  0.00  0.00    +0.000 C 
ATOM     27  C   UNL     1      48.959   8.094  15.674  0.00  0.00    +0.000 C 
ATOM     28  O   UNL     1      47.996   8.008  14.598  0.00  0.00    +0.000 OA
ENDBRANCH  24  25
ENDBRANCH  22  24
ENDBRANCH  15  18
ENDBRANCH   1  15
TORSDOF 6
ENDMDL
MODEL 4
REMARK VINA RESULT:    -7.675      2.500      7.999
REMARK INTER + INTRA:         -11.193
REMARK INTER:                 -10.692
REMARK INTRA:                  -0.501
REMARK UNBOUND:                -0.827
REMARK  Name = 
REMARK  6 active torsions:
REMARK  status: ('A' for Active; 'I' for Inactive)
REMARK    1  A    between atoms: C_2  and  C_4
REMARK    2  A    between atoms: N_8  and  C_9
REMARK    3  A    between atoms: C_9  and  C_10
REMARK    4  A    between atoms: C_10  and  C_13
REMARK    5  A    between atoms: C_17  and  O_18
REMARK    6  A    between atoms: O_18  and  C_19
REMARK                            x       y       z     vdW  Elec       q    Type
REMARK                         _______ _______ _______ _____ _____    ______ ____
ROOT
ATOM      1  C   UNL     1      46.026   5.766  13.082  0.00  0.00    +0.000 C 
ENDROOT
BRANCH   1   6
ATOM      2  C   UNL     1      48.494   4.501  17.338  0.00  0.00    +0.000 A 
ATOM      3  C   UNL     1      47.429   3.871  16.705  0.00  0.00    +0.000 A 
ATOM      4  C   UNL     1      47.037   4.312  15.440  0.00  0.00    +0.000 A 
ATOM      5  C   UNL     1      47.702   5.374  14.831  0.00  0.00    +0.000 A 
ATOM      6  N   UNL     1      47.424   5.794  13.539  0.00  0.00    +0.000 N 
ATOM      7  N   UNL     1      48.713   6.011  15.452  0.00  0.00    +0.000 NA
ATOM      8  C   UNL     1      49.081   5.576  16.687  0.00  0.00    +0.000 A 
ATOM      9  H   UNL     1      47.933   6.657  13.361  0.00  0.00    +0.000 HD
BRANCH   2  11
ATOM     10  N   UNL     1      48.296   3.094  19.304  0.00  0.00    +0.000 N 
ATOM     11  C   UNL     1      49.001   4.070  18.655  0.00  0.00    +0.000 C 
ATOM     12  O   UNL     1      50.025   4.539  19.134  0.00  0.00    +0.000 OA
ATOM     13  H   UNL     1      48.708   2.730  20.157  0.00  0.00    +0.000 HD
ATOM     14  H   UNL     1      47.616   2.511  18.834  0.00  0.00    +0.000 HD
ENDBRANCH   2  11
ENDBRANCH   1   6
BRANCH   1  15
ATOM     15  C   UNL     1      45.813   6.226  11.618  0.00  0.00    +0.000 C 
ATOM     16  F   UNL     1      44.943   7.283  11.621  0.00  0.00    +0.000 F 
ATOM     17  F   UNL     1      46.987   6.729  11.129  0.00  0.00    +0.000 F 
BRANCH  15  18
ATOM     18  C   UNL     1      45.302   5.070  10.759  0.00  0.00    +0.000 A 
ATOM     19  C   UNL     1      44.513   4.078  11.342  0.00  0.00    +0.000 A 
ATOM     20  C   UNL     1      44.094   3.003  10.560  0.00  0.00    +0.000 A 
ATOM     21  C   UNL     1      44.457   2.948   9.219  0.00  0.00    +0.000 A 
ATOM     22  C   UNL     1      45.197   3.994   8.703  0.00  0.00    +0.000 A 
ATOM     23  N   UNL     1      45.628   5.040   9.434  0.00  0.00    +0.000 NA
BRANCH  22  24
ATOM     24  O   UNL     1      45.489   3.964   7.355  0.00  0.00    +0.000 OA
BRANCH  24  25
ATOM     25  C   UNL     1      46.805   3.481   7.018  0.00  0.00    +0.000 C 
ATOM     26  C   UNL     1      46.973   2.824   5.638  0.00  0.00    +0.000 C 
ATOM     27  C   UNL     1      47.568   1.659   6.412  0.00  0.00    +0.000 C 
ATOM     28  O   UNL     1      47.128   2.218   7.671  0.00  0.00    +0.000 OA
ENDBRANCH  24  25
ENDBRANCH  22  24
ENDBRANCH  15  18
ENDBRANCH   1  15
TORSDOF 6
ENDMDL
MODEL 5
REMARK VINA RESULT:    -7.348      2.858      8.006
REMARK INTER + INTRA:         -10.752
REMARK INTER:                  -9.939
REMARK INTRA:                  -0.813
REMARK UNBOUND:                -0.827
REMARK  Name = 
REMARK  6 active torsions:
REMARK  status: ('A' for Active; 'I' for Inactive)
REMARK    1  A    between atoms: C_2  and  C_4
REMARK    2  A    between atoms: N_8  and  C_9
REMARK    3  A    between atoms: C_9  and  C_10
REMARK    4  A    between atoms: C_10  and  C_13
REMARK    5  A    between atoms: C_17  and  O_18
REMARK    6  A    between atoms: O_18  and  C_19
REMARK                            x       y       z     vdW  Elec       q    Type
REMARK                         _______ _______ _______ _____ _____    ______ ____
ROOT
ATOM      1  C   UNL     1      47.532   5.742  13.200  0.00  0.00    +0.000 C 
ENDROOT
BRANCH   1   6
ATOM      2  C   UNL     1      48.421   4.453  18.033  0.00  0.00    +0.000 A 
ATOM      3  C   UNL     1      48.803   5.588  17.329  0.00  0.00    +0.000 A 
ATOM      4  C   UNL     1      48.282   5.801  16.052  0.00  0.00    +0.000 A 
ATOM      5  C   UNL     1      47.398   4.880  15.494  0.00  0.00    +0.000 A 
ATOM      6  N   UNL     1      46.772   5.082  14.273  0.00  0.00    +0.000 N 
ATOM      7  N   UNL     1      47.048   3.761  16.157  0.00  0.00    +0.000 NA
ATOM      8  C   UNL     1      47.568   3.563  17.397  0.00  0.00    +0.000 A 
ATOM      9  H   UNL     1      46.284   4.228  14.012  0.00  0.00    +0.000 HD
BRANCH   2  11
ATOM     10  N   UNL     1      48.337   3.098  20.043  0.00  0.00    +0.000 N 
ATOM     11  C   UNL     1      48.889   4.175  19.404  0.00  0.00    +0.000 C 
ATOM     12  O   UNL     1      49.755   4.855  19.938  0.00  0.00    +0.000 OA
ATOM     13  H   UNL     1      48.738   2.852  20.942  0.00  0.00    +0.000 HD
ATOM     14  H   UNL     1      47.828   2.376  19.551  0.00  0.00    +0.000 HD
ENDBRANCH   2  11
ENDBRANCH   1   6
BRANCH   1  15
ATOM     15  C   UNL     1      46.705   6.715  12.324  0.00  0.00    +0.000 C 
ATOM     16  F   UNL     1      46.337   7.784  13.097  0.00  0.00    +0.000 F 
ATOM     17  F   UNL     1      47.508   7.237  11.348  0.00  0.00    +0.000 F 
BRANCH  15  18
ATOM     18  C   UNL     1      45.493   6.003  11.725  0.00  0.00    +0.000 A 
ATOM     19  C   UNL     1      44.238   6.607  11.796  0.00  0.00    +0.000 A 
ATOM     20  C   UNL     1      43.132   5.926  11.290  0.00  0.00    +0.000 A 
ATOM     21  C   UNL     1      43.302   4.671  10.716  0.00  0.00    +0.000 A 
ATOM     22  C   UNL     1      44.585   4.162  10.637  0.00  0.00    +0.000 A 
ATOM     23  N   UNL     1      45.672   4.789  11.127  0.00  0.00    +0.000 NA
BRANCH  22  24
ATOM     24  O   UNL     1      44.751   2.949  10.000  0.00  0.00    +0.000 OA
BRANCH  24  25
ATOM     25  C   UNL     1      44.857   3.014   8.564  0.00  0.00    +0.000 C 
ATOM     26  C   UNL     1      46.051   2.287   7.922  0.00  0.00    +0.000 C 
ATOM     27  C   UNL     1      46.328   3.621   7.246  0.00  0.00    +0.000 C 
ATOM     28  O   UNL     1      45.368   4.295   8.092  0.00  0.00    +0.000 OA
ENDBRANCH  24  25
ENDBRANCH  22  24
ENDBRANCH  15  18
ENDBRANCH   1  15
TORSDOF 6
ENDMDL
MODEL 6
REMARK VINA RESULT:    -7.035      4.157      6.263
REMARK INTER + INTRA:         -10.329
REMARK INTER:                  -9.674
REMARK INTRA:                  -0.655
REMARK UNBOUND:                -0.827
REMARK  Name = 
REMARK  6 active torsions:
REMARK  status: ('A' for Active; 'I' for Inactive)
REMARK    1  A    between atoms: C_2  and  C_4
REMARK    2  A    between atoms: N_8  and  C_9
REMARK    3  A    between atoms: C_9  and  C_10
REMARK    4  A    between atoms: C_10  and  C_13
REMARK    5  A    between atoms: C_17  and  O_18
REMARK    6  A    between atoms: O_18  and  C_19
REMARK                            x       y       z     vdW  Elec       q    Type
REMARK                         _______ _______ _______ _____ _____    ______ ____
ROOT
ATOM      1  C   UNL     1      47.486   4.503  15.947  0.00  0.00    +0.000 C 
ENDROOT
BRANCH   1   6
ATOM      2  C   UNL     1      45.090   4.643  11.470  0.00  0.00    +0.000 A 
ATOM      3  C   UNL     1      45.775   5.645  12.145  0.00  0.00    +0.000 A 
ATOM      4  C   UNL     1      46.509   5.314  13.285  0.00  0.00    +0.000 A 
ATOM      5  C   UNL     1      46.542   3.997  13.739  0.00  0.00    +0.000 A 
ATOM      6  N   UNL     1      47.329   3.588  14.805  0.00  0.00    +0.000 N 
ATOM      7  N   UNL     1      45.854   3.026  13.109  0.00  0.00    +0.000 NA
ATOM      8  C   UNL     1      45.138   3.363  12.003  0.00  0.00    +0.000 A 
ATOM      9  H   UNL     1      47.090   2.625  15.036  0.00  0.00    +0.000 HD
BRANCH   2  11
ATOM     10  N   UNL     1      45.012   4.812   9.052  0.00  0.00    +0.000 N 
ATOM     11  C   UNL     1      44.327   4.898  10.233  0.00  0.00    +0.000 C 
ATOM     12  O   UNL     1      43.129   5.144  10.256  0.00  0.00    +0.000 OA
ATOM     13  H   UNL     1      44.461   4.885   8.203  0.00  0.00    +0.000 HD
ATOM     14  H   UNL     1      45.915   4.363   8.978  0.00  0.00    +0.000 HD
ENDBRANCH   2  11
ENDBRANCH   1   6
BRANCH   1  15
ATOM     15  C   UNL     1      47.734   3.805  17.307  0.00  0.00    +0.000 C 
ATOM     16  F   UNL     1      47.155   4.560  18.291  0.00  0.00    +0.000 F 
ATOM     17  F   UNL     1      47.066   2.612  17.330  0.00  0.00    +0.000 F 
BRANCH  15  18
ATOM     18  C   UNL     1      49.231   3.609  17.547  0.00  0.00    +0.000 A 
ATOM     19  C   UNL     1      49.973   4.637  18.128  0.00  0.00    +0.000 A 
ATOM     20  C   UNL     1      51.346   4.467  18.297  0.00  0.00    +0.000 A 
ATOM     21  C   UNL     1      51.943   3.277  17.897  0.00  0.00    +0.000 A 
ATOM     22  C   UNL     1      51.133   2.286  17.377  0.00  0.00    +0.000 A 
ATOM     23  N   UNL     1      49.806   2.424  17.189  0.00  0.00    +0.000 NA
BRANCH  22  24
ATOM     24  O   UNL     1      51.725   1.083  17.051  0.00  0.00    +0.000 OA
BRANCH  24  25
ATOM     25  C   UNL     1      53.073   0.908  17.530  0.00  0.00    +0.000 C 
ATOM     26  C   UNL     1      54.002   0.021  16.684  0.00  0.00    +0.000 C 
ATOM     27  C   UNL     1      54.248  -0.730  17.984  0.00  0.00    +0.000 C 
ATOM     28  O   UNL     1      53.162  -0.036  18.638  0.00  0.00    +0.000 OA
ENDBRANCH  24  25
ENDBRANCH  22  24
ENDBRANCH  15  18
ENDBRANCH   1  15
TORSDOF 6
ENDMDL
