MODEL 1
REMARK VINA RESULT:    -8.137      0.000      0.000
REMARK INTER + INTRA:         -11.478
REMARK INTER:                 -10.991
REMARK INTRA:                  -0.486
REMARK UNBOUND:                -0.486
REMARK  Name = 
REMARK  10 active torsions:
REMARK  status: ('A' for Active; 'I' for Inactive)
REMARK    1  A    between atoms: C_1  and  O_2
REMARK    2  A    between atoms: O_2  and  C_3
REMARK    3  A    between atoms: N_10  and  C_11
REMARK    4  A    between atoms: C_15  and  C_16
REMARK    5  A    between atoms: C_16  and  C_17
REMARK    6  A    between atoms: C_16  and  C_18
REMARK    7  A    between atoms: C_16  and  C_19
REMARK    8  A    between atoms: C_19  and  N_20
REMARK    9  A    between atoms: N_20  and  C_21
REMARK   10  A    between atoms: C_24  and  C_25
REMARK                            x       y       z     vdW  Elec       q    Type
REMARK                         _______ _______ _______ _____ _____    ______ ____
ROOT
ATOM      1  C   UNL     1      44.896   7.579  11.941  0.00  0.00    +0.000 A 
ATOM      2  C   UNL     1      45.765   8.617  12.257  0.00  0.00    +0.000 A 
ATOM      3  C   UNL     1      46.857   8.374  13.063  0.00  0.00    +0.000 A 
ATOM      4  C   UNL     1      47.103   7.089  13.523  0.00  0.00    +0.000 A 
ATOM      5  N   UNL     1      48.247   6.909  14.277  0.00  0.00    +0.000 N 
ATOM      6  C   UNL     1      48.305   5.877  15.310  0.00  0.00    +0.000 C 
ATOM      7  C   UNL     1      49.329   6.325  16.391  0.00  0.00    +0.000 C 
ATOM      8  N   UNL     1      50.670   6.618  15.822  0.00  0.00    +0.000 NA
ATOM      9  C   UNL     1      51.584   7.088  16.861  0.00  0.00    +0.000 C 
ATOM     10  C   UNL     1      50.535   7.625  14.742  0.00  0.00    +0.000 C 
ATOM     11  C   UNL     1      49.544   7.181  13.636  0.00  0.00    +0.000 C 
ATOM     12  N   UNL     1      46.270   6.064  13.231  0.00  0.00    +0.000 NA
ATOM     13  C   UNL     1      45.163   6.291  12.448  0.00  0.00    +0.000 A 
ENDROOT
BRANCH  13  14
ATOM     14  C   UNL     1      44.258   5.069  12.170  0.00  0.00    +0.000 C 
ATOM     15  C   UNL     1      44.999   3.779  12.622  0.00  0.00    +0.000 C 
ATOM     16  C   UNL     1      42.949   5.194  12.974  0.00  0.00    +0.000 C 
BRANCH  14  17
ATOM     17  C   UNL     1      43.902   4.884  10.652  0.00  0.00    +0.000 C 
BRANCH  17  18
ATOM     18  N   UNL     1      43.782   3.484  10.192  0.00  0.00    +0.000 N 
ATOM     19  H   UNL     1      42.816   3.270   9.927  0.00  0.00    +0.000 HD
BRANCH  18  20
ATOM     20  C   UNL     1      44.685   3.116   9.171  0.00  0.00    +0.000 A 
ATOM     21  C   UNL     1      45.251   4.058   8.297  0.00  0.00    +0.000 A 
ATOM     22  C   UNL     1      46.225   3.692   7.361  0.00  0.00    +0.000 A 
ATOM     23  C   UNL     1      46.674   2.374   7.299  0.00  0.00    +0.000 A 
ATOM     24  C   UNL     1      46.118   1.421   8.156  0.00  0.00    +0.000 A 
ATOM     25  C   UNL     1      45.143   1.796   9.091  0.00  0.00    +0.000 A 
BRANCH  23  26
ATOM     26  C   UNL     1      47.723   2.007   6.375  0.00  0.00    +0.000 C 
ATOM     27  N   UNL     1      48.557   1.731   5.638  0.00  0.00    +0.000 NA
ENDBRANCH  23  26
ENDBRANCH  18  20
ENDBRANCH  17  18
ENDBRANCH  14  17
ENDBRANCH  13  14
BRANCH   1  29
ATOM     28  C   UNL     1      43.622   9.244  10.872  0.00  0.00    +0.000 C 
ATOM     29  O   UNL     1      43.765   7.861  11.213  0.00  0.00    +0.000 OA
ENDBRANCH   1  29
TORSDOF 6
ENDMDL
MODEL 2
REMARK VINA RESULT:    -7.175      1.732      2.940
REMARK INTER + INTRA:         -10.178
REMARK INTER:                 -10.260
REMARK INTRA:                   0.082
REMARK UNBOUND:                -0.486
REMARK  Name = 
REMARK  10 active torsions:
REMARK  status: ('A' for Active; 'I' for Inactive)
REMARK    1  A    between atoms: C_1  and  O_2
REMARK    2  A    between atoms: O_2  and  C_3
REMARK    3  A    between atoms: N_10  and  C_11
REMARK    4  A    between atoms: C_15  and  C_16
REMARK    5  A    between atoms: C_16  and  C_17
REMARK    6  A    between atoms: C_16  and  C_18
REMARK    7  A    between atoms: C_16  and  C_19
REMARK    8  A    between atoms: C_19  and  N_20
REMARK    9  A    between atoms: N_20  and  C_21
REMARK   10  A    between atoms: C_24  and  C_25
REMARK                            x       y       z     vdW  Elec       q    Type
REMARK                         _______ _______ _______ _____ _____    ______ ____
ROOT
ATOM      1  C   UNL     1      44.902   4.617  13.165  0.00  0.00    +0.000 A 
ATOM      2  C   UNL     1      46.042   4.338  13.911  0.00  0.00    +0.000 A 
ATOM      3  C   UNL     1      47.170   5.116  13.755  0.00  0.00    +0.000 A 
ATOM      4  C   UNL     1      47.147   6.196  12.885  0.00  0.00    +0.000 A 
ATOM      5  N   UNL     1      48.293   6.967  12.825  0.00  0.00    +0.000 N 
ATOM      6  C   UNL     1      48.659   7.663  11.594  0.00  0.00    +0.000 C 
ATOM      7  C   UNL     1      50.205   7.838  11.572  0.00  0.00    +0.000 C 
ATOM      8  N   UNL     1      50.717   8.536  12.780  0.00  0.00    +0.000 NA
ATOM      9  C   UNL     1      52.175   8.630  12.745  0.00  0.00    +0.000 C 
ATOM     10  C   UNL     1      50.262   7.816  13.993  0.00  0.00    +0.000 C 
ATOM     11  C   UNL     1      48.721   7.661  14.049  0.00  0.00    +0.000 C 
ATOM     12  N   UNL     1      46.051   6.485  12.147  0.00  0.00    +0.000 NA
ATOM     13  C   UNL     1      44.926   5.706  12.271  0.00  0.00    +0.000 A 
ENDROOT
BRANCH  13  14
ATOM     14  C   UNL     1      43.720   6.097  11.385  0.00  0.00    +0.000 C 
ATOM     15  C   UNL     1      42.406   5.710  12.120  0.00  0.00    +0.000 C 
ATOM     16  C   UNL     1      43.721   7.619  11.144  0.00  0.00    +0.000 C 
BRANCH  14  17
ATOM     17  C   UNL     1      43.700   5.368   9.995  0.00  0.00    +0.000 C 
BRANCH  17  18
ATOM     18  N   UNL     1      43.920   3.906  10.039  0.00  0.00    +0.000 N 
ATOM     19  H   UNL     1      43.043   3.402   9.876  0.00  0.00    +0.000 HD
BRANCH  18  20
ATOM     20  C   UNL     1      44.946   3.434   9.192  0.00  0.00    +0.000 A 
ATOM     21  C   UNL     1      45.238   2.068   9.058  0.00  0.00    +0.000 A 
ATOM     22  C   UNL     1      46.184   1.610   8.135  0.00  0.00    +0.000 A 
ATOM     23  C   UNL     1      46.841   2.514   7.302  0.00  0.00    +0.000 A 
ATOM     24  C   UNL     1      46.569   3.879   7.424  0.00  0.00    +0.000 A 
ATOM     25  C   UNL     1      45.619   4.329   8.352  0.00  0.00    +0.000 A 
BRANCH  23  26
ATOM     26  C   UNL     1      47.774   2.038   6.306  0.00  0.00    +0.000 C 
ATOM     27  N   UNL     1      48.509   1.670   5.506  0.00  0.00    +0.000 NA
ENDBRANCH  23  26
ENDBRANCH  18  20
ENDBRANCH  17  18
ENDBRANCH  14  17
ENDBRANCH  13  14
BRANCH   1  29
ATOM     28  C   UNL     1      44.003   2.514  12.607  0.00  0.00    +0.000 C 
ATOM     29  O   UNL     1      43.822   3.773  13.266  0.00  0.00    +0.000 OA
ENDBRANCH   1  29
TORSDOF 6
ENDMDL
MODEL 3
REMARK VINA RESULT:    -6.593      1.629      2.843
REMARK INTER + INTRA:          -9.392
REMARK INTER:                  -8.949
REMARK INTRA:                  -0.443
REMARK UNBOUND:                -0.486
REMARK  Name = 
REMARK  10 active torsions:
REMARK  status: ('A' for Active; 'I' for Inactive)
REMARK    1  A    between atoms: C_1  and  O_2
REMARK    2  A    between atoms: O_2  and  C_3
REMARK    3  A    between atoms: N_10  and  C_11
REMARK    4  A    between atoms: C_15  and  C_16
REMARK    5  A    between atoms: C_16  and  C_17
REMARK    6  A    between atoms: C_16  and  C_18
REMARK    7  A    between atoms: C_16  and  C_19
REMARK    8  A    between atoms: C_19  and  N_20
REMARK    9  A    between atoms: N_20  and  C_21
REMARK   10  A    between atoms: C_24  and  C_25
REMARK                            x       y       z     vdW  Elec       q    Type
REMARK                         _______ _______ _______ _____ _____    ______ ____
ROOT
ATOM      1  C   UNL     1      45.828   4.859  13.284  0.00  0.00    +0.000 A 
ATOM      2  C   UNL     1      46.373   4.200  14.380  0.00  0.00    +0.000 A 
ATOM      3  C   UNL     1      47.419   4.772  15.072  0.00  0.00    +0.000 A 
ATOM      4  C   UNL     1      47.896   6.018  14.695  0.00  0.00    +0.000 A 
ATOM      5  N   UNL     1      48.906   6.556  15.471  0.00  0.00    +0.000 N 
ATOM      6  C   UNL     1      49.897   7.456  14.885  0.00  0.00    +0.000 C 
ATOM      7  C   UNL     1      51.209   7.344  15.714  0.00  0.00    +0.000 C 
ATOM      8  N   UNL     1      50.996   7.615  17.159  0.00  0.00    +0.000 NA
ATOM      9  C   UNL     1      52.240   7.445  17.907  0.00  0.00    +0.000 C 
ATOM     10  C   UNL     1      49.939   6.713  17.677  0.00  0.00    +0.000 C 
ATOM     11  C   UNL     1      48.613   6.835  16.885  0.00  0.00    +0.000 C 
ATOM     12  N   UNL     1      47.384   6.678  13.631  0.00  0.00    +0.000 NA
ATOM     13  C   UNL     1      46.356   6.112  12.913  0.00  0.00    +0.000 A 
ENDROOT
BRANCH  13  14
ATOM     14  C   UNL     1      45.835   6.925  11.706  0.00  0.00    +0.000 C 
ATOM     15  C   UNL     1      44.293   7.084  11.831  0.00  0.00    +0.000 C 
ATOM     16  C   UNL     1      46.477   8.326  11.703  0.00  0.00    +0.000 C 
BRANCH  14  17
ATOM     17  C   UNL     1      46.115   6.241  10.321  0.00  0.00    +0.000 C 
BRANCH  17  18
ATOM     18  N   UNL     1      44.967   5.530   9.718  0.00  0.00    +0.000 N 
ATOM     19  H   UNL     1      44.473   6.133   9.055  0.00  0.00    +0.000 HD
BRANCH  18  20
ATOM     20  C   UNL     1      45.281   4.282   9.137  0.00  0.00    +0.000 A 
ATOM     21  C   UNL     1      46.240   4.149   8.121  0.00  0.00    +0.000 A 
ATOM     22  C   UNL     1      46.616   2.894   7.631  0.00  0.00    +0.000 A 
ATOM     23  C   UNL     1      46.056   1.738   8.171  0.00  0.00    +0.000 A 
ATOM     24  C   UNL     1      45.095   1.848   9.178  0.00  0.00    +0.000 A 
ATOM     25  C   UNL     1      44.724   3.111   9.664  0.00  0.00    +0.000 A 
BRANCH  23  26
ATOM     26  C   UNL     1      46.488   0.438   7.709  0.00  0.00    +0.000 C 
ATOM     27  N   UNL     1      46.845  -0.591   7.347  0.00  0.00    +0.000 NA
ENDBRANCH  23  26
ENDBRANCH  18  20
ENDBRANCH  17  18
ENDBRANCH  14  17
ENDBRANCH  13  14
BRANCH   1  29
ATOM     28  C   UNL     1      43.607   4.080  13.249  0.00  0.00    +0.000 C 
ATOM     29  O   UNL     1      44.849   4.230  12.552  0.00  0.00    +0.000 OA
ENDBRANCH   1  29
TORSDOF 6
ENDMDL
MODEL 4
REMARK VINA RESULT:    -6.126      3.049      5.484
REMARK INTER + INTRA:          -8.761
REMARK INTER:                  -8.028
REMARK INTRA:                  -0.733
REMARK UNBOUND:                -0.486
REMARK  Name = 
REMARK  10 active torsions:
REMARK  status: ('A' for Active; 'I' for Inactive)
REMARK    1  A    between atoms: C_1  and  O_2
REMARK    2  A    between atoms: O_2  and  C_3
REMARK    3  A    between atoms: N_10  and  C_11
REMARK    4  A    between atoms: C_15  and  C_16
REMARK    5  A    between atoms: C_16  and  C_17
REMARK    6  A    between atoms: C_16  and  C_18
REMARK    7  A    between atoms: C_16  and  C_19
REMARK    8  A    between atoms: C_19  and  N_20
REMARK    9  A    between atoms: N_20  and  C_21
REMARK   10  A    between atoms: C_24  and  C_25
REMARK                            x       y       z     vdW  Elec       q    Type
REMARK                         _______ _______ _______ _____ _____    ______ ____
ROOT
ATOM      1  C   UNL     1      49.644   5.415  17.429  0.00  0.00    +0.000 A 
ATOM      2  C   UNL     1      50.448   6.548  17.356  0.00  0.00    +0.000 A 
ATOM      3  C   UNL     1      50.409   7.344  16.231  0.00  0.00    +0.000 A 
ATOM      4  C   UNL     1      49.540   7.033  15.196  0.00  0.00    +0.000 A 
ATOM      5  N   UNL     1      49.511   7.908  14.126  0.00  0.00    +0.000 N 
ATOM      6  C   UNL     1      49.195   7.433  12.782  0.00  0.00    +0.000 C 
ATOM      7  C   UNL     1      49.880   8.379  11.755  0.00  0.00    +0.000 C 
ATOM      8  N   UNL     1      49.497   9.802  11.946  0.00  0.00    +0.000 NA
ATOM      9  C   UNL     1      50.205  10.661  10.998  0.00  0.00    +0.000 C 
ATOM     10  C   UNL     1      49.787  10.204  13.344  0.00  0.00    +0.000 C 
ATOM     11  C   UNL     1      49.085   9.293  14.382  0.00  0.00    +0.000 C 
ATOM     12  N   UNL     1      48.750   5.936  15.243  0.00  0.00    +0.000 NA
ATOM     13  C   UNL     1      48.793   5.116  16.346  0.00  0.00    +0.000 A 
ENDROOT
BRANCH  13  14
ATOM     14  C   UNL     1      47.868   3.878  16.316  0.00  0.00    +0.000 C 
ATOM     15  C   UNL     1      48.715   2.606  16.600  0.00  0.00    +0.000 C 
ATOM     16  C   UNL     1      46.788   4.005  17.408  0.00  0.00    +0.000 C 
BRANCH  14  17
ATOM     17  C   UNL     1      47.160   3.657  14.932  0.00  0.00    +0.000 C 
BRANCH  17  18
ATOM     18  N   UNL     1      46.208   4.713  14.527  0.00  0.00    +0.000 N 
ATOM     19  H   UNL     1      46.576   5.641  14.756  0.00  0.00    +0.000 HD
BRANCH  18  20
ATOM     20  C   UNL     1      45.788   4.649  13.180  0.00  0.00    +0.000 A 
ATOM     21  C   UNL     1      45.971   5.716  12.287  0.00  0.00    +0.000 A 
ATOM     22  C   UNL     1      45.647   5.596  10.931  0.00  0.00    +0.000 A 
ATOM     23  C   UNL     1      45.155   4.391  10.434  0.00  0.00    +0.000 A 
ATOM     24  C   UNL     1      44.959   3.319  11.308  0.00  0.00    +0.000 A 
ATOM     25  C   UNL     1      45.288   3.447  12.666  0.00  0.00    +0.000 A 
BRANCH  23  26
ATOM     26  C   UNL     1      44.878   4.247   9.023  0.00  0.00    +0.000 C 
ATOM     27  N   UNL     1      44.655   4.118   7.905  0.00  0.00    +0.000 NA
ENDBRANCH  23  26
ENDBRANCH  18  20
ENDBRANCH  17  18
ENDBRANCH  14  17
ENDBRANCH  13  14
BRANCH   1  29
ATOM     28  C   UNL     1      49.369   5.186  19.755  0.00  0.00    +0.000 C 
ATOM     29  O   UNL     1      49.767   4.585  18.517  0.00  0.00    +0.000 OA
ENDBRANCH   1  29
TORSDOF 6
ENDMDL
MODEL 5
REMARK VINA RESULT:    -5.947      3.416      8.461
REMARK INTER + INTRA:          -8.519
REMARK INTER:                  -8.172
REMARK INTRA:                  -0.347
REMARK UNBOUND:                -0.486
REMARK  Name = 
REMARK  10 active torsions:
REMARK  status: ('A' for Active; 'I' for Inactive)
REMARK    1  A    between atoms: C_1  and  O_2
REMARK    2  A    between atoms: O_2  and  C_3
REMARK    3  A    between atoms: N_10  and  C_11
REMARK    4  A    between atoms: C_15  and  C_16
REMARK    5  A    between atoms: C_16  and  C_17
REMARK    6  A    between atoms: C_16  and  C_18
REMARK    7  A    between atoms: C_16  and  C_19
REMARK    8  A    between atoms: C_19  and  N_20
REMARK    9  A    between atoms: N_20  and  C_21
REMARK   10  A    between atoms: C_24  and  C_25
REMARK                            x       y       z     vdW  Elec       q    Type
REMARK                         _______ _______ _______ _____ _____    ______ ____
ROOT
ATOM      1  C   UNL     1      49.840   7.876  13.930  0.00  0.00    +0.000 A 
ATOM      2  C   UNL     1      49.260   7.946  12.667  0.00  0.00    +0.000 A 
ATOM      3  C   UNL     1      48.208   7.113  12.350  0.00  0.00    +0.000 A 
ATOM      4  C   UNL     1      47.709   6.239  13.304  0.00  0.00    +0.000 A 
ATOM      5  N   UNL     1      46.615   5.478  12.935  0.00  0.00    +0.000 N 
ATOM      6  C   UNL     1      46.401   4.152  13.511  0.00  0.00    +0.000 C 
ATOM      7  C   UNL     1      45.595   3.300  12.489  0.00  0.00    +0.000 C 
ATOM      8  N   UNL     1      44.318   3.946  12.089  0.00  0.00    +0.000 NA
ATOM      9  C   UNL     1      43.620   3.140  11.089  0.00  0.00    +0.000 C 
ATOM     10  C   UNL     1      44.598   5.307  11.571  0.00  0.00    +0.000 C 
ATOM     11  C   UNL     1      45.371   6.183  12.588  0.00  0.00    +0.000 C 
ATOM     12  N   UNL     1      48.257   6.152  14.537  0.00  0.00    +0.000 NA
ATOM     13  C   UNL     1      49.323   6.957  14.864  0.00  0.00    +0.000 A 
ENDROOT
BRANCH  13  14
ATOM     14  C   UNL     1      49.898   6.787  16.289  0.00  0.00    +0.000 C 
ATOM     15  C   UNL     1      51.438   6.603  16.194  0.00  0.00    +0.000 C 
ATOM     16  C   UNL     1      49.602   8.047  17.126  0.00  0.00    +0.000 C 
BRANCH  14  17
ATOM     17  C   UNL     1      49.332   5.534  17.049  0.00  0.00    +0.000 C 
BRANCH  17  18
ATOM     18  N   UNL     1      50.060   5.153  18.279  0.00  0.00    +0.000 N 
ATOM     19  H   UNL     1      49.423   5.114  19.080  0.00  0.00    +0.000 HD
BRANCH  18  20
ATOM     20  C   UNL     1      50.822   3.969  18.175  0.00  0.00    +0.000 A 
ATOM     21  C   UNL     1      50.364   2.843  17.472  0.00  0.00    +0.000 A 
ATOM     22  C   UNL     1      51.176   1.719  17.288  0.00  0.00    +0.000 A 
ATOM     23  C   UNL     1      52.479   1.709  17.782  0.00  0.00    +0.000 A 
ATOM     24  C   UNL     1      52.951   2.817  18.489  0.00  0.00    +0.000 A 
ATOM     25  C   UNL     1      52.131   3.941  18.669  0.00  0.00    +0.000 A 
BRANCH  23  26
ATOM     26  C   UNL     1      53.338   0.572  17.540  0.00  0.00    +0.000 C 
ATOM     27  N   UNL     1      54.031  -0.323  17.355  0.00  0.00    +0.000 NA
ENDBRANCH  23  26
ENDBRANCH  18  20
ENDBRANCH  17  18
ENDBRANCH  14  17
ENDBRANCH  13  14
BRANCH   1  29
ATOM     28  C   UNL     1      51.924   8.640  13.147  0.00  0.00    +0.000 C 
ATOM     29  O   UNL     1      50.946   8.647  14.194  0.00  0.00    +0.000 OA
ENDBRANCH   1  29
TORSDOF 6
ENDMDL
MODEL 6
REMARK VINA RESULT:    -5.813      3.962      8.796
REMARK INTER + INTRA:          -8.339
REMARK INTER:                  -7.907
REMARK INTRA:                  -0.431
REMARK UNBOUND:                -0.486
REMARK  Name = 
REMARK  10 active torsions:
REMARK  status: ('A' for Active; 'I' for Inactive)
REMARK    1  A    between atoms: C_1  and  O_2
REMARK    2  A    between atoms: O_2  and  C_3
REMARK    3  A    between atoms: N_10  and  C_11
REMARK    4  A    between atoms: C_15  and  C_16
REMARK    5  A    between atoms: C_16  and  C_17
REMARK    6  A    between atoms: C_16  and  C_18
REMARK    7  A    between atoms: C_16  and  C_19
REMARK    8  A    between atoms: C_19  and  N_20
REMARK    9  A    between atoms: N_20  and  C_21
REMARK   10  A    between atoms: C_24  and  C_25
REMARK                            x       y       z     vdW  Elec       q    Type
REMARK                         _______ _______ _______ _____ _____    ______ ____
ROOT
ATOM      1  C   UNL     1      48.995   6.575  15.664  0.00  0.00    +0.000 A 
ATOM      2  C   UNL     1      48.932   7.108  14.381  0.00  0.00    +0.000 A 
ATOM      3  C   UNL     1      48.039   6.591  13.467  0.00  0.00    +0.000 A 
ATOM      4  C   UNL     1      47.183   5.567  13.844  0.00  0.00    +0.000 A 
ATOM      5  N   UNL     1      46.274   5.138  12.895  0.00  0.00    +0.000 N 
ATOM      6  C   UNL     1      45.803   3.756  12.884  0.00  0.00    +0.000 C 
ATOM      7  C   UNL     1      45.400   3.387  11.428  0.00  0.00    +0.000 C 
ATOM      8  N   UNL     1      44.394   4.322  10.860  0.00  0.00    +0.000 NA
ATOM      9  C   UNL     1      44.085   3.974   9.475  0.00  0.00    +0.000 C 
ATOM     10  C   UNL     1      44.906   5.711  10.955  0.00  0.00    +0.000 C 
ATOM     11  C   UNL     1      45.281   6.108  12.405  0.00  0.00    +0.000 C 
ATOM     12  N   UNL     1      47.227   5.030  15.085  0.00  0.00    +0.000 NA
ATOM     13  C   UNL     1      48.127   5.517  16.003  0.00  0.00    +0.000 A 
ENDROOT
BRANCH  13  14
ATOM     14  C   UNL     1      48.121   4.843  17.394  0.00  0.00    +0.000 C 
ATOM     15  C   UNL     1      47.743   5.902  18.468  0.00  0.00    +0.000 C 
ATOM     16  C   UNL     1      47.072   3.714  17.423  0.00  0.00    +0.000 C 
BRANCH  14  17
ATOM     17  C   UNL     1      49.513   4.246  17.808  0.00  0.00    +0.000 C 
BRANCH  17  18
ATOM     18  N   UNL     1      49.919   3.018  17.091  0.00  0.00    +0.000 N 
ATOM     19  H   UNL     1      49.855   3.151  16.078  0.00  0.00    +0.000 HD
BRANCH  18  20
ATOM     20  C   UNL     1      51.183   2.507  17.460  0.00  0.00    +0.000 A 
ATOM     21  C   UNL     1      52.143   3.289  18.120  0.00  0.00    +0.000 A 
ATOM     22  C   UNL     1      53.347   2.737  18.574  0.00  0.00    +0.000 A 
ATOM     23  C   UNL     1      53.602   1.379  18.398  0.00  0.00    +0.000 A 
ATOM     24  C   UNL     1      52.662   0.585  17.737  0.00  0.00    +0.000 A 
ATOM     25  C   UNL     1      51.458   1.145  17.287  0.00  0.00    +0.000 A 
BRANCH  23  26
ATOM     26  C   UNL     1      54.818   0.796  18.920  0.00  0.00    +0.000 C 
ATOM     27  N   UNL     1      55.775   0.321  19.338  0.00  0.00    +0.000 NA
ENDBRANCH  23  26
ENDBRANCH  18  20
ENDBRANCH  17  18
ENDBRANCH  14  17
ENDBRANCH  13  14
BRANCH   1  29
ATOM     28  C   UNL     1      51.202   7.358  15.899  0.00  0.00    +0.000 C 
ATOM     29  O   UNL     1      49.956   7.042  16.529  0.00  0.00    +0.000 OA
ENDBRANCH   1  29
TORSDOF 6
ENDMDL
MODEL 7
REMARK VINA RESULT:    -5.728      3.687      8.011
REMARK INTER + INTRA:          -8.224
REMARK INTER:                  -7.446
REMARK INTRA:                  -0.778
REMARK UNBOUND:                -0.486
REMARK  Name = 
REMARK  10 active torsions:
REMARK  status: ('A' for Active; 'I' for Inactive)
REMARK    1  A    between atoms: C_1  and  O_2
REMARK    2  A    between atoms: O_2  and  C_3
REMARK    3  A    between atoms: N_10  and  C_11
REMARK    4  A    between atoms: C_15  and  C_16
REMARK    5  A    between atoms: C_16  and  C_17
REMARK    6  A    between atoms: C_16  and  C_18
REMARK    7  A    between atoms: C_16  and  C_19
REMARK    8  A    between atoms: C_19  and  N_20
REMARK    9  A    between atoms: N_20  and  C_21
REMARK   10  A    between atoms: C_24  and  C_25
REMARK                            x       y       z     vdW  Elec       q    Type
REMARK                         _______ _______ _______ _____ _____    ______ ____
ROOT
ATOM      1  C   UNL     1      48.896   4.479  17.828  0.00  0.00    +0.000 A 
ATOM      2  C   UNL     1      47.852   3.609  17.533  0.00  0.00    +0.000 A 
ATOM      3  C   UNL     1      47.138   3.768  16.364  0.00  0.00    +0.000 A 
ATOM      4  C   UNL     1      47.489   4.770  15.472  0.00  0.00    +0.000 A 
ATOM      5  N   UNL     1      46.767   4.832  14.295  0.00  0.00    +0.000 N 
ATOM      6  C   UNL     1      46.563   6.108  13.612  0.00  0.00    +0.000 C 
ATOM      7  C   UNL     1      45.240   6.020  12.799  0.00  0.00    +0.000 C 
ATOM      8  N   UNL     1      45.226   4.875  11.852  0.00  0.00    +0.000 NA
ATOM      9  C   UNL     1      43.947   4.797  11.150  0.00  0.00    +0.000 C 
ATOM     10  C   UNL     1      45.499   3.621  12.596  0.00  0.00    +0.000 C 
ATOM     11  C   UNL     1      46.831   3.677  13.386  0.00  0.00    +0.000 C 
ATOM     12  N   UNL     1      48.499   5.630  15.738  0.00  0.00    +0.000 NA
ATOM     13  C   UNL     1      49.207   5.502  16.910  0.00  0.00    +0.000 A 
ENDROOT
BRANCH  13  14
ATOM     14  C   UNL     1      50.337   6.531  17.142  0.00  0.00    +0.000 C 
ATOM     15  C   UNL     1      50.124   7.213  18.523  0.00  0.00    +0.000 C 
ATOM     16  C   UNL     1      51.702   5.816  17.150  0.00  0.00    +0.000 C 
BRANCH  14  17
ATOM     17  C   UNL     1      50.375   7.676  16.068  0.00  0.00    +0.000 C 
BRANCH  17  18
ATOM     18  N   UNL     1      50.799   7.263  14.712  0.00  0.00    +0.000 N 
ATOM     19  H   UNL     1      50.529   6.293  14.526  0.00  0.00    +0.000 HD
BRANCH  18  20
ATOM     20  C   UNL     1      50.375   8.119  13.672  0.00  0.00    +0.000 A 
ATOM     21  C   UNL     1      49.746   7.636  12.514  0.00  0.00    +0.000 A 
ATOM     22  C   UNL     1      49.236   8.506  11.544  0.00  0.00    +0.000 A 
ATOM     23  C   UNL     1      49.323   9.884  11.726  0.00  0.00    +0.000 A 
ATOM     24  C   UNL     1      49.951  10.385  12.869  0.00  0.00    +0.000 A 
ATOM     25  C   UNL     1      50.459   9.507  13.837  0.00  0.00    +0.000 A 
BRANCH  23  26
ATOM     26  C   UNL     1      48.743  10.783  10.754  0.00  0.00    +0.000 C 
ATOM     27  N   UNL     1      48.289  11.508   9.990  0.00  0.00    +0.000 NA
ENDBRANCH  23  26
ENDBRANCH  18  20
ENDBRANCH  17  18
ENDBRANCH  14  17
ENDBRANCH  13  14
BRANCH   1  29
ATOM     28  C   UNL     1      48.647   4.343  20.164  0.00  0.00    +0.000 C 
ATOM     29  O   UNL     1      49.534   4.362  19.039  0.00  0.00    +0.000 OA
ENDBRANCH   1  29
TORSDOF 6
ENDMDL
MODEL 8
REMARK VINA RESULT:    -5.665      2.822      5.397
REMARK INTER + INTRA:          -8.138
REMARK INTER:                  -7.677
REMARK INTRA:                  -0.461
REMARK UNBOUND:                -0.486
REMARK  Name = 
REMARK  10 active torsions:
REMARK  status: ('A' for Active; 'I' for Inactive)
REMARK    1  A    between atoms: C_1  and  O_2
REMARK    2  A    between atoms: O_2  and  C_3
REMARK    3  A    between atoms: N_10  and  C_11
REMARK    4  A    between atoms: C_15  and  C_16
REMARK    5  A    between atoms: C_16  and  C_17
REMARK    6  A    between atoms: C_16  and  C_18
REMARK    7  A    between atoms: C_16  and  C_19
REMARK    8  A    between atoms: C_19  and  N_20
REMARK    9  A    between atoms: N_20  and  C_21
REMARK   10  A    between atoms: C_24  and  C_25
REMARK                            x       y       z     vdW  Elec       q    Type
REMARK                         _______ _______ _______ _____ _____    ______ ____
ROOT
ATOM      1  C   UNL     1      51.024   8.244  13.907  0.00  0.00    +0.000 A 
ATOM      2  C   UNL     1      51.892   7.856  14.921  0.00  0.00    +0.000 A 
ATOM      3  C   UNL     1      51.396   7.234  16.047  0.00  0.00    +0.000 A 
ATOM      4  C   UNL     1      50.039   6.965  16.144  0.00  0.00    +0.000 A 
ATOM      5  N   UNL     1      49.621   6.286  17.274  0.00  0.00    +0.000 N 
ATOM      6  C   UNL     1      48.281   6.496  17.817  0.00  0.00    +0.000 C 
ATOM      7  C   UNL     1      48.321   6.203  19.344  0.00  0.00    +0.000 C 
ATOM      8  N   UNL     1      48.840   4.845  19.652  0.00  0.00    +0.000 NA
ATOM      9  C   UNL     1      48.913   4.633  21.096  0.00  0.00    +0.000 C 
ATOM     10  C   UNL     1      50.173   4.676  19.024  0.00  0.00    +0.000 C 
ATOM     11  C   UNL     1      50.147   4.930  17.496  0.00  0.00    +0.000 C 
ATOM     12  N   UNL     1      49.174   7.335  15.172  0.00  0.00    +0.000 NA
ATOM     13  C   UNL     1      49.648   7.977  14.053  0.00  0.00    +0.000 A 
ENDROOT
BRANCH  13  14
ATOM     14  C   UNL     1      48.593   8.375  12.994  0.00  0.00    +0.000 C 
ATOM     15  C   UNL     1      48.593   9.922  12.838  0.00  0.00    +0.000 C 
ATOM     16  C   UNL     1      48.950   7.741  11.636  0.00  0.00    +0.000 C 
BRANCH  14  17
ATOM     17  C   UNL     1      47.130   7.953  13.377  0.00  0.00    +0.000 C 
BRANCH  17  18
ATOM     18  N   UNL     1      46.971   6.562  13.851  0.00  0.00    +0.000 N 
ATOM     19  H   UNL     1      46.564   6.542  14.790  0.00  0.00    +0.000 HD
BRANCH  18  20
ATOM     20  C   UNL     1      46.266   5.712  12.971  0.00  0.00    +0.000 A 
ATOM     21  C   UNL     1      45.803   6.148  11.719  0.00  0.00    +0.000 A 
ATOM     22  C   UNL     1      45.201   5.266  10.816  0.00  0.00    +0.000 A 
ATOM     23  C   UNL     1      45.075   3.916  11.137  0.00  0.00    +0.000 A 
ATOM     24  C   UNL     1      45.523   3.463  12.380  0.00  0.00    +0.000 A 
ATOM     25  C   UNL     1      46.126   4.354  13.280  0.00  0.00    +0.000 A 
BRANCH  23  26
ATOM     26  C   UNL     1      44.509   2.992  10.180  0.00  0.00    +0.000 C 
ATOM     27  N   UNL     1      44.055   2.270   9.412  0.00  0.00    +0.000 NA
ENDBRANCH  23  26
ENDBRANCH  18  20
ENDBRANCH  17  18
ENDBRANCH  14  17
ENDBRANCH  13  14
BRANCH   1  29
ATOM     28  C   UNL     1      52.366  10.045  13.205  0.00  0.00    +0.000 C 
ATOM     29  O   UNL     1      51.526   8.945  12.837  0.00  0.00    +0.000 OA
ENDBRANCH   1  29
TORSDOF 6
ENDMDL
MODEL 9
REMARK VINA RESULT:    -5.398      3.230      6.149
REMARK INTER + INTRA:          -7.778
REMARK INTER:                  -7.255
REMARK INTRA:                  -0.523
REMARK UNBOUND:                -0.486
REMARK  Name = 
REMARK  10 active torsions:
REMARK  status: ('A' for Active; 'I' for Inactive)
REMARK    1  A    between atoms: C_1  and  O_2
REMARK    2  A    between atoms: O_2  and  C_3
REMARK    3  A    between atoms: N_10  and  C_11
REMARK    4  A    between atoms: C_15  and  C_16
REMARK    5  A    between atoms: C_16  and  C_17
REMARK    6  A    between atoms: C_16  and  C_18
REMARK    7  A    between atoms: C_16  and  C_19
REMARK    8  A    between atoms: C_19  and  N_20
REMARK    9  A    between atoms: N_20  and  C_21
REMARK   10  A    between atoms: C_24  and  C_25
REMARK                            x       y       z     vdW  Elec       q    Type
REMARK                         _______ _______ _______ _____ _____    ______ ____
ROOT
ATOM      1  C   UNL     1      44.666   6.438  11.667  0.00  0.00    +0.000 A 
ATOM      2  C   UNL     1      44.822   7.796  11.411  0.00  0.00    +0.000 A 
ATOM      3  C   UNL     1      45.817   8.504  12.051  0.00  0.00    +0.000 A 
ATOM      4  C   UNL     1      46.681   7.850  12.916  0.00  0.00    +0.000 A 
ATOM      5  N   UNL     1      47.691   8.610  13.475  0.00  0.00    +0.000 N 
ATOM      6  C   UNL     1      48.224   8.287  14.797  0.00  0.00    +0.000 C 
ATOM      7  C   UNL     1      48.775   9.594  15.435  0.00  0.00    +0.000 C 
ATOM      8  N   UNL     1      49.785  10.266  14.578  0.00  0.00    +0.000 NA
ATOM      9  C   UNL     1      50.235  11.516  15.188  0.00  0.00    +0.000 C 
ATOM     10  C   UNL     1      49.204  10.512  13.235  0.00  0.00    +0.000 C 
ATOM     11  C   UNL     1      48.680   9.215  12.569  0.00  0.00    +0.000 C 
ATOM     12  N   UNL     1      46.548   6.531  13.183  0.00  0.00    +0.000 NA
ATOM     13  C   UNL     1      45.546   5.813  12.573  0.00  0.00    +0.000 A 
ENDROOT
BRANCH  13  14
ATOM     14  C   UNL     1      45.456   4.314  12.940  0.00  0.00    +0.000 C 
ATOM     15  C   UNL     1      44.094   4.046  13.641  0.00  0.00    +0.000 C 
ATOM     16  C   UNL     1      45.531   3.457  11.662  0.00  0.00    +0.000 C 
BRANCH  14  17
ATOM     17  C   UNL     1      46.580   3.842  13.930  0.00  0.00    +0.000 C 
BRANCH  17  18
ATOM     18  N   UNL     1      46.458   4.340  15.317  0.00  0.00    +0.000 N 
ATOM     19  H   UNL     1      45.632   3.944  15.774  0.00  0.00    +0.000 HD
BRANCH  18  20
ATOM     20  C   UNL     1      47.612   4.168  16.112  0.00  0.00    +0.000 A 
ATOM     21  C   UNL     1      48.104   2.898  16.455  0.00  0.00    +0.000 A 
ATOM     22  C   UNL     1      49.307   2.745  17.152  0.00  0.00    +0.000 A 
ATOM     23  C   UNL     1      50.061   3.864  17.499  0.00  0.00    +0.000 A 
ATOM     24  C   UNL     1      49.586   5.137  17.173  0.00  0.00    +0.000 A 
ATOM     25  C   UNL     1      48.379   5.282  16.473  0.00  0.00    +0.000 A 
BRANCH  23  26
ATOM     26  C   UNL     1      51.333   3.704  18.165  0.00  0.00    +0.000 C 
ATOM     27  N   UNL     1      52.338   3.564  18.700  0.00  0.00    +0.000 NA
ENDBRANCH  23  26
ENDBRANCH  18  20
ENDBRANCH  17  18
ENDBRANCH  14  17
ENDBRANCH  13  14
BRANCH   1  29
ATOM     28  C   UNL     1      42.338   6.094  11.664  0.00  0.00    +0.000 C 
ATOM     29  O   UNL     1      43.610   5.773  11.091  0.00  0.00    +0.000 OA
ENDBRANCH   1  29
TORSDOF 6
ENDMDL
