MODEL 1
REMARK VINA RESULT:    -7.805      0.000      0.000
REMARK INTER + INTRA:         -11.680
REMARK INTER:                 -10.542
REMARK INTRA:                  -1.138
REMARK UNBOUND:                -1.138
REMARK  Name = 
REMARK  7 active torsions:
REMARK  status: ('A' for Active; 'I' for Inactive)
REMARK    1  A    between atoms: C_1  and  C_2
REMARK    2  A    between atoms: C_2  and  N_3
REMARK    3  A    between atoms: C_2  and  C_16
REMARK    4  A    between atoms: C_4  and  C_6
REMARK    5  A    between atoms: C_19  and  C_20
REMARK    6  A    between atoms: C_20  and  N_21
REMARK    7  A    between atoms: C_22  and  C_24
REMARK                            x       y       z     vdW  Elec       q    Type
REMARK                         _______ _______ _______ _____ _____    ______ ____
ROOT
ATOM      1  C   UNL     1      47.215   9.634  13.630  0.00  0.00    +0.000 C 
ATOM      2  C   UNL     1      47.696   8.192  13.435  0.00  0.00    +0.000 C 
ENDROOT
BRANCH   2   3
ATOM      3  C   UNL     1      46.690   7.399  12.607  0.00  0.00    +0.000 A 
ATOM      4  C   UNL     1      46.929   6.055  12.287  0.00  0.00    +0.000 A 
ATOM      5  C   UNL     1      45.985   5.314  11.566  0.00  0.00    +0.000 A 
ATOM      6  C   UNL     1      44.786   5.900  11.141  0.00  0.00    +0.000 A 
ATOM      7  C   UNL     1      44.545   7.242  11.460  0.00  0.00    +0.000 A 
ATOM      8  C   UNL     1      45.487   7.983  12.179  0.00  0.00    +0.000 A 
BRANCH   6   9
ATOM      9  C   UNL     1      43.769   5.108  10.361  0.00  0.00    +0.000 C 
BRANCH   9  10
ATOM     10  N   UNL     1      44.333   4.492   9.186  0.00  0.00    +0.000 N 
ATOM     11  C   UNL     1      44.665   3.156   9.170  0.00  0.00    +0.000 C 
ATOM     12  O   UNL     1      44.481   2.409  10.128  0.00  0.00    +0.000 OA
ATOM     13  H   UNL     1      44.710   5.057   8.430  0.00  0.00    +0.000 HD
BRANCH  11  14
ATOM     14  C   UNL     1      45.248   2.651   7.843  0.00  0.00    +0.000 C 
ATOM     15  C   UNL     1      46.331   1.608   8.037  0.00  0.00    +0.000 C 
ATOM     16  C   UNL     1      47.050   1.621   6.702  0.00  0.00    +0.000 C 
ATOM     17  C   UNL     1      46.890   3.046   6.189  0.00  0.00    +0.000 C 
ATOM     18  N   UNL     1      45.943   3.722   7.083  0.00  0.00    +0.000 NA
ATOM     19  H   UNL     1      45.252   4.238   6.536  0.00  0.00    +0.000 HD
ENDBRANCH  11  14
ENDBRANCH   9  10
ENDBRANCH   6   9
ENDBRANCH   2   3
BRANCH   2  20
ATOM     20  N   UNL     1      47.920   7.498  14.695  0.00  0.00    +0.000 N 
ATOM     21  C   UNL     1      49.138   6.991  15.071  0.00  0.00    +0.000 C 
ATOM     22  O   UNL     1      50.155   7.131  14.399  0.00  0.00    +0.000 OA
ATOM     23  H   UNL     1      47.092   7.093  15.121  0.00  0.00    +0.000 HD
BRANCH  21  24
ATOM     24  C   UNL     1      49.181   6.321  16.375  0.00  0.00    +0.000 A 
ATOM     25  C   UNL     1      49.938   6.864  17.403  0.00  0.00    +0.000 A 
ATOM     26  S   UNL     1      49.860   5.971  18.854  0.00  0.00    +0.000 S 
ATOM     27  C   UNL     1      48.846   4.802  18.145  0.00  0.00    +0.000 A 
ATOM     28  N   UNL     1      48.425   3.720  18.849  0.00  0.00    +0.000 NA
ATOM     29  C   UNL     1      47.686   2.901  18.177  0.00  0.00    +0.000 A 
ATOM     30  N   UNL     1      47.322   3.072  16.869  0.00  0.00    +0.000 N 
ATOM     31  C   UNL     1      47.693   4.170  16.127  0.00  0.00    +0.000 A 
ATOM     32  O   UNL     1      47.298   4.330  14.977  0.00  0.00    +0.000 OA
ATOM     33  C   UNL     1      48.547   5.107  16.828  0.00  0.00    +0.000 A 
ATOM     34  H   UNL     1      46.722   2.404  16.407  0.00  0.00    +0.000 HD
ENDBRANCH  21  24
ENDBRANCH   2  20
TORSDOF 6
ENDMDL
MODEL 2
REMARK VINA RESULT:    -7.692      2.080      2.581
REMARK INTER + INTRA:         -11.528
REMARK INTER:                 -10.419
REMARK INTRA:                  -1.109
REMARK UNBOUND:                -1.138
REMARK  Name = 
REMARK  7 active torsions:
REMARK  status: ('A' for Active; 'I' for Inactive)
REMARK    1  A    between atoms: C_1  and  C_2
REMARK    2  A    between atoms: C_2  and  N_3
REMARK    3  A    between atoms: C_2  and  C_16
REMARK    4  A    between atoms: C_4  and  C_6
REMARK    5  A    between atoms: C_19  and  C_20
REMARK    6  A    between atoms: C_20  and  N_21
REMARK    7  A    between atoms: C_22  and  C_24
REMARK                            x       y       z     vdW  Elec       q    Type
REMARK                         _______ _______ _______ _____ _____    ______ ____
ROOT
ATOM      1  C   UNL     1      47.471   8.506  13.788  0.00  0.00    +0.000 C 
ATOM      2  C   UNL     1      47.927   7.057  13.991  0.00  0.00    +0.000 C 
ENDROOT
BRANCH   2   3
ATOM      3  C   UNL     1      47.057   6.102  13.180  0.00  0.00    +0.000 A 
ATOM      4  C   UNL     1      46.795   4.806  13.643  0.00  0.00    +0.000 A 
ATOM      5  C   UNL     1      45.960   3.944  12.922  0.00  0.00    +0.000 A 
ATOM      6  C   UNL     1      45.374   4.356  11.718  0.00  0.00    +0.000 A 
ATOM      7  C   UNL     1      45.633   5.651  11.254  0.00  0.00    +0.000 A 
ATOM      8  C   UNL     1      46.468   6.511  11.973  0.00  0.00    +0.000 A 
BRANCH   6   9
ATOM      9  C   UNL     1      44.477   3.431  10.936  0.00  0.00    +0.000 C 
BRANCH   9  10
ATOM     10  N   UNL     1      45.146   2.839   9.806  0.00  0.00    +0.000 N 
ATOM     11  C   UNL     1      45.065   3.403   8.553  0.00  0.00    +0.000 C 
ATOM     12  O   UNL     1      44.452   4.443   8.325  0.00  0.00    +0.000 OA
ATOM     13  H   UNL     1      45.498   1.886   9.847  0.00  0.00    +0.000 HD
BRANCH  11  14
ATOM     14  C   UNL     1      45.838   2.657   7.456  0.00  0.00    +0.000 C 
ATOM     15  C   UNL     1      46.460   1.366   7.951  0.00  0.00    +0.000 C 
ATOM     16  C   UNL     1      47.511   1.077   6.897  0.00  0.00    +0.000 C 
ATOM     17  C   UNL     1      47.935   2.447   6.385  0.00  0.00    +0.000 C 
ATOM     18  N   UNL     1      47.009   3.428   6.962  0.00  0.00    +0.000 NA
ATOM     19  H   UNL     1      46.693   4.077   6.240  0.00  0.00    +0.000 HD
ENDBRANCH  11  14
ENDBRANCH   9  10
ENDBRANCH   6   9
ENDBRANCH   2   3
BRANCH   2  20
ATOM     20  N   UNL     1      47.899   6.649  15.387  0.00  0.00    +0.000 N 
ATOM     21  C   UNL     1      49.024   6.318  16.100  0.00  0.00    +0.000 C 
ATOM     22  O   UNL     1      50.157   6.394  15.632  0.00  0.00    +0.000 OA
ATOM     23  H   UNL     1      47.012   6.278  15.715  0.00  0.00    +0.000 HD
BRANCH  21  24
ATOM     24  C   UNL     1      48.810   5.928  17.498  0.00  0.00    +0.000 A 
ATOM     25  C   UNL     1      49.074   4.626  17.898  0.00  0.00    +0.000 A 
ATOM     26  S   UNL     1      48.791   4.351  19.557  0.00  0.00    +0.000 S 
ATOM     27  C   UNL     1      48.262   5.952  19.789  0.00  0.00    +0.000 A 
ATOM     28  N   UNL     1      47.831   6.378  21.005  0.00  0.00    +0.000 NA
ATOM     29  C   UNL     1      47.432   7.606  21.028  0.00  0.00    +0.000 A 
ATOM     30  N   UNL     1      47.435   8.448  19.950  0.00  0.00    +0.000 N 
ATOM     31  C   UNL     1      47.896   8.074  18.709  0.00  0.00    +0.000 A 
ATOM     32  O   UNL     1      47.948   8.869  17.776  0.00  0.00    +0.000 OA
ATOM     33  C   UNL     1      48.331   6.695  18.623  0.00  0.00    +0.000 A 
ATOM     34  H   UNL     1      47.129   9.407  20.040  0.00  0.00    +0.000 HD
ENDBRANCH  21  24
ENDBRANCH   2  20
TORSDOF 6
ENDMDL
MODEL 3
REMARK VINA RESULT:    -7.679      2.459      4.230
REMARK INTER + INTRA:         -11.511
REMARK INTER:                 -10.280
REMARK INTRA:                  -1.232
REMARK UNBOUND:                -1.138
REMARK  Name = 
REMARK  7 active torsions:
REMARK  status: ('A' for Active; 'I' for Inactive)
REMARK    1  A    between atoms: C_1  and  C_2
REMARK    2  A    between atoms: C_2  and  N_3
REMARK    3  A    between atoms: C_2  and  C_16
REMARK    4  A    between atoms: C_4  and  C_6
REMARK    5  A    between atoms: C_19  and  C_20
REMARK    6  A    between atoms: C_20  and  N_21
REMARK    7  A    between atoms: C_22  and  C_24
REMARK                            x       y       z     vdW  Elec       q    Type
REMARK                         _______ _______ _______ _____ _____    ______ ____
ROOT
ATOM      1  C   UNL     1      47.451   3.887  15.636  0.00  0.00    +0.000 C 
ATOM      2  C   UNL     1      47.178   5.229  14.948  0.00  0.00    +0.000 C 
ENDROOT
BRANCH   2   3
ATOM      3  C   UNL     1      46.334   5.026  13.694  0.00  0.00    +0.000 A 
ATOM      4  C   UNL     1      46.058   3.736  13.219  0.00  0.00    +0.000 A 
ATOM      5  C   UNL     1      45.247   3.547  12.094  0.00  0.00    +0.000 A 
ATOM      6  C   UNL     1      44.697   4.642  11.414  0.00  0.00    +0.000 A 
ATOM      7  C   UNL     1      44.969   5.931  11.888  0.00  0.00    +0.000 A 
ATOM      8  C   UNL     1      45.781   6.120  13.010  0.00  0.00    +0.000 A 
BRANCH   6   9
ATOM      9  C   UNL     1      43.825   4.444  10.202  0.00  0.00    +0.000 C 
BRANCH   9  10
ATOM     10  N   UNL     1      44.443   3.598   9.211  0.00  0.00    +0.000 N 
ATOM     11  C   UNL     1      45.465   4.062   8.415  0.00  0.00    +0.000 C 
ATOM     12  O   UNL     1      45.929   5.196   8.513  0.00  0.00    +0.000 OA
ATOM     13  H   UNL     1      44.001   2.732   8.915  0.00  0.00    +0.000 HD
BRANCH  11  14
ATOM     14  C   UNL     1      46.021   3.039   7.415  0.00  0.00    +0.000 C 
ATOM     15  C   UNL     1      46.294   1.689   8.047  0.00  0.00    +0.000 C 
ATOM     16  C   UNL     1      47.235   1.039   7.050  0.00  0.00    +0.000 C 
ATOM     17  C   UNL     1      47.993   2.198   6.418  0.00  0.00    +0.000 C 
ATOM     18  N   UNL     1      47.348   3.435   6.875  0.00  0.00    +0.000 NA
ATOM     19  H   UNL     1      47.207   4.068   6.087  0.00  0.00    +0.000 HD
ENDBRANCH  11  14
ENDBRANCH   9  10
ENDBRANCH   6   9
ENDBRANCH   2   3
BRANCH   2  20
ATOM     20  N   UNL     1      48.399   5.933  14.585  0.00  0.00    +0.000 N 
ATOM     21  C   UNL     1      48.992   6.876  15.385  0.00  0.00    +0.000 C 
ATOM     22  O   UNL     1      48.572   7.164  16.502  0.00  0.00    +0.000 OA
ATOM     23  H   UNL     1      48.601   5.969  13.590  0.00  0.00    +0.000 HD
BRANCH  21  24
ATOM     24  C   UNL     1      50.218   7.487  14.860  0.00  0.00    +0.000 A 
ATOM     25  C   UNL     1      51.387   7.433  15.605  0.00  0.00    +0.000 A 
ATOM     26  S   UNL     1      52.719   8.173  14.839  0.00  0.00    +0.000 S 
ATOM     27  C   UNL     1      51.768   8.630  13.504  0.00  0.00    +0.000 A 
ATOM     28  N   UNL     1      52.300   9.343  12.476  0.00  0.00    +0.000 NA
ATOM     29  C   UNL     1      51.457   9.646  11.546  0.00  0.00    +0.000 A 
ATOM     30  N   UNL     1      50.135   9.293  11.545  0.00  0.00    +0.000 N 
ATOM     31  C   UNL     1      49.561   8.541  12.545  0.00  0.00    +0.000 A 
ATOM     32  O   UNL     1      48.389   8.184  12.486  0.00  0.00    +0.000 OA
ATOM     33  C   UNL     1      50.460   8.197  13.627  0.00  0.00    +0.000 A 
ATOM     34  H   UNL     1      49.532   9.543  10.774  0.00  0.00    +0.000 HD
ENDBRANCH  21  24
ENDBRANCH   2  20
TORSDOF 6
ENDMDL
MODEL 4
REMARK VINA RESULT:    -7.513      3.509      4.731
REMARK INTER + INTRA:         -11.286
REMARK INTER:                 -10.061
REMARK INTRA:                  -1.225
REMARK UNBOUND:                -1.138
REMARK  Name = 
REMARK  7 active torsions:
REMARK  status: ('A' for Active; 'I' for Inactive)
REMARK    1  A    between atoms: C_1  and  C_2
REMARK    2  A    between atoms: C_2  and  N_3
REMARK    3  A    between atoms: C_2  and  C_16
REMARK    4  A    between atoms: C_4  and  C_6
REMARK    5  A    between atoms: C_19  and  C_20
REMARK    6  A    between atoms: C_20  and  N_21
REMARK    7  A    between atoms: C_22  and  C_24
REMARK                            x       y       z     vdW  Elec       q    Type
REMARK                         _______ _______ _______ _____ _____    ______ ____
ROOT
ATOM      1  C   UNL     1      47.500   2.965  17.651  0.00  0.00    +0.000 C 
ATOM      2  C   UNL     1      48.358   4.201  17.356  0.00  0.00    +0.000 C 
ENDROOT
BRANCH   2   3
ATOM      3  C   UNL     1      47.972   4.814  16.015  0.00  0.00    +0.000 A 
ATOM      4  C   UNL     1      47.041   4.179  15.180  0.00  0.00    +0.000 A 
ATOM      5  C   UNL     1      46.652   4.763  13.969  0.00  0.00    +0.000 A 
ATOM      6  C   UNL     1      47.189   5.991  13.561  0.00  0.00    +0.000 A 
ATOM      7  C   UNL     1      48.117   6.628  14.393  0.00  0.00    +0.000 A 
ATOM      8  C   UNL     1      48.507   6.044  15.602  0.00  0.00    +0.000 A 
BRANCH   6   9
ATOM      9  C   UNL     1      46.775   6.623  12.257  0.00  0.00    +0.000 C 
BRANCH   9  10
ATOM     10  N   UNL     1      46.226   5.665  11.330  0.00  0.00    +0.000 N 
ATOM     11  C   UNL     1      44.906   5.721  10.945  0.00  0.00    +0.000 C 
ATOM     12  O   UNL     1      44.131   6.591  11.335  0.00  0.00    +0.000 OA
ATOM     13  H   UNL     1      46.719   4.802  11.117  0.00  0.00    +0.000 HD
BRANCH  11  14
ATOM     14  C   UNL     1      44.476   4.635   9.949  0.00  0.00    +0.000 C 
ATOM     15  C   UNL     1      44.887   3.243  10.384  0.00  0.00    +0.000 C 
ATOM     16  C   UNL     1      44.797   2.450   9.094  0.00  0.00    +0.000 C 
ATOM     17  C   UNL     1      45.104   3.459   7.996  0.00  0.00    +0.000 C 
ATOM     18  N   UNL     1      45.137   4.784   8.626  0.00  0.00    +0.000 NA
ATOM     19  H   UNL     1      44.605   5.451   8.066  0.00  0.00    +0.000 HD
ENDBRANCH  11  14
ENDBRANCH   9  10
ENDBRANCH   6   9
ENDBRANCH   2   3
BRANCH   2  20
ATOM     20  N   UNL     1      49.784   3.907  17.347  0.00  0.00    +0.000 N 
ATOM     21  C   UNL     1      50.614   4.165  18.408  0.00  0.00    +0.000 C 
ATOM     22  O   UNL     1      50.212   4.615  19.476  0.00  0.00    +0.000 OA
ATOM     23  H   UNL     1      50.208   3.836  16.427  0.00  0.00    +0.000 HD
BRANCH  21  24
ATOM     24  C   UNL     1      52.025   3.805  18.224  0.00  0.00    +0.000 A 
ATOM     25  C   UNL     1      53.011   4.761  18.421  0.00  0.00    +0.000 A 
ATOM     26  S   UNL     1      54.592   4.169  18.186  0.00  0.00    +0.000 S 
ATOM     27  C   UNL     1      54.012   2.625  17.768  0.00  0.00    +0.000 A 
ATOM     28  N   UNL     1      54.864   1.629  17.412  0.00  0.00    +0.000 NA
ATOM     29  C   UNL     1      54.284   0.520  17.091  0.00  0.00    +0.000 A 
ATOM     30  N   UNL     1      52.931   0.315  17.104  0.00  0.00    +0.000 N 
ATOM     31  C   UNL     1      52.032   1.281  17.493  0.00  0.00    +0.000 A 
ATOM     32  O   UNL     1      50.829   1.050  17.558  0.00  0.00    +0.000 OA
ATOM     33  C   UNL     1      52.631   2.554  17.837  0.00  0.00    +0.000 A 
ATOM     34  H   UNL     1      52.541  -0.585  16.862  0.00  0.00    +0.000 HD
ENDBRANCH  21  24
ENDBRANCH   2  20
TORSDOF 6
ENDMDL
MODEL 5
REMARK VINA RESULT:    -7.284      1.788      2.257
REMARK INTER + INTRA:         -10.977
REMARK INTER:                 -10.030
REMARK INTRA:                  -0.947
REMARK UNBOUND:                -1.138
REMARK  Name = 
REMARK  7 active torsions:
REMARK  status: ('A' for Active; 'I' for Inactive)
REMARK    1  A    between atoms: C_1  and  C_2
REMARK    2  A    between atoms: C_2  and  N_3
REMARK    3  A    between atoms: C_2  and  C_16
REMARK    4  A    between atoms: C_4  and  C_6
REMARK    5  A    between atoms: C_19  and  C_20
REMARK    6  A    between atoms: C_20  and  N_21
REMARK    7  A    between atoms: C_22  and  C_24
REMARK                            x       y       z     vdW  Elec       q    Type
REMARK                         _______ _______ _______ _____ _____    ______ ____
ROOT
ATOM      1  C   UNL     1      45.986   9.825  12.480  0.00  0.00    +0.000 C 
ATOM      2  C   UNL     1      46.849   8.641  12.933  0.00  0.00    +0.000 C 
ENDROOT
BRANCH   2   3
ATOM      3  C   UNL     1      46.197   7.320  12.539  0.00  0.00    +0.000 A 
ATOM      4  C   UNL     1      44.955   7.302  11.890  0.00  0.00    +0.000 A 
ATOM      5  C   UNL     1      44.377   6.092  11.487  0.00  0.00    +0.000 A 
ATOM      6  C   UNL     1      45.022   4.873  11.731  0.00  0.00    +0.000 A 
ATOM      7  C   UNL     1      46.264   4.889  12.378  0.00  0.00    +0.000 A 
ATOM      8  C   UNL     1      46.841   6.096  12.781  0.00  0.00    +0.000 A 
BRANCH   6   9
ATOM      9  C   UNL     1      44.402   3.568  11.302  0.00  0.00    +0.000 C 
BRANCH   9  10
ATOM     10  N   UNL     1      45.074   2.985  10.168  0.00  0.00    +0.000 N 
ATOM     11  C   UNL     1      44.841   3.442   8.890  0.00  0.00    +0.000 C 
ATOM     12  O   UNL     1      44.084   4.376   8.640  0.00  0.00    +0.000 OA
ATOM     13  H   UNL     1      45.549   2.091  10.245  0.00  0.00    +0.000 HD
BRANCH  11  14
ATOM     14  C   UNL     1      45.638   2.723   7.792  0.00  0.00    +0.000 C 
ATOM     15  C   UNL     1      46.176   1.379   8.241  0.00  0.00    +0.000 C 
ATOM     16  C   UNL     1      47.267   1.100   7.226  0.00  0.00    +0.000 C 
ATOM     17  C   UNL     1      47.776   2.475   6.815  0.00  0.00    +0.000 C 
ATOM     18  N   UNL     1      46.864   3.465   7.401  0.00  0.00    +0.000 NA
ATOM     19  H   UNL     1      46.615   4.167   6.703  0.00  0.00    +0.000 HD
ENDBRANCH  11  14
ENDBRANCH   9  10
ENDBRANCH   6   9
ENDBRANCH   2   3
BRANCH   2  20
ATOM     20  N   UNL     1      47.089   8.638  14.369  0.00  0.00    +0.000 N 
ATOM     21  C   UNL     1      48.335   8.497  14.925  0.00  0.00    +0.000 C 
ATOM     22  O   UNL     1      49.360   8.417  14.254  0.00  0.00    +0.000 OA
ATOM     23  H   UNL     1      46.289   8.391  14.944  0.00  0.00    +0.000 HD
BRANCH  21  24
ATOM     24  C   UNL     1      48.392   8.515  16.390  0.00  0.00    +0.000 A 
ATOM     25  C   UNL     1      48.119   9.691  17.075  0.00  0.00    +0.000 A 
ATOM     26  S   UNL     1      48.210   9.530  18.770  0.00  0.00    +0.000 S 
ATOM     27  C   UNL     1      48.662   7.894  18.647  0.00  0.00    +0.000 A 
ATOM     28  N   UNL     1      48.932   7.157  19.756  0.00  0.00    +0.000 NA
ATOM     29  C   UNL     1      49.291   5.940  19.512  0.00  0.00    +0.000 A 
ATOM     30  N   UNL     1      49.394   5.393  18.261  0.00  0.00    +0.000 N 
ATOM     31  C   UNL     1      49.094   6.088  17.113  0.00  0.00    +0.000 A 
ATOM     32  O   UNL     1      49.132   5.553  16.010  0.00  0.00    +0.000 OA
ATOM     33  C   UNL     1      48.712   7.468  17.331  0.00  0.00    +0.000 A 
ATOM     34  H   UNL     1      49.660   4.425  18.140  0.00  0.00    +0.000 HD
ENDBRANCH  21  24
ENDBRANCH   2  20
TORSDOF 6
ENDMDL
MODEL 6
REMARK VINA RESULT:    -7.279      3.731      8.494
REMARK INTER + INTRA:         -10.971
REMARK INTER:                  -9.912
REMARK INTRA:                  -1.059
REMARK UNBOUND:                -1.138
REMARK  Name = 
REMARK  7 active torsions:
REMARK  status: ('A' for Active; 'I' for Inactive)
REMARK    1  A    between atoms: C_1  and  C_2
REMARK    2  A    between atoms: C_2  and  N_3
REMARK    3  A    between atoms: C_2  and  C_16
REMARK    4  A    between atoms: C_4  and  C_6
REMARK    5  A    between atoms: C_19  and  C_20
REMARK    6  A    between atoms: C_20  and  N_21
REMARK    7  A    between atoms: C_22  and  C_24
REMARK                            x       y       z     vdW  Elec       q    Type
REMARK                         _______ _______ _______ _____ _____    ______ ____
ROOT
ATOM      1  C   UNL     1      49.213   7.612  13.027  0.00  0.00    +0.000 C 
ATOM      2  C   UNL     1      47.946   6.998  13.634  0.00  0.00    +0.000 C 
ENDROOT
BRANCH   2   3
ATOM      3  C   UNL     1      48.280   6.227  14.906  0.00  0.00    +0.000 A 
ATOM      4  C   UNL     1      47.556   5.080  15.257  0.00  0.00    +0.000 A 
ATOM      5  C   UNL     1      47.890   4.345  16.401  0.00  0.00    +0.000 A 
ATOM      6  C   UNL     1      48.951   4.745  17.225  0.00  0.00    +0.000 A 
ATOM      7  C   UNL     1      49.677   5.890  16.875  0.00  0.00    +0.000 A 
ATOM      8  C   UNL     1      49.342   6.624  15.734  0.00  0.00    +0.000 A 
BRANCH   6   9
ATOM      9  C   UNL     1      49.313   3.960  18.459  0.00  0.00    +0.000 C 
BRANCH   9  10
ATOM     10  N   UNL     1      50.686   3.519  18.449  0.00  0.00    +0.000 N 
ATOM     11  C   UNL     1      51.104   2.507  17.615  0.00  0.00    +0.000 C 
ATOM     12  O   UNL     1      50.357   1.942  16.820  0.00  0.00    +0.000 OA
ATOM     13  H   UNL     1      51.321   3.773  19.200  0.00  0.00    +0.000 HD
BRANCH  11  14
ATOM     14  C   UNL     1      52.596   2.159  17.719  0.00  0.00    +0.000 C 
ATOM     15  C   UNL     1      52.860   0.670  17.620  0.00  0.00    +0.000 C 
ATOM     16  C   UNL     1      54.253   0.539  18.204  0.00  0.00    +0.000 C 
ATOM     17  C   UNL     1      54.357   1.670  19.218  0.00  0.00    +0.000 C 
ATOM     18  N   UNL     1      53.172   2.517  19.041  0.00  0.00    +0.000 NA
ATOM     19  H   UNL     1      53.444   3.501  19.025  0.00  0.00    +0.000 HD
ENDBRANCH  11  14
ENDBRANCH   9  10
ENDBRANCH   6   9
ENDBRANCH   2   3
BRANCH   2  20
ATOM     20  N   UNL     1      47.254   6.110  12.712  0.00  0.00    +0.000 N 
ATOM     21  C   UNL     1      46.272   6.531  11.851  0.00  0.00    +0.000 C 
ATOM     22  O   UNL     1      45.935   7.706  11.748  0.00  0.00    +0.000 OA
ATOM     23  H   UNL     1      47.264   5.126  12.965  0.00  0.00    +0.000 HD
BRANCH  21  24
ATOM     24  C   UNL     1      45.682   5.498  10.993  0.00  0.00    +0.000 A 
ATOM     25  C   UNL     1      45.811   5.592   9.615  0.00  0.00    +0.000 A 
ATOM     26  S   UNL     1      45.085   4.299   8.772  0.00  0.00    +0.000 S 
ATOM     27  C   UNL     1      44.534   3.592  10.218  0.00  0.00    +0.000 A 
ATOM     28  N   UNL     1      43.796   2.452  10.203  0.00  0.00    +0.000 NA
ATOM     29  C   UNL     1      43.421   2.045  11.370  0.00  0.00    +0.000 A 
ATOM     30  N   UNL     1      43.726   2.668  12.549  0.00  0.00    +0.000 N 
ATOM     31  C   UNL     1      44.502   3.802  12.617  0.00  0.00    +0.000 A 
ATOM     32  O   UNL     1      44.815   4.303  13.692  0.00  0.00    +0.000 OA
ATOM     33  C   UNL     1      44.926   4.316  11.331  0.00  0.00    +0.000 A 
ATOM     34  H   UNL     1      43.420   2.285  13.433  0.00  0.00    +0.000 HD
ENDBRANCH  21  24
ENDBRANCH   2  20
TORSDOF 6
ENDMDL
MODEL 7
REMARK VINA RESULT:    -7.196      2.537      3.876
REMARK INTER + INTRA:         -10.859
REMARK INTER:                 -10.072
REMARK INTRA:                  -0.787
REMARK UNBOUND:                -1.138
REMARK  Name = 
REMARK  7 active torsions:
REMARK  status: ('A' for Active; 'I' for Inactive)
REMARK    1  A    between atoms: C_1  and  C_2
REMARK    2  A    between atoms: C_2  and  N_3
REMARK    3  A    between atoms: C_2  and  C_16
REMARK    4  A    between atoms: C_4  and  C_6
REMARK    5  A    between atoms: C_19  and  C_20
REMARK    6  A    between atoms: C_20  and  N_21
REMARK    7  A    between atoms: C_22  and  C_24
REMARK                            x       y       z     vdW  Elec       q    Type
REMARK                         _______ _______ _______ _____ _____    ______ ____
ROOT
ATOM      1  C   UNL     1      47.783   3.294  15.354  0.00  0.00    +0.000 C 
ATOM      2  C   UNL     1      47.026   4.618  15.192  0.00  0.00    +0.000 C 
ENDROOT
BRANCH   2   3
ATOM      3  C   UNL     1      46.255   4.637  13.877  0.00  0.00    +0.000 A 
ATOM      4  C   UNL     1      45.911   3.440  13.232  0.00  0.00    +0.000 A 
ATOM      5  C   UNL     1      45.164   3.455  12.048  0.00  0.00    +0.000 A 
ATOM      6  C   UNL     1      44.750   4.666  11.477  0.00  0.00    +0.000 A 
ATOM      7  C   UNL     1      45.091   5.862  12.119  0.00  0.00    +0.000 A 
ATOM      8  C   UNL     1      45.838   5.847  13.301  0.00  0.00    +0.000 A 
BRANCH   6   9
ATOM      9  C   UNL     1      43.949   4.687  10.201  0.00  0.00    +0.000 C 
BRANCH   9  10
ATOM     10  N   UNL     1      44.503   3.824   9.188  0.00  0.00    +0.000 N 
ATOM     11  C   UNL     1      45.576   4.220   8.423  0.00  0.00    +0.000 C 
ATOM     12  O   UNL     1      46.140   5.302   8.568  0.00  0.00    +0.000 OA
ATOM     13  H   UNL     1      43.989   3.013   8.855  0.00  0.00    +0.000 HD
BRANCH  11  14
ATOM     14  C   UNL     1      46.052   3.186   7.393  0.00  0.00    +0.000 C 
ATOM     15  C   UNL     1      46.291   1.818   8.001  0.00  0.00    +0.000 C 
ATOM     16  C   UNL     1      47.168   1.141   6.965  0.00  0.00    +0.000 C 
ATOM     17  C   UNL     1      47.950   2.275   6.317  0.00  0.00    +0.000 C 
ATOM     18  N   UNL     1      47.374   3.533   6.809  0.00  0.00    +0.000 NA
ATOM     19  H   UNL     1      47.231   4.179   6.032  0.00  0.00    +0.000 HD
ENDBRANCH  11  14
ENDBRANCH   9  10
ENDBRANCH   6   9
ENDBRANCH   2   3
BRANCH   2  20
ATOM     20  N   UNL     1      47.904   5.777  15.240  0.00  0.00    +0.000 N 
ATOM     21  C   UNL     1      48.547   6.190  16.380  0.00  0.00    +0.000 C 
ATOM     22  O   UNL     1      48.478   5.581  17.443  0.00  0.00    +0.000 OA
ATOM     23  H   UNL     1      47.754   6.468  14.511  0.00  0.00    +0.000 HD
BRANCH  21  24
ATOM     24  C   UNL     1      49.393   7.381  16.246  0.00  0.00    +0.000 A 
ATOM     25  C   UNL     1      50.466   7.368  15.366  0.00  0.00    +0.000 A 
ATOM     26  S   UNL     1      51.329   8.837  15.320  0.00  0.00    +0.000 S 
ATOM     27  C   UNL     1      50.326   9.529  16.508  0.00  0.00    +0.000 A 
ATOM     28  N   UNL     1      50.546  10.790  16.963  0.00  0.00    +0.000 NA
ATOM     29  C   UNL     1      49.727  11.173  17.885  0.00  0.00    +0.000 A 
ATOM     30  N   UNL     1      48.703  10.415  18.384  0.00  0.00    +0.000 N 
ATOM     31  C   UNL     1      48.419   9.148  17.928  0.00  0.00    +0.000 A 
ATOM     32  O   UNL     1      47.455   8.516  18.348  0.00  0.00    +0.000 OA
ATOM     33  C   UNL     1      49.327   8.660  16.911  0.00  0.00    +0.000 A 
ATOM     34  H   UNL     1      48.082  10.783  19.091  0.00  0.00    +0.000 HD
ENDBRANCH  21  24
ENDBRANCH   2  20
TORSDOF 6
ENDMDL
MODEL 8
REMARK VINA RESULT:    -7.182      2.302      3.553
REMARK INTER + INTRA:         -10.839
REMARK INTER:                  -9.639
REMARK INTRA:                  -1.200
REMARK UNBOUND:                -1.138
REMARK  Name = 
REMARK  7 active torsions:
REMARK  status: ('A' for Active; 'I' for Inactive)
REMARK    1  A    between atoms: C_1  and  C_2
REMARK    2  A    between atoms: C_2  and  N_3
REMARK    3  A    between atoms: C_2  and  C_16
REMARK    4  A    between atoms: C_4  and  C_6
REMARK    5  A    between atoms: C_19  and  C_20
REMARK    6  A    between atoms: C_20  and  N_21
REMARK    7  A    between atoms: C_22  and  C_24
REMARK                            x       y       z     vdW  Elec       q    Type
REMARK                         _______ _______ _______ _____ _____    ______ ____
ROOT
ATOM      1  C   UNL     1      47.901   3.019  15.653  0.00  0.00    +0.000 C 
ATOM      2  C   UNL     1      47.223   4.389  15.768  0.00  0.00    +0.000 C 
ENDROOT
BRANCH   2   3
ATOM      3  C   UNL     1      46.759   4.874  14.399  0.00  0.00    +0.000 A 
ATOM      4  C   UNL     1      47.274   6.056  13.847  0.00  0.00    +0.000 A 
ATOM      5  C   UNL     1      46.883   6.478  12.571  0.00  0.00    +0.000 A 
ATOM      6  C   UNL     1      45.964   5.734  11.820  0.00  0.00    +0.000 A 
ATOM      7  C   UNL     1      45.450   4.552  12.367  0.00  0.00    +0.000 A 
ATOM      8  C   UNL     1      45.839   4.131  13.642  0.00  0.00    +0.000 A 
BRANCH   6   9
ATOM      9  C   UNL     1      45.538   6.186  10.447  0.00  0.00    +0.000 C 
BRANCH   9  10
ATOM     10  N   UNL     1      45.933   5.261   9.415  0.00  0.00    +0.000 N 
ATOM     11  C   UNL     1      45.032   4.373   8.871  0.00  0.00    +0.000 C 
ATOM     12  O   UNL     1      43.850   4.330   9.203  0.00  0.00    +0.000 OA
ATOM     13  H   UNL     1      46.914   5.079   9.223  0.00  0.00    +0.000 HD
BRANCH  11  14
ATOM     14  C   UNL     1      45.605   3.460   7.778  0.00  0.00    +0.000 C 
ATOM     15  C   UNL     1      46.059   2.116   8.313  0.00  0.00    +0.000 C 
ATOM     16  C   UNL     1      46.978   1.614   7.216  0.00  0.00    +0.000 C 
ATOM     17  C   UNL     1      47.565   2.873   6.594  0.00  0.00    +0.000 C 
ATOM     18  N   UNL     1      46.840   4.015   7.164  0.00  0.00    +0.000 NA
ATOM     19  H   UNL     1      46.575   4.666   6.424  0.00  0.00    +0.000 HD
ENDBRANCH  11  14
ENDBRANCH   9  10
ENDBRANCH   6   9
ENDBRANCH   2   3
BRANCH   2  20
ATOM     20  N   UNL     1      48.090   5.398  16.357  0.00  0.00    +0.000 N 
ATOM     21  C   UNL     1      48.073   5.724  17.689  0.00  0.00    +0.000 C 
ATOM     22  O   UNL     1      47.362   5.149  18.508  0.00  0.00    +0.000 OA
ATOM     23  H   UNL     1      48.451   6.094  15.710  0.00  0.00    +0.000 HD
BRANCH  21  24
ATOM     24  C   UNL     1      49.016   6.766  18.110  0.00  0.00    +0.000 A 
ATOM     25  C   UNL     1      48.543   7.908  18.741  0.00  0.00    +0.000 A 
ATOM     26  S   UNL     1      49.774   9.004  19.180  0.00  0.00    +0.000 S 
ATOM     27  C   UNL     1      50.978   8.010  18.502  0.00  0.00    +0.000 A 
ATOM     28  N   UNL     1      52.283   8.388  18.508  0.00  0.00    +0.000 NA
ATOM     29  C   UNL     1      53.082   7.551  17.933  0.00  0.00    +0.000 A 
ATOM     30  N   UNL     1      52.695   6.368  17.363  0.00  0.00    +0.000 N 
ATOM     31  C   UNL     1      51.392   5.927  17.366  0.00  0.00    +0.000 A 
ATOM     32  O   UNL     1      51.084   4.833  16.906  0.00  0.00    +0.000 OA
ATOM     33  C   UNL     1      50.451   6.844  17.976  0.00  0.00    +0.000 A 
ATOM     34  H   UNL     1      53.375   5.747  16.948  0.00  0.00    +0.000 HD
ENDBRANCH  21  24
ENDBRANCH   2  20
TORSDOF 6
ENDMDL
MODEL 9
REMARK VINA RESULT:    -6.855      4.660      9.452
REMARK INTER + INTRA:         -10.398
REMARK INTER:                  -9.661
REMARK INTRA:                  -0.737
REMARK UNBOUND:                -1.138
REMARK  Name = 
REMARK  7 active torsions:
REMARK  status: ('A' for Active; 'I' for Inactive)
REMARK    1  A    between atoms: C_1  and  C_2
REMARK    2  A    between atoms: C_2  and  N_3
REMARK    3  A    between atoms: C_2  and  C_16
REMARK    4  A    between atoms: C_4  and  C_6
REMARK    5  A    between atoms: C_19  and  C_20
REMARK    6  A    between atoms: C_20  and  N_21
REMARK    7  A    between atoms: C_22  and  C_24
REMARK                            x       y       z     vdW  Elec       q    Type
REMARK                         _______ _______ _______ _____ _____    ______ ____
ROOT
ATOM      1  C   UNL     1      47.135   5.139  18.687  0.00  0.00    +0.000 C 
ATOM      2  C   UNL     1      47.508   4.308  17.454  0.00  0.00    +0.000 C 
ENDROOT
BRANCH   2   3
ATOM      3  C   UNL     1      48.953   3.831  17.546  0.00  0.00    +0.000 A 
ATOM      4  C   UNL     1      49.274   2.480  17.352  0.00  0.00    +0.000 A 
ATOM      5  C   UNL     1      50.605   2.049  17.392  0.00  0.00    +0.000 A 
ATOM      6  C   UNL     1      51.646   2.956  17.634  0.00  0.00    +0.000 A 
ATOM      7  C   UNL     1      51.328   4.306  17.826  0.00  0.00    +0.000 A 
ATOM      8  C   UNL     1      49.999   4.736  17.788  0.00  0.00    +0.000 A 
BRANCH   6   9
ATOM      9  C   UNL     1      53.080   2.497  17.681  0.00  0.00    +0.000 C 
BRANCH   9  10
ATOM     10  N   UNL     1      53.239   1.263  18.410  0.00  0.00    +0.000 N 
ATOM     11  C   UNL     1      54.149   0.311  18.009  0.00  0.00    +0.000 C 
ATOM     12  O   UNL     1      54.890   0.458  17.040  0.00  0.00    +0.000 OA
ATOM     13  H   UNL     1      52.544   0.962  19.086  0.00  0.00    +0.000 HD
BRANCH  11  14
ATOM     14  C   UNL     1      54.204  -0.943  18.893  0.00  0.00    +0.000 C 
ATOM     15  C   UNL     1      55.073  -2.038  18.306  0.00  0.00    +0.000 C 
ATOM     16  C   UNL     1      54.609  -3.271  19.057  0.00  0.00    +0.000 C 
ATOM     17  C   UNL     1      53.146  -3.000  19.382  0.00  0.00    +0.000 C 
ATOM     18  N   UNL     1      52.878  -1.600  19.029  0.00  0.00    +0.000 NA
ATOM     19  H   UNL     1      52.361  -1.143  19.781  0.00  0.00    +0.000 HD
ENDBRANCH  11  14
ENDBRANCH   9  10
ENDBRANCH   6   9
ENDBRANCH   2   3
BRANCH   2  20
ATOM     20  N   UNL     1      47.331   5.039  16.208  0.00  0.00    +0.000 N 
ATOM     21  C   UNL     1      47.239   4.430  14.982  0.00  0.00    +0.000 C 
ATOM     22  O   UNL     1      47.241   3.211  14.840  0.00  0.00    +0.000 OA
ATOM     23  H   UNL     1      47.629   6.010  16.227  0.00  0.00    +0.000 HD
BRANCH  21  24
ATOM     24  C   UNL     1      47.064   5.323  13.831  0.00  0.00    +0.000 A 
ATOM     25  C   UNL     1      48.069   6.218  13.495  0.00  0.00    +0.000 A 
ATOM     26  S   UNL     1      47.711   7.163  12.122  0.00  0.00    +0.000 S 
ATOM     27  C   UNL     1      46.180   6.439  11.954  0.00  0.00    +0.000 A 
ATOM     28  N   UNL     1      45.326   6.826  10.971  0.00  0.00    +0.000 NA
ATOM     29  C   UNL     1      44.189   6.213  10.981  0.00  0.00    +0.000 A 
ATOM     30  N   UNL     1      43.834   5.242  11.878  0.00  0.00    +0.000 N 
ATOM     31  C   UNL     1      44.678   4.791  12.867  0.00  0.00    +0.000 A 
ATOM     32  O   UNL     1      44.358   3.874  13.615  0.00  0.00    +0.000 OA
ATOM     33  C   UNL     1      45.959   5.467  12.915  0.00  0.00    +0.000 A 
ATOM     34  H   UNL     1      42.935   4.785  11.818  0.00  0.00    +0.000 HD
ENDBRANCH  21  24
ENDBRANCH   2  20
TORSDOF 6
ENDMDL
