MODEL 1
REMARK VINA RESULT:    -7.058      0.000      0.000
REMARK INTER + INTRA:         -10.530
REMARK INTER:                  -9.534
REMARK INTRA:                  -0.997
REMARK UNBOUND:                -0.997
REMARK  Name = 
REMARK  7 active torsions:
REMARK  status: ('A' for Active; 'I' for Inactive)
REMARK    1  A    between atoms: C_1  and  C_2
REMARK    2  A    between atoms: C_2  and  N_3
REMARK    3  A    between atoms: C_2  and  C_16
REMARK    4  A    between atoms: C_4  and  C_6
REMARK    5  A    between atoms: C_19  and  O_20
REMARK    6  A    between atoms: O_20  and  C_21
REMARK    7  A    between atoms: C_21  and  C_22
REMARK                            x       y       z     vdW  Elec       q    Type
REMARK                         _______ _______ _______ _____ _____    ______ ____
ROOT
ATOM      1  C   UNL     1      50.108   7.990  14.847  0.00  0.00    +0.000 C 
ATOM      2  C   UNL     1      49.513   6.990  15.847  0.00  0.00    +0.000 C 
ENDROOT
BRANCH   2   3
ATOM      3  C   UNL     1      48.375   6.192  15.231  0.00  0.00    +0.000 A 
ATOM      4  C   UNL     1      47.927   6.522  13.944  0.00  0.00    +0.000 A 
ATOM      5  C   UNL     1      46.949   5.757  13.305  0.00  0.00    +0.000 A 
ATOM      6  C   UNL     1      46.377   4.660  13.947  0.00  0.00    +0.000 A 
ATOM      7  C   UNL     1      46.778   4.348  15.248  0.00  0.00    +0.000 A 
ATOM      8  C   UNL     1      47.774   5.104  15.883  0.00  0.00    +0.000 A 
BRANCH   6   9
ATOM      9  O   UNL     1      45.406   3.859  13.406  0.00  0.00    +0.000 OA
BRANCH   9  10
ATOM     10  C   UNL     1      45.692   3.394  12.082  0.00  0.00    +0.000 C 
BRANCH  10  11
ATOM     11  C   UNL     1      44.409   2.867  11.420  0.00  0.00    +0.000 C 
ATOM     12  C   UNL     1      44.631   2.566   9.931  0.00  0.00    +0.000 C 
ATOM     13  C   UNL     1      44.800   3.849   9.115  0.00  0.00    +0.000 C 
ATOM     14  N   UNL     1      43.653   4.746   9.276  0.00  0.00    +0.000 NA
ATOM     15  C   UNL     1      43.445   5.108  10.679  0.00  0.00    +0.000 C 
ATOM     16  C   UNL     1      43.259   3.878  11.572  0.00  0.00    +0.000 C 
ATOM     17  H   UNL     1      42.817   4.276   8.928  0.00  0.00    +0.000 HD
ENDBRANCH  10  11
ENDBRANCH   9  10
ENDBRANCH   6   9
ENDBRANCH   2   3
BRANCH   2  18
ATOM     18  N   UNL     1      50.517   6.108  16.404  0.00  0.00    +0.000 N 
ATOM     19  C   UNL     1      50.693   5.946  17.757  0.00  0.00    +0.000 C 
ATOM     20  O   UNL     1      50.054   6.570  18.590  0.00  0.00    +0.000 OA
ATOM     21  H   UNL     1      51.271   5.820  15.796  0.00  0.00    +0.000 HD
BRANCH  19  22
ATOM     22  C   UNL     1      51.659   4.915  18.171  0.00  0.00    +0.000 A 
ATOM     23  C   UNL     1      52.823   5.288  18.830  0.00  0.00    +0.000 A 
ATOM     24  S   UNL     1      53.855   3.979  19.191  0.00  0.00    +0.000 S 
ATOM     25  C   UNL     1      52.798   2.875  18.443  0.00  0.00    +0.000 A 
ATOM     26  N   UNL     1      53.119   1.555  18.343  0.00  0.00    +0.000 NA
ATOM     27  C   UNL     1      52.256   0.848  17.697  0.00  0.00    +0.000 A 
ATOM     28  N   UNL     1      51.086   1.331  17.164  0.00  0.00    +0.000 N 
ATOM     29  C   UNL     1      50.680   2.633  17.323  0.00  0.00    +0.000 A 
ATOM     30  O   UNL     1      49.569   3.014  16.950  0.00  0.00    +0.000 OA
ATOM     31  C   UNL     1      51.651   3.489  17.974  0.00  0.00    +0.000 A 
ATOM     32  H   UNL     1      50.438   0.711  16.700  0.00  0.00    +0.000 HD
ENDBRANCH  19  22
ENDBRANCH   2  18
TORSDOF 6
ENDMDL
MODEL 2
REMARK VINA RESULT:    -6.995      3.008      3.795
REMARK INTER + INTRA:         -10.445
REMARK INTER:                  -9.410
REMARK INTRA:                  -1.035
REMARK UNBOUND:                -0.997
REMARK  Name = 
REMARK  7 active torsions:
REMARK  status: ('A' for Active; 'I' for Inactive)
REMARK    1  A    between atoms: C_1  and  C_2
REMARK    2  A    between atoms: C_2  and  N_3
REMARK    3  A    between atoms: C_2  and  C_16
REMARK    4  A    between atoms: C_4  and  C_6
REMARK    5  A    between atoms: C_19  and  O_20
REMARK    6  A    between atoms: O_20  and  C_21
REMARK    7  A    between atoms: C_21  and  C_22
REMARK                            x       y       z     vdW  Elec       q    Type
REMARK                         _______ _______ _______ _____ _____    ______ ____
ROOT
ATOM      1  C   UNL     1      49.457   7.351  13.117  0.00  0.00    +0.000 C 
ATOM      2  C   UNL     1      48.067   7.475  13.752  0.00  0.00    +0.000 C 
ENDROOT
BRANCH   2   3
ATOM      3  C   UNL     1      47.047   6.595  13.045  0.00  0.00    +0.000 A 
ATOM      4  C   UNL     1      46.617   6.946  11.757  0.00  0.00    +0.000 A 
ATOM      5  C   UNL     1      45.755   6.117  11.037  0.00  0.00    +0.000 A 
ATOM      6  C   UNL     1      45.283   4.931  11.595  0.00  0.00    +0.000 A 
ATOM      7  C   UNL     1      45.663   4.593  12.894  0.00  0.00    +0.000 A 
ATOM      8  C   UNL     1      46.544   5.414  13.613  0.00  0.00    +0.000 A 
BRANCH   6   9
ATOM      9  O   UNL     1      44.427   4.062  10.970  0.00  0.00    +0.000 OA
BRANCH   9  10
ATOM     10  C   UNL     1      45.064   2.911  10.404  0.00  0.00    +0.000 C 
BRANCH  10  11
ATOM     11  C   UNL     1      44.488   2.625   9.007  0.00  0.00    +0.000 C 
ATOM     12  C   UNL     1      45.053   1.320   8.427  0.00  0.00    +0.000 C 
ATOM     13  C   UNL     1      46.526   1.465   8.042  0.00  0.00    +0.000 C 
ATOM     14  N   UNL     1      46.730   2.562   7.093  0.00  0.00    +0.000 NA
ATOM     15  C   UNL     1      46.260   3.838   7.636  0.00  0.00    +0.000 C 
ATOM     16  C   UNL     1      44.785   3.785   8.043  0.00  0.00    +0.000 C 
ATOM     17  H   UNL     1      46.215   2.356   6.237  0.00  0.00    +0.000 HD
ENDBRANCH  10  11
ENDBRANCH   9  10
ENDBRANCH   6   9
ENDBRANCH   2   3
BRANCH   2  18
ATOM     18  N   UNL     1      48.085   7.200  15.173  0.00  0.00    +0.000 N 
ATOM     19  C   UNL     1      48.702   8.026  16.081  0.00  0.00    +0.000 C 
ATOM     20  O   UNL     1      49.325   9.024  15.754  0.00  0.00    +0.000 OA
ATOM     21  H   UNL     1      47.878   6.255  15.466  0.00  0.00    +0.000 HD
BRANCH  19  22
ATOM     22  C   UNL     1      48.521   7.687  17.502  0.00  0.00    +0.000 A 
ATOM     23  C   UNL     1      48.206   8.687  18.413  0.00  0.00    +0.000 A 
ATOM     24  S   UNL     1      48.082   8.133  20.021  0.00  0.00    +0.000 S 
ATOM     25  C   UNL     1      48.486   6.546  19.558  0.00  0.00    +0.000 A 
ATOM     26  N   UNL     1      48.620   5.558  20.486  0.00  0.00    +0.000 NA
ATOM     27  C   UNL     1      48.990   4.423  20.000  0.00  0.00    +0.000 A 
ATOM     28  N   UNL     1      49.213   4.174  18.668  0.00  0.00    +0.000 N 
ATOM     29  C   UNL     1      49.000   5.115  17.691  0.00  0.00    +0.000 A 
ATOM     30  O   UNL     1      49.080   4.833  16.494  0.00  0.00    +0.000 OA
ATOM     31  C   UNL     1      48.658   6.431  18.191  0.00  0.00    +0.000 A 
ATOM     32  H   UNL     1      49.467   3.248  18.354  0.00  0.00    +0.000 HD
ENDBRANCH  19  22
ENDBRANCH   2  18
TORSDOF 6
ENDMDL
MODEL 3
REMARK VINA RESULT:    -6.849      2.717      3.410
REMARK INTER + INTRA:         -10.248
REMARK INTER:                  -8.548
REMARK INTRA:                  -1.700
REMARK UNBOUND:                -0.997
REMARK  Name = 
REMARK  7 active torsions:
REMARK  status: ('A' for Active; 'I' for Inactive)
REMARK    1  A    between atoms: C_1  and  C_2
REMARK    2  A    between atoms: C_2  and  N_3
REMARK    3  A    between atoms: C_2  and  C_16
REMARK    4  A    between atoms: C_4  and  C_6
REMARK    5  A    between atoms: C_19  and  O_20
REMARK    6  A    between atoms: O_20  and  C_21
REMARK    7  A    between atoms: C_21  and  C_22
REMARK                            x       y       z     vdW  Elec       q    Type
REMARK                         _______ _______ _______ _____ _____    ______ ____
ROOT
ATOM      1  C   UNL     1      50.896   8.499  13.544  0.00  0.00    +0.000 C 
ATOM      2  C   UNL     1      49.599   8.483  14.361  0.00  0.00    +0.000 C 
ENDROOT
BRANCH   2   3
ATOM      3  C   UNL     1      48.381   8.260  13.477  0.00  0.00    +0.000 A 
ATOM      4  C   UNL     1      48.468   7.355  12.410  0.00  0.00    +0.000 A 
ATOM      5  C   UNL     1      47.348   7.052  11.632  0.00  0.00    +0.000 A 
ATOM      6  C   UNL     1      46.123   7.665  11.887  0.00  0.00    +0.000 A 
ATOM      7  C   UNL     1      46.033   8.605  12.915  0.00  0.00    +0.000 A 
ATOM      8  C   UNL     1      47.151   8.897  13.709  0.00  0.00    +0.000 A 
BRANCH   6   9
ATOM      9  O   UNL     1      44.975   7.440  11.172  0.00  0.00    +0.000 OA
BRANCH   9  10
ATOM     10  C   UNL     1      44.672   6.057  10.960  0.00  0.00    +0.000 C 
BRANCH  10  11
ATOM     11  C   UNL     1      43.894   5.498  12.162  0.00  0.00    +0.000 C 
ATOM     12  C   UNL     1      44.843   4.929  13.227  0.00  0.00    +0.000 C 
ATOM     13  C   UNL     1      45.503   3.632  12.758  0.00  0.00    +0.000 C 
ATOM     14  N   UNL     1      44.507   2.623  12.388  0.00  0.00    +0.000 NA
ATOM     15  C   UNL     1      43.620   3.106  11.328  0.00  0.00    +0.000 C 
ATOM     16  C   UNL     1      42.909   4.405  11.717  0.00  0.00    +0.000 C 
ATOM     17  H   UNL     1      43.948   2.395  13.210  0.00  0.00    +0.000 HD
ENDBRANCH  10  11
ENDBRANCH   9  10
ENDBRANCH   6   9
ENDBRANCH   2   3
BRANCH   2  18
ATOM     18  N   UNL     1      49.638   7.512  15.435  0.00  0.00    +0.000 N 
ATOM     19  C   UNL     1      49.053   7.734  16.658  0.00  0.00    +0.000 C 
ATOM     20  O   UNL     1      48.502   8.784  16.950  0.00  0.00    +0.000 OA
ATOM     21  H   UNL     1      50.335   6.782  15.375  0.00  0.00    +0.000 HD
BRANCH  19  22
ATOM     22  C   UNL     1      49.060   6.603  17.600  0.00  0.00    +0.000 A 
ATOM     23  C   UNL     1      49.584   6.774  18.875  0.00  0.00    +0.000 A 
ATOM     24  S   UNL     1      49.562   5.354  19.819  0.00  0.00    +0.000 S 
ATOM     25  C   UNL     1      48.888   4.454  18.541  0.00  0.00    +0.000 A 
ATOM     26  N   UNL     1      48.667   3.117  18.665  0.00  0.00    +0.000 NA
ATOM     27  C   UNL     1      48.213   2.554  17.598  0.00  0.00    +0.000 A 
ATOM     28  N   UNL     1      47.934   3.208  16.424  0.00  0.00    +0.000 N 
ATOM     29  C   UNL     1      48.053   4.568  16.285  0.00  0.00    +0.000 A 
ATOM     30  O   UNL     1      47.675   5.151  15.267  0.00  0.00    +0.000 OA
ATOM     31  C   UNL     1      48.634   5.238  17.431  0.00  0.00    +0.000 A 
ATOM     32  H   UNL     1      47.545   2.708  15.636  0.00  0.00    +0.000 HD
ENDBRANCH  19  22
ENDBRANCH   2  18
TORSDOF 6
ENDMDL
MODEL 4
REMARK VINA RESULT:    -6.779      2.336      3.223
REMARK INTER + INTRA:         -10.154
REMARK INTER:                  -8.599
REMARK INTRA:                  -1.555
REMARK UNBOUND:                -0.997
REMARK  Name = 
REMARK  7 active torsions:
REMARK  status: ('A' for Active; 'I' for Inactive)
REMARK    1  A    between atoms: C_1  and  C_2
REMARK    2  A    between atoms: C_2  and  N_3
REMARK    3  A    between atoms: C_2  and  C_16
REMARK    4  A    between atoms: C_4  and  C_6
REMARK    5  A    between atoms: C_19  and  O_20
REMARK    6  A    between atoms: O_20  and  C_21
REMARK    7  A    between atoms: C_21  and  C_22
REMARK                            x       y       z     vdW  Elec       q    Type
REMARK                         _______ _______ _______ _____ _____    ______ ____
ROOT
ATOM      1  C   UNL     1      51.396   8.677  12.278  0.00  0.00    +0.000 C 
ATOM      2  C   UNL     1      50.430   8.538  13.461  0.00  0.00    +0.000 C 
ENDROOT
BRANCH   2   3
ATOM      3  C   UNL     1      48.993   8.367  12.995  0.00  0.00    +0.000 A 
ATOM      4  C   UNL     1      48.711   7.458  11.966  0.00  0.00    +0.000 A 
ATOM      5  C   UNL     1      47.396   7.202  11.572  0.00  0.00    +0.000 A 
ATOM      6  C   UNL     1      46.334   7.868  12.180  0.00  0.00    +0.000 A 
ATOM      7  C   UNL     1      46.601   8.813  13.172  0.00  0.00    +0.000 A 
ATOM      8  C   UNL     1      47.920   9.057  13.582  0.00  0.00    +0.000 A 
BRANCH   6   9
ATOM      9  O   UNL     1      45.014   7.692  11.854  0.00  0.00    +0.000 OA
BRANCH   9  10
ATOM     10  C   UNL     1      44.646   6.333  11.594  0.00  0.00    +0.000 C 
BRANCH  10  11
ATOM     11  C   UNL     1      44.235   5.640  12.903  0.00  0.00    +0.000 C 
ATOM     12  C   UNL     1      45.367   4.754  13.445  0.00  0.00    +0.000 C 
ATOM     13  C   UNL     1      45.571   3.509  12.580  0.00  0.00    +0.000 C 
ATOM     14  N   UNL     1      44.339   2.726  12.462  0.00  0.00    +0.000 NA
ATOM     15  C   UNL     1      43.250   3.519  11.889  0.00  0.00    +0.000 C 
ATOM     16  C   UNL     1      42.971   4.788  12.700  0.00  0.00    +0.000 C 
ATOM     17  H   UNL     1      44.062   2.405  13.390  0.00  0.00    +0.000 HD
ENDBRANCH  10  11
ENDBRANCH   9  10
ENDBRANCH   6   9
ENDBRANCH   2   3
BRANCH   2  18
ATOM     18  N   UNL     1      50.810   7.466  14.358  0.00  0.00    +0.000 N 
ATOM     19  C   UNL     1      51.332   7.695  15.608  0.00  0.00    +0.000 C 
ATOM     20  O   UNL     1      51.563   8.814  16.037  0.00  0.00    +0.000 OA
ATOM     21  H   UNL     1      50.947   6.550  13.953  0.00  0.00    +0.000 HD
BRANCH  19  22
ATOM     22  C   UNL     1      51.544   6.509  16.454  0.00  0.00    +0.000 A 
ATOM     23  C   UNL     1      52.830   6.169  16.853  0.00  0.00    +0.000 A 
ATOM     24  S   UNL     1      52.904   4.742  17.784  0.00  0.00    +0.000 S 
ATOM     25  C   UNL     1      51.223   4.509  17.649  0.00  0.00    +0.000 A 
ATOM     26  N   UNL     1      50.624   3.408  18.181  0.00  0.00    +0.000 NA
ATOM     27  C   UNL     1      49.358   3.330  17.949  0.00  0.00    +0.000 A 
ATOM     28  N   UNL     1      48.628   4.265  17.256  0.00  0.00    +0.000 N 
ATOM     29  C   UNL     1      49.174   5.433  16.785  0.00  0.00    +0.000 A 
ATOM     30  O   UNL     1      48.477   6.316  16.282  0.00  0.00    +0.000 OA
ATOM     31  C   UNL     1      50.610   5.533  16.952  0.00  0.00    +0.000 A 
ATOM     32  H   UNL     1      47.630   4.157  17.143  0.00  0.00    +0.000 HD
ENDBRANCH  19  22
ENDBRANCH   2  18
TORSDOF 6
ENDMDL
MODEL 5
REMARK VINA RESULT:    -6.705      1.513      2.315
REMARK INTER + INTRA:         -10.054
REMARK INTER:                  -8.985
REMARK INTRA:                  -1.069
REMARK UNBOUND:                -0.997
REMARK  Name = 
REMARK  7 active torsions:
REMARK  status: ('A' for Active; 'I' for Inactive)
REMARK    1  A    between atoms: C_1  and  C_2
REMARK    2  A    between atoms: C_2  and  N_3
REMARK    3  A    between atoms: C_2  and  C_16
REMARK    4  A    between atoms: C_4  and  C_6
REMARK    5  A    between atoms: C_19  and  O_20
REMARK    6  A    between atoms: O_20  and  C_21
REMARK    7  A    between atoms: C_21  and  C_22
REMARK                            x       y       z     vdW  Elec       q    Type
REMARK                         _______ _______ _______ _____ _____    ______ ____
ROOT
ATOM      1  C   UNL     1      50.719   9.189  14.514  0.00  0.00    +0.000 C 
ATOM      2  C   UNL     1      49.893   8.027  15.080  0.00  0.00    +0.000 C 
ENDROOT
BRANCH   2   3
ATOM      3  C   UNL     1      48.976   7.426  14.026  0.00  0.00    +0.000 A 
ATOM      4  C   UNL     1      48.105   6.389  14.389  0.00  0.00    +0.000 A 
ATOM      5  C   UNL     1      47.183   5.873  13.477  0.00  0.00    +0.000 A 
ATOM      6  C   UNL     1      47.125   6.363  12.174  0.00  0.00    +0.000 A 
ATOM      7  C   UNL     1      48.019   7.362  11.784  0.00  0.00    +0.000 A 
ATOM      8  C   UNL     1      48.934   7.895  12.703  0.00  0.00    +0.000 A 
BRANCH   6   9
ATOM      9  O   UNL     1      46.263   5.913  11.209  0.00  0.00    +0.000 OA
BRANCH   9  10
ATOM     10  C   UNL     1      44.917   6.379  11.354  0.00  0.00    +0.000 C 
BRANCH  10  11
ATOM     11  C   UNL     1      43.934   5.318  10.833  0.00  0.00    +0.000 C 
ATOM     12  C   UNL     1      42.707   5.196  11.749  0.00  0.00    +0.000 C 
ATOM     13  C   UNL     1      43.064   4.543  13.085  0.00  0.00    +0.000 C 
ATOM     14  N   UNL     1      43.677   3.225  12.894  0.00  0.00    +0.000 NA
ATOM     15  C   UNL     1      44.888   3.308  12.076  0.00  0.00    +0.000 C 
ATOM     16  C   UNL     1      44.620   3.948  10.711  0.00  0.00    +0.000 C 
ATOM     17  H   UNL     1      43.004   2.613  12.430  0.00  0.00    +0.000 HD
ENDBRANCH  10  11
ENDBRANCH   9  10
ENDBRANCH   6   9
ENDBRANCH   2   3
BRANCH   2  18
ATOM     18  N   UNL     1      50.723   7.006  15.683  0.00  0.00    +0.000 N 
ATOM     19  C   UNL     1      50.542   6.569  16.973  0.00  0.00    +0.000 C 
ATOM     20  O   UNL     1      49.705   7.044  17.724  0.00  0.00    +0.000 OA
ATOM     21  H   UNL     1      51.612   6.810  15.243  0.00  0.00    +0.000 HD
BRANCH  19  22
ATOM     22  C   UNL     1      51.375   5.433  17.401  0.00  0.00    +0.000 A 
ATOM     23  C   UNL     1      52.672   5.659  17.842  0.00  0.00    +0.000 A 
ATOM     24  S   UNL     1      53.514   4.233  18.250  0.00  0.00    +0.000 S 
ATOM     25  C   UNL     1      52.186   3.263  17.810  0.00  0.00    +0.000 A 
ATOM     26  N   UNL     1      52.263   1.905  17.858  0.00  0.00    +0.000 NA
ATOM     27  C   UNL     1      51.206   1.299  17.437  0.00  0.00    +0.000 A 
ATOM     28  N   UNL     1      50.066   1.925  16.997  0.00  0.00    +0.000 N 
ATOM     29  C   UNL     1      49.911   3.289  17.020  0.00  0.00    +0.000 A 
ATOM     30  O   UNL     1      48.835   3.823  16.744  0.00  0.00    +0.000 OA
ATOM     31  C   UNL     1      51.100   4.020  17.411  0.00  0.00    +0.000 A 
ATOM     32  H   UNL     1      49.260   1.386  16.714  0.00  0.00    +0.000 HD
ENDBRANCH  19  22
ENDBRANCH   2  18
TORSDOF 6
ENDMDL
MODEL 6
REMARK VINA RESULT:    -6.610      3.704      8.392
REMARK INTER + INTRA:          -9.926
REMARK INTER:                  -9.270
REMARK INTRA:                  -0.656
REMARK UNBOUND:                -0.997
REMARK  Name = 
REMARK  7 active torsions:
REMARK  status: ('A' for Active; 'I' for Inactive)
REMARK    1  A    between atoms: C_1  and  C_2
REMARK    2  A    between atoms: C_2  and  N_3
REMARK    3  A    between atoms: C_2  and  C_16
REMARK    4  A    between atoms: C_4  and  C_6
REMARK    5  A    between atoms: C_19  and  O_20
REMARK    6  A    between atoms: O_20  and  C_21
REMARK    7  A    between atoms: C_21  and  C_22
REMARK                            x       y       z     vdW  Elec       q    Type
REMARK                         _______ _______ _______ _____ _____    ______ ____
ROOT
ATOM      1  C   UNL     1      47.386   9.736  11.877  0.00  0.00    +0.000 C 
ATOM      2  C   UNL     1      48.251   8.480  12.034  0.00  0.00    +0.000 C 
ENDROOT
BRANCH   2   3
ATOM      3  C   UNL     1      48.675   8.268  13.479  0.00  0.00    +0.000 A 
ATOM      4  C   UNL     1      48.015   8.974  14.495  0.00  0.00    +0.000 A 
ATOM      5  C   UNL     1      48.309   8.739  15.840  0.00  0.00    +0.000 A 
ATOM      6  C   UNL     1      49.286   7.813  16.200  0.00  0.00    +0.000 A 
ATOM      7  C   UNL     1      49.986   7.138  15.198  0.00  0.00    +0.000 A 
ATOM      8  C   UNL     1      49.679   7.358  13.847  0.00  0.00    +0.000 A 
BRANCH   6   9
ATOM      9  O   UNL     1      49.650   7.525  17.489  0.00  0.00    +0.000 OA
BRANCH   9  10
ATOM     10  C   UNL     1      49.601   6.133  17.820  0.00  0.00    +0.000 C 
BRANCH  10  11
ATOM     11  C   UNL     1      48.167   5.733  18.203  0.00  0.00    +0.000 C 
ATOM     12  C   UNL     1      47.961   5.782  19.724  0.00  0.00    +0.000 C 
ATOM     13  C   UNL     1      48.710   4.652  20.432  0.00  0.00    +0.000 C 
ATOM     14  N   UNL     1      48.316   3.338  19.917  0.00  0.00    +0.000 NA
ATOM     15  C   UNL     1      48.557   3.229  18.477  0.00  0.00    +0.000 C 
ATOM     16  C   UNL     1      47.834   4.323  17.686  0.00  0.00    +0.000 C 
ATOM     17  H   UNL     1      47.322   3.198  20.098  0.00  0.00    +0.000 HD
ENDBRANCH  10  11
ENDBRANCH   9  10
ENDBRANCH   6   9
ENDBRANCH   2   3
BRANCH   2  18
ATOM     18  N   UNL     1      47.601   7.296  11.510  0.00  0.00    +0.000 N 
ATOM     19  C   UNL     1      46.292   6.985  11.786  0.00  0.00    +0.000 C 
ATOM     20  O   UNL     1      45.594   7.653  12.534  0.00  0.00    +0.000 OA
ATOM     21  H   UNL     1      48.195   6.556  11.164  0.00  0.00    +0.000 HD
BRANCH  19  22
ATOM     22  C   UNL     1      45.732   5.825  11.075  0.00  0.00    +0.000 A 
ATOM     23  C   UNL     1      45.876   5.728   9.696  0.00  0.00    +0.000 A 
ATOM     24  S   UNL     1      45.127   4.351   9.025  0.00  0.00    +0.000 S 
ATOM     25  C   UNL     1      44.549   3.861  10.549  0.00  0.00    +0.000 A 
ATOM     26  N   UNL     1      43.758   2.760  10.678  0.00  0.00    +0.000 NA
ATOM     27  C   UNL     1      43.342   2.544  11.879  0.00  0.00    +0.000 A 
ATOM     28  N   UNL     1      43.666   3.311  12.971  0.00  0.00    +0.000 N 
ATOM     29  C   UNL     1      44.535   4.372  12.902  0.00  0.00    +0.000 A 
ATOM     30  O   UNL     1      44.913   4.965  13.914  0.00  0.00    +0.000 OA
ATOM     31  C   UNL     1      44.969   4.705  11.561  0.00  0.00    +0.000 A 
ATOM     32  H   UNL     1      43.333   3.062  13.892  0.00  0.00    +0.000 HD
ENDBRANCH  19  22
ENDBRANCH   2  18
TORSDOF 6
ENDMDL
MODEL 7
REMARK VINA RESULT:    -6.488      3.601      5.516
REMARK INTER + INTRA:          -9.760
REMARK INTER:                  -8.461
REMARK INTRA:                  -1.300
REMARK UNBOUND:                -0.997
REMARK  Name = 
REMARK  7 active torsions:
REMARK  status: ('A' for Active; 'I' for Inactive)
REMARK    1  A    between atoms: C_1  and  C_2
REMARK    2  A    between atoms: C_2  and  N_3
REMARK    3  A    between atoms: C_2  and  C_16
REMARK    4  A    between atoms: C_4  and  C_6
REMARK    5  A    between atoms: C_19  and  O_20
REMARK    6  A    between atoms: O_20  and  C_21
REMARK    7  A    between atoms: C_21  and  C_22
REMARK                            x       y       z     vdW  Elec       q    Type
REMARK                         _______ _______ _______ _____ _____    ______ ____
ROOT
ATOM      1  C   UNL     1      46.912   3.974  16.286  0.00  0.00    +0.000 C 
ATOM      2  C   UNL     1      47.666   4.800  15.237  0.00  0.00    +0.000 C 
ENDROOT
BRANCH   2   3
ATOM      3  C   UNL     1      46.962   4.771  13.889  0.00  0.00    +0.000 A 
ATOM      4  C   UNL     1      46.362   3.580  13.456  0.00  0.00    +0.000 A 
ATOM      5  C   UNL     1      45.627   3.535  12.270  0.00  0.00    +0.000 A 
ATOM      6  C   UNL     1      45.495   4.673  11.476  0.00  0.00    +0.000 A 
ATOM      7  C   UNL     1      46.127   5.854  11.869  0.00  0.00    +0.000 A 
ATOM      8  C   UNL     1      46.850   5.906  13.070  0.00  0.00    +0.000 A 
BRANCH   6   9
ATOM      9  O   UNL     1      44.804   4.722  10.294  0.00  0.00    +0.000 OA
BRANCH   9  10
ATOM     10  C   UNL     1      45.632   4.762   9.126  0.00  0.00    +0.000 C 
BRANCH  10  11
ATOM     11  C   UNL     1      45.009   3.908   8.010  0.00  0.00    +0.000 C 
ATOM     12  C   UNL     1      44.439   2.594   8.565  0.00  0.00    +0.000 C 
ATOM     13  C   UNL     1      45.549   1.635   8.997  0.00  0.00    +0.000 C 
ATOM     14  N   UNL     1      46.475   1.351   7.897  0.00  0.00    +0.000 NA
ATOM     15  C   UNL     1      47.089   2.575   7.381  0.00  0.00    +0.000 C 
ATOM     16  C   UNL     1      46.045   3.595   6.917  0.00  0.00    +0.000 C 
ATOM     17  H   UNL     1      45.960   0.895   7.143  0.00  0.00    +0.000 HD
ENDBRANCH  10  11
ENDBRANCH   9  10
ENDBRANCH   6   9
ENDBRANCH   2   3
BRANCH   2  18
ATOM     18  N   UNL     1      47.892   6.163  15.670  0.00  0.00    +0.000 N 
ATOM     19  C   UNL     1      48.962   6.525  16.451  0.00  0.00    +0.000 C 
ATOM     20  O   UNL     1      49.773   5.720  16.882  0.00  0.00    +0.000 OA
ATOM     21  H   UNL     1      47.109   6.800  15.624  0.00  0.00    +0.000 HD
BRANCH  19  22
ATOM     22  C   UNL     1      49.133   7.966  16.698  0.00  0.00    +0.000 A 
ATOM     23  C   UNL     1      49.117   8.448  18.000  0.00  0.00    +0.000 A 
ATOM     24  S   UNL     1      49.276  10.143  18.105  0.00  0.00    +0.000 S 
ATOM     25  C   UNL     1      49.331  10.292  16.411  0.00  0.00    +0.000 A 
ATOM     26  N   UNL     1      49.399  11.516  15.817  0.00  0.00    +0.000 NA
ATOM     27  C   UNL     1      49.369  11.481  14.529  0.00  0.00    +0.000 A 
ATOM     28  N   UNL     1      49.305  10.335  13.775  0.00  0.00    +0.000 N 
ATOM     29  C   UNL     1      49.329   9.079  14.330  0.00  0.00    +0.000 A 
ATOM     30  O   UNL     1      49.403   8.065  13.633  0.00  0.00    +0.000 OA
ATOM     31  C   UNL     1      49.283   9.064  15.778  0.00  0.00    +0.000 A 
ATOM     32  H   UNL     1      49.322  10.381  12.766  0.00  0.00    +0.000 HD
ENDBRANCH  19  22
ENDBRANCH   2  18
TORSDOF 6
ENDMDL
MODEL 8
REMARK VINA RESULT:    -6.411      3.666      5.254
REMARK INTER + INTRA:          -9.656
REMARK INTER:                  -8.549
REMARK INTRA:                  -1.107
REMARK UNBOUND:                -0.997
REMARK  Name = 
REMARK  7 active torsions:
REMARK  status: ('A' for Active; 'I' for Inactive)
REMARK    1  A    between atoms: C_1  and  C_2
REMARK    2  A    between atoms: C_2  and  N_3
REMARK    3  A    between atoms: C_2  and  C_16
REMARK    4  A    between atoms: C_4  and  C_6
REMARK    5  A    between atoms: C_19  and  O_20
REMARK    6  A    between atoms: O_20  and  C_21
REMARK    7  A    between atoms: C_21  and  C_22
REMARK                            x       y       z     vdW  Elec       q    Type
REMARK                         _______ _______ _______ _____ _____    ______ ____
ROOT
ATOM      1  C   UNL     1      46.947   3.972  16.388  0.00  0.00    +0.000 C 
ATOM      2  C   UNL     1      47.687   4.804  15.333  0.00  0.00    +0.000 C 
ENDROOT
BRANCH   2   3
ATOM      3  C   UNL     1      46.980   4.761  13.988  0.00  0.00    +0.000 A 
ATOM      4  C   UNL     1      46.402   3.558  13.557  0.00  0.00    +0.000 A 
ATOM      5  C   UNL     1      45.663   3.498  12.374  0.00  0.00    +0.000 A 
ATOM      6  C   UNL     1      45.506   4.633  11.580  0.00  0.00    +0.000 A 
ATOM      7  C   UNL     1      46.116   5.826  11.971  0.00  0.00    +0.000 A 
ATOM      8  C   UNL     1      46.842   5.893  13.168  0.00  0.00    +0.000 A 
BRANCH   6   9
ATOM      9  O   UNL     1      44.810   4.668  10.400  0.00  0.00    +0.000 OA
BRANCH   9  10
ATOM     10  C   UNL     1      45.632   4.761   9.231  0.00  0.00    +0.000 C 
BRANCH  10  11
ATOM     11  C   UNL     1      45.010   3.949   8.084  0.00  0.00    +0.000 C 
ATOM     12  C   UNL     1      44.438   2.616   8.590  0.00  0.00    +0.000 C 
ATOM     13  C   UNL     1      45.548   1.641   8.986  0.00  0.00    +0.000 C 
ATOM     14  N   UNL     1      46.474   1.397   7.877  0.00  0.00    +0.000 NA
ATOM     15  C   UNL     1      47.089   2.639   7.407  0.00  0.00    +0.000 C 
ATOM     16  C   UNL     1      46.045   3.676   6.981  0.00  0.00    +0.000 C 
ATOM     17  H   UNL     1      45.959   0.969   7.107  0.00  0.00    +0.000 HD
ENDBRANCH  10  11
ENDBRANCH   9  10
ENDBRANCH   6   9
ENDBRANCH   2   3
BRANCH   2  18
ATOM     18  N   UNL     1      47.897   6.171  15.760  0.00  0.00    +0.000 N 
ATOM     19  C   UNL     1      49.131   6.653  16.124  0.00  0.00    +0.000 C 
ATOM     20  O   UNL     1      50.132   5.954  16.166  0.00  0.00    +0.000 OA
ATOM     21  H   UNL     1      47.085   6.696  16.052  0.00  0.00    +0.000 HD
BRANCH  19  22
ATOM     22  C   UNL     1      49.212   8.096  16.404  0.00  0.00    +0.000 A 
ATOM     23  C   UNL     1      49.184   9.003  15.353  0.00  0.00    +0.000 A 
ATOM     24  S   UNL     1      49.339  10.628  15.847  0.00  0.00    +0.000 S 
ATOM     25  C   UNL     1      49.490  10.169  17.480  0.00  0.00    +0.000 A 
ATOM     26  N   UNL     1      49.718  11.097  18.450  0.00  0.00    +0.000 NA
ATOM     27  C   UNL     1      49.874  10.601  19.630  0.00  0.00    +0.000 A 
ATOM     28  N   UNL     1      49.798   9.265  19.936  0.00  0.00    +0.000 N 
ATOM     29  C   UNL     1      49.478   8.307  19.006  0.00  0.00    +0.000 A 
ATOM     30  O   UNL     1      49.287   7.132  19.327  0.00  0.00    +0.000 OA
ATOM     31  C   UNL     1      49.369   8.803  17.649  0.00  0.00    +0.000 A 
ATOM     32  H   UNL     1      49.895   8.950  20.891  0.00  0.00    +0.000 HD
ENDBRANCH  19  22
ENDBRANCH   2  18
TORSDOF 6
ENDMDL
MODEL 9
REMARK VINA RESULT:    -6.384      3.049      9.204
REMARK INTER + INTRA:          -9.620
REMARK INTER:                  -9.176
REMARK INTRA:                  -0.444
REMARK UNBOUND:                -0.997
REMARK  Name = 
REMARK  7 active torsions:
REMARK  status: ('A' for Active; 'I' for Inactive)
REMARK    1  A    between atoms: C_1  and  C_2
REMARK    2  A    between atoms: C_2  and  N_3
REMARK    3  A    between atoms: C_2  and  C_16
REMARK    4  A    between atoms: C_4  and  C_6
REMARK    5  A    between atoms: C_19  and  O_20
REMARK    6  A    between atoms: O_20  and  C_21
REMARK    7  A    between atoms: C_21  and  C_22
REMARK                            x       y       z     vdW  Elec       q    Type
REMARK                         _______ _______ _______ _____ _____    ______ ____
ROOT
ATOM      1  C   UNL     1      46.900   3.099  17.317  0.00  0.00    +0.000 C 
ATOM      2  C   UNL     1      47.808   4.331  17.224  0.00  0.00    +0.000 C 
ENDROOT
BRANCH   2   3
ATOM      3  C   UNL     1      49.278   3.952  17.312  0.00  0.00    +0.000 A 
ATOM      4  C   UNL     1      50.240   4.966  17.431  0.00  0.00    +0.000 A 
ATOM      5  C   UNL     1      51.590   4.658  17.609  0.00  0.00    +0.000 A 
ATOM      6  C   UNL     1      52.015   3.332  17.647  0.00  0.00    +0.000 A 
ATOM      7  C   UNL     1      51.076   2.312  17.481  0.00  0.00    +0.000 A 
ATOM      8  C   UNL     1      49.717   2.618  17.322  0.00  0.00    +0.000 A 
BRANCH   6   9
ATOM      9  O   UNL     1      53.316   2.934  17.806  0.00  0.00    +0.000 OA
BRANCH   9  10
ATOM     10  C   UNL     1      53.474   1.692  18.502  0.00  0.00    +0.000 C 
BRANCH  10  11
ATOM     11  C   UNL     1      54.890   1.137  18.273  0.00  0.00    +0.000 C 
ATOM     12  C   UNL     1      55.147   0.860  16.784  0.00  0.00    +0.000 C 
ATOM     13  C   UNL     1      54.346  -0.345  16.288  0.00  0.00    +0.000 C 
ATOM     14  N   UNL     1      54.634  -1.546  17.076  0.00  0.00    +0.000 NA
ATOM     15  C   UNL     1      54.341  -1.342  18.496  0.00  0.00    +0.000 C 
ATOM     16  C   UNL     1      55.110  -0.154  19.080  0.00  0.00    +0.000 C 
ATOM     17  H   UNL     1      55.621  -1.779  16.972  0.00  0.00    +0.000 HD
ENDBRANCH  10  11
ENDBRANCH   9  10
ENDBRANCH   6   9
ENDBRANCH   2   3
BRANCH   2  18
ATOM     18  N   UNL     1      47.550   5.115  16.034  0.00  0.00    +0.000 N 
ATOM     19  C   UNL     1      47.390   4.548  14.793  0.00  0.00    +0.000 C 
ATOM     20  O   UNL     1      47.503   3.350  14.590  0.00  0.00    +0.000 OA
ATOM     21  H   UNL     1      47.762   6.103  16.074  0.00  0.00    +0.000 HD
BRANCH  19  22
ATOM     22  C   UNL     1      47.000   5.460  13.705  0.00  0.00    +0.000 A 
ATOM     23  C   UNL     1      47.849   6.495  13.336  0.00  0.00    +0.000 A 
ATOM     24  S   UNL     1      47.224   7.486  12.097  0.00  0.00    +0.000 S 
ATOM     25  C   UNL     1      45.779   6.587  12.040  0.00  0.00    +0.000 A 
ATOM     26  N   UNL     1      44.760   6.951  11.213  0.00  0.00    +0.000 NA
ATOM     27  C   UNL     1      43.704   6.219  11.321  0.00  0.00    +0.000 A 
ATOM     28  N   UNL     1      43.580   5.139  12.159  0.00  0.00    +0.000 N 
ATOM     29  C   UNL     1      44.613   4.682  12.940  0.00  0.00    +0.000 A 
ATOM     30  O   UNL     1      44.523   3.636  13.585  0.00  0.00    +0.000 OA
ATOM     31  C   UNL     1      45.797   5.517  12.914  0.00  0.00    +0.000 A 
ATOM     32  H   UNL     1      42.734   4.587  12.166  0.00  0.00    +0.000 HD
ENDBRANCH  19  22
ENDBRANCH   2  18
TORSDOF 6
ENDMDL
