MODEL 1
REMARK VINA RESULT:    -9.029      0.000      0.000
REMARK INTER + INTRA:         -13.778
REMARK INTER:                 -12.724
REMARK INTRA:                  -1.055
REMARK UNBOUND:                -1.055
REMARK  Name = 
REMARK  8 active torsions:
REMARK  status: ('A' for Active; 'I' for Inactive)
REMARK    1  A    between atoms: C_1  and  C_2
REMARK    2  A    between atoms: C_2  and  N_3
REMARK    3  A    between atoms: C_2  and  C_25
REMARK    4  A    between atoms: N_3  and  C_4
REMARK    5  A    between atoms: C_4  and  C_5
REMARK    6  A    between atoms: C_8  and  C_9
REMARK    7  A    between atoms: C_9  and  N_10
REMARK    8  A    between atoms: C_11  and  C_13
REMARK                            x       y       z     vdW  Elec       q    Type
REMARK                         _______ _______ _______ _____ _____    ______ ____
ROOT
ATOM      1  C   UNL     1      45.225   6.196  11.021  0.00  0.00    +0.000 C 
ATOM      2  C   UNL     1      44.254   5.663  12.078  0.00  0.00    +0.000 C 
ATOM      3  C   UNL     1      44.920   4.663  13.016  0.00  0.00    +0.000 C 
ATOM      4  C   UNL     1      46.174   5.238  13.698  0.00  0.00    +0.000 C 
ATOM      5  C   UNL     1      47.143   5.853  12.673  0.00  0.00    +0.000 C 
ATOM      6  C   UNL     1      46.442   6.824  11.722  0.00  0.00    +0.000 C 
ENDROOT
BRANCH   1   7
ATOM      7  C   UNL     1      45.658   5.089  10.035  0.00  0.00    +0.000 C 
BRANCH   7   8
ATOM      8  N   UNL     1      44.619   4.801   9.047  0.00  0.00    +0.000 NA
ATOM      9  H   UNL     1      43.727   5.184   9.360  0.00  0.00    +0.000 HD
BRANCH   8  11
ATOM     10  C   UNL     1      44.310   2.599  10.188  0.00  0.00    +0.000 C 
ATOM     11  C   UNL     1      44.414   3.348   8.858  0.00  0.00    +0.000 C 
BRANCH  11  12
ATOM     12  C   UNL     1      45.558   2.758   8.040  0.00  0.00    +0.000 A 
ATOM     13  C   UNL     1      46.057   3.447   6.930  0.00  0.00    +0.000 A 
ATOM     14  C   UNL     1      47.062   2.862   6.165  0.00  0.00    +0.000 A 
ATOM     15  C   UNL     1      47.542   1.612   6.529  0.00  0.00    +0.000 A 
ATOM     16  C   UNL     1      47.010   1.002   7.652  0.00  0.00    +0.000 A 
ATOM     17  N   UNL     1      46.034   1.541   8.413  0.00  0.00    +0.000 NA
ENDBRANCH  11  12
ENDBRANCH   8  11
ENDBRANCH   7   8
ENDBRANCH   1   7
BRANCH   4  18
ATOM     18  C   UNL     1      46.905   4.168  14.527  0.00  0.00    +0.000 C 
BRANCH  18  19
ATOM     19  N   UNL     1      47.469   4.710  15.744  0.00  0.00    +0.000 N 
ATOM     20  C   UNL     1      47.146   4.200  16.982  0.00  0.00    +0.000 C 
ATOM     21  O   UNL     1      46.412   3.225  17.127  0.00  0.00    +0.000 OA
ATOM     22  H   UNL     1      47.763   5.683  15.717  0.00  0.00    +0.000 HD
BRANCH  20  23
ATOM     23  C   UNL     1      47.810   4.834  18.123  0.00  0.00    +0.000 A 
ATOM     24  C   UNL     1      47.122   5.731  18.922  0.00  0.00    +0.000 A 
ATOM     25  S   UNL     1      48.058   6.344  20.212  0.00  0.00    +0.000 S 
ATOM     26  C   UNL     1      49.427   5.457  19.722  0.00  0.00    +0.000 A 
ATOM     27  N   UNL     1      50.603   5.549  20.385  0.00  0.00    +0.000 NA
ATOM     28  C   UNL     1      51.557   4.833  19.884  0.00  0.00    +0.000 A 
ATOM     29  N   UNL     1      51.435   4.028  18.781  0.00  0.00    +0.000 N 
ATOM     30  C   UNL     1      50.268   3.915  18.074  0.00  0.00    +0.000 A 
ATOM     31  O   UNL     1      50.187   3.186  17.081  0.00  0.00    +0.000 OA
ATOM     32  C   UNL     1      49.164   4.691  18.595  0.00  0.00    +0.000 A 
ATOM     33  H   UNL     1      52.219   3.492  18.440  0.00  0.00    +0.000 HD
ENDBRANCH  20  23
ENDBRANCH  18  19
ENDBRANCH   4  18
TORSDOF 7
ENDMDL
MODEL 2
REMARK VINA RESULT:    -8.386      1.458      1.688
REMARK INTER + INTRA:         -12.872
REMARK INTER:                 -11.826
REMARK INTRA:                  -1.046
REMARK UNBOUND:                -1.055
REMARK  Name = 
REMARK  8 active torsions:
REMARK  status: ('A' for Active; 'I' for Inactive)
REMARK    1  A    between atoms: C_1  and  C_2
REMARK    2  A    between atoms: C_2  and  N_3
REMARK    3  A    between atoms: C_2  and  C_25
REMARK    4  A    between atoms: N_3  and  C_4
REMARK    5  A    between atoms: C_4  and  C_5
REMARK    6  A    between atoms: C_8  and  C_9
REMARK    7  A    between atoms: C_9  and  N_10
REMARK    8  A    between atoms: C_11  and  C_13
REMARK                            x       y       z     vdW  Elec       q    Type
REMARK                         _______ _______ _______ _____ _____    ______ ____
ROOT
ATOM      1  C   UNL     1      44.364   5.588  11.079  0.00  0.00    +0.000 C 
ATOM      2  C   UNL     1      43.929   4.644  12.202  0.00  0.00    +0.000 C 
ATOM      3  C   UNL     1      45.116   4.114  12.998  0.00  0.00    +0.000 C 
ATOM      4  C   UNL     1      45.994   5.241  13.570  0.00  0.00    +0.000 C 
ATOM      5  C   UNL     1      46.391   6.255  12.483  0.00  0.00    +0.000 C 
ATOM      6  C   UNL     1      45.186   6.743  11.677  0.00  0.00    +0.000 C 
ENDROOT
BRANCH   1   7
ATOM      7  C   UNL     1      45.161   4.843   9.985  0.00  0.00    +0.000 C 
BRANCH   7   8
ATOM      8  N   UNL     1      44.301   4.413   8.882  0.00  0.00    +0.000 NA
ATOM      9  H   UNL     1      43.326   4.611   9.104  0.00  0.00    +0.000 HD
BRANCH   8  11
ATOM     10  C   UNL     1      44.430   2.150   9.934  0.00  0.00    +0.000 C 
ATOM     11  C   UNL     1      44.394   2.958   8.635  0.00  0.00    +0.000 C 
BRANCH  11  12
ATOM     12  C   UNL     1      45.642   2.642   7.816  0.00  0.00    +0.000 A 
ATOM     13  C   UNL     1      46.048   3.503   6.792  0.00  0.00    +0.000 A 
ATOM     14  C   UNL     1      47.155   3.166   6.020  0.00  0.00    +0.000 A 
ATOM     15  C   UNL     1      47.828   1.982   6.293  0.00  0.00    +0.000 A 
ATOM     16  C   UNL     1      47.376   1.192   7.336  0.00  0.00    +0.000 A 
ATOM     17  N   UNL     1      46.304   1.490   8.101  0.00  0.00    +0.000 NA
ENDBRANCH  11  12
ENDBRANCH   8  11
ENDBRANCH   7   8
ENDBRANCH   1   7
BRANCH   4  18
ATOM     18  C   UNL     1      47.258   4.682  14.246  0.00  0.00    +0.000 C 
BRANCH  18  19
ATOM     19  N   UNL     1      47.417   5.172  15.597  0.00  0.00    +0.000 N 
ATOM     20  C   UNL     1      48.510   5.922  15.973  0.00  0.00    +0.000 C 
ATOM     21  O   UNL     1      49.381   6.269  15.178  0.00  0.00    +0.000 OA
ATOM     22  H   UNL     1      46.958   4.640  16.334  0.00  0.00    +0.000 HD
BRANCH  20  23
ATOM     23  C   UNL     1      48.526   6.368  17.367  0.00  0.00    +0.000 A 
ATOM     24  C   UNL     1      48.561   7.719  17.669  0.00  0.00    +0.000 A 
ATOM     25  S   UNL     1      48.552   8.038  19.346  0.00  0.00    +0.000 S 
ATOM     26  C   UNL     1      48.539   6.378  19.725  0.00  0.00    +0.000 A 
ATOM     27  N   UNL     1      48.559   5.945  21.007  0.00  0.00    +0.000 NA
ATOM     28  C   UNL     1      48.567   4.658  21.138  0.00  0.00    +0.000 A 
ATOM     29  N   UNL     1      48.550   3.765  20.097  0.00  0.00    +0.000 N 
ATOM     30  C   UNL     1      48.542   4.160  18.786  0.00  0.00    +0.000 A 
ATOM     31  O   UNL     1      48.531   3.334  17.868  0.00  0.00    +0.000 OA
ATOM     32  C   UNL     1      48.526   5.592  18.582  0.00  0.00    +0.000 A 
ATOM     33  H   UNL     1      48.556   2.771  20.266  0.00  0.00    +0.000 HD
ENDBRANCH  20  23
ENDBRANCH  18  19
ENDBRANCH   4  18
TORSDOF 7
ENDMDL
MODEL 3
REMARK VINA RESULT:    -7.796      2.299      3.331
REMARK INTER + INTRA:         -12.041
REMARK INTER:                 -10.620
REMARK INTRA:                  -1.421
REMARK UNBOUND:                -1.055
REMARK  Name = 
REMARK  8 active torsions:
REMARK  status: ('A' for Active; 'I' for Inactive)
REMARK    1  A    between atoms: C_1  and  C_2
REMARK    2  A    between atoms: C_2  and  N_3
REMARK    3  A    between atoms: C_2  and  C_25
REMARK    4  A    between atoms: N_3  and  C_4
REMARK    5  A    between atoms: C_4  and  C_5
REMARK    6  A    between atoms: C_8  and  C_9
REMARK    7  A    between atoms: C_9  and  N_10
REMARK    8  A    between atoms: C_11  and  C_13
REMARK                            x       y       z     vdW  Elec       q    Type
REMARK                         _______ _______ _______ _____ _____    ______ ____
ROOT
ATOM      1  C   UNL     1      45.286   6.862  11.463  0.00  0.00    +0.000 C 
ATOM      2  C   UNL     1      44.890   8.290  11.841  0.00  0.00    +0.000 C 
ATOM      3  C   UNL     1      45.787   8.864  12.933  0.00  0.00    +0.000 C 
ATOM      4  C   UNL     1      47.279   8.814  12.559  0.00  0.00    +0.000 C 
ATOM      5  C   UNL     1      47.699   7.407  12.099  0.00  0.00    +0.000 C 
ATOM      6  C   UNL     1      46.763   6.842  11.030  0.00  0.00    +0.000 C 
ENDROOT
BRANCH   1   7
ATOM      7  C   UNL     1      45.031   5.874  12.623  0.00  0.00    +0.000 C 
BRANCH   7   8
ATOM      8  N   UNL     1      45.239   4.485  12.212  0.00  0.00    +0.000 NA
ATOM      9  H   UNL     1      46.149   4.388  11.763  0.00  0.00    +0.000 HD
BRANCH   8  11
ATOM     10  C   UNL     1      43.348   2.911  11.769  0.00  0.00    +0.000 C 
ATOM     11  C   UNL     1      44.231   4.037  11.227  0.00  0.00    +0.000 C 
BRANCH  11  12
ATOM     12  C   UNL     1      44.918   3.562   9.950  0.00  0.00    +0.000 A 
ATOM     13  C   UNL     1      45.332   4.488   8.988  0.00  0.00    +0.000 A 
ATOM     14  C   UNL     1      45.904   4.029   7.806  0.00  0.00    +0.000 A 
ATOM     15  C   UNL     1      46.051   2.661   7.619  0.00  0.00    +0.000 A 
ATOM     16  C   UNL     1      45.635   1.809   8.626  0.00  0.00    +0.000 A 
ATOM     17  N   UNL     1      45.074   2.223   9.782  0.00  0.00    +0.000 NA
ENDBRANCH  11  12
ENDBRANCH   8  11
ENDBRANCH   7   8
ENDBRANCH   1   7
BRANCH   4  18
ATOM     18  C   UNL     1      48.168   9.266  13.730  0.00  0.00    +0.000 C 
BRANCH  18  19
ATOM     19  N   UNL     1      48.080   8.369  14.860  0.00  0.00    +0.000 N 
ATOM     20  C   UNL     1      49.150   7.597  15.259  0.00  0.00    +0.000 C 
ATOM     21  O   UNL     1      50.253   7.665  14.721  0.00  0.00    +0.000 OA
ATOM     22  H   UNL     1      47.155   8.015  15.092  0.00  0.00    +0.000 HD
BRANCH  20  23
ATOM     23  C   UNL     1      48.922   6.753  16.432  0.00  0.00    +0.000 A 
ATOM     24  C   UNL     1      49.357   7.160  17.682  0.00  0.00    +0.000 A 
ATOM     25  S   UNL     1      48.979   6.052  18.925  0.00  0.00    +0.000 S 
ATOM     26  C   UNL     1      48.254   4.972  17.827  0.00  0.00    +0.000 A 
ATOM     27  N   UNL     1      47.742   3.787  18.233  0.00  0.00    +0.000 NA
ATOM     28  C   UNL     1      47.243   3.064  17.283  0.00  0.00    +0.000 A 
ATOM     29  N   UNL     1      47.205   3.428  15.961  0.00  0.00    +0.000 N 
ATOM     30  C   UNL     1      47.722   4.611  15.505  0.00  0.00    +0.000 A 
ATOM     31  O   UNL     1      47.678   4.911  14.308  0.00  0.00    +0.000 OA
ATOM     32  C   UNL     1      48.288   5.462  16.529  0.00  0.00    +0.000 A 
ATOM     33  H   UNL     1      46.800   2.819  15.267  0.00  0.00    +0.000 HD
ENDBRANCH  20  23
ENDBRANCH  18  19
ENDBRANCH   4  18
TORSDOF 7
ENDMDL
MODEL 4
REMARK VINA RESULT:    -7.022      3.809      9.767
REMARK INTER + INTRA:         -10.950
REMARK INTER:                  -9.304
REMARK INTRA:                  -1.646
REMARK UNBOUND:                -1.055
REMARK  Name = 
REMARK  8 active torsions:
REMARK  status: ('A' for Active; 'I' for Inactive)
REMARK    1  A    between atoms: C_1  and  C_2
REMARK    2  A    between atoms: C_2  and  N_3
REMARK    3  A    between atoms: C_2  and  C_25
REMARK    4  A    between atoms: N_3  and  C_4
REMARK    5  A    between atoms: C_4  and  C_5
REMARK    6  A    between atoms: C_8  and  C_9
REMARK    7  A    between atoms: C_9  and  N_10
REMARK    8  A    between atoms: C_11  and  C_13
REMARK                            x       y       z     vdW  Elec       q    Type
REMARK                         _______ _______ _______ _____ _____    ______ ____
ROOT
ATOM      1  C   UNL     1      51.461   4.433  18.235  0.00  0.00    +0.000 C 
ATOM      2  C   UNL     1      51.115   3.019  17.763  0.00  0.00    +0.000 C 
ATOM      3  C   UNL     1      49.614   2.828  17.577  0.00  0.00    +0.000 C 
ATOM      4  C   UNL     1      49.000   3.865  16.620  0.00  0.00    +0.000 C 
ATOM      5  C   UNL     1      49.389   5.300  17.019  0.00  0.00    +0.000 C 
ATOM      6  C   UNL     1      50.895   5.455  17.234  0.00  0.00    +0.000 C 
ENDROOT
BRANCH   1   7
ATOM      7  C   UNL     1      50.937   4.701  19.663  0.00  0.00    +0.000 C 
BRANCH   7   8
ATOM      8  N   UNL     1      50.965   6.125  19.996  0.00  0.00    +0.000 NA
ATOM      9  H   UNL     1      51.691   6.305  20.690  0.00  0.00    +0.000 HD
BRANCH   8  11
ATOM     10  C   UNL     1      48.668   5.456  20.718  0.00  0.00    +0.000 C 
ATOM     11  C   UNL     1      49.690   6.587  20.587  0.00  0.00    +0.000 C 
BRANCH  11  12
ATOM     12  C   UNL     1      49.092   7.706  19.740  0.00  0.00    +0.000 A 
ATOM     13  C   UNL     1      47.710   7.912  19.722  0.00  0.00    +0.000 A 
ATOM     14  C   UNL     1      47.181   8.900  18.898  0.00  0.00    +0.000 A 
ATOM     15  C   UNL     1      48.047   9.658  18.119  0.00  0.00    +0.000 A 
ATOM     16  C   UNL     1      49.405   9.406  18.207  0.00  0.00    +0.000 A 
ATOM     17  N   UNL     1      49.947   8.453  18.994  0.00  0.00    +0.000 NA
ENDBRANCH  11  12
ENDBRANCH   8  11
ENDBRANCH   7   8
ENDBRANCH   1   7
BRANCH   4  18
ATOM     18  C   UNL     1      47.468   3.739  16.561  0.00  0.00    +0.000 C 
BRANCH  18  19
ATOM     19  N   UNL     1      46.882   4.655  15.607  0.00  0.00    +0.000 N 
ATOM     20  C   UNL     1      46.796   4.348  14.266  0.00  0.00    +0.000 C 
ATOM     21  O   UNL     1      47.154   3.265  13.810  0.00  0.00    +0.000 OA
ATOM     22  H   UNL     1      46.911   5.643  15.844  0.00  0.00    +0.000 HD
BRANCH  20  23
ATOM     23  C   UNL     1      46.158   5.360  13.422  0.00  0.00    +0.000 A 
ATOM     24  C   UNL     1      46.797   6.562  13.168  0.00  0.00    +0.000 A 
ATOM     25  S   UNL     1      45.906   7.600  12.147  0.00  0.00    +0.000 S 
ATOM     26  C   UNL     1      44.618   6.491  12.040  0.00  0.00    +0.000 A 
ATOM     27  N   UNL     1      43.499   6.771  11.333  0.00  0.00    +0.000 NA
ATOM     28  C   UNL     1      42.599   5.842  11.361  0.00  0.00    +0.000 A 
ATOM     29  N   UNL     1      42.725   4.651  12.030  0.00  0.00    +0.000 N 
ATOM     30  C   UNL     1      43.834   4.332  12.768  0.00  0.00    +0.000 A 
ATOM     31  O   UNL     1      43.919   3.254  13.364  0.00  0.00    +0.000 OA
ATOM     32  C   UNL     1      44.876   5.336  12.765  0.00  0.00    +0.000 A 
ATOM     33  H   UNL     1      41.987   3.965  12.012  0.00  0.00    +0.000 HD
ENDBRANCH  20  23
ENDBRANCH  18  19
ENDBRANCH   4  18
TORSDOF 7
ENDMDL
MODEL 5
REMARK VINA RESULT:    -6.997      3.687      8.926
REMARK INTER + INTRA:         -10.914
REMARK INTER:                  -9.830
REMARK INTRA:                  -1.084
REMARK UNBOUND:                -1.055
REMARK  Name = 
REMARK  8 active torsions:
REMARK  status: ('A' for Active; 'I' for Inactive)
REMARK    1  A    between atoms: C_1  and  C_2
REMARK    2  A    between atoms: C_2  and  N_3
REMARK    3  A    between atoms: C_2  and  C_25
REMARK    4  A    between atoms: N_3  and  C_4
REMARK    5  A    between atoms: C_4  and  C_5
REMARK    6  A    between atoms: C_8  and  C_9
REMARK    7  A    between atoms: C_9  and  N_10
REMARK    8  A    between atoms: C_11  and  C_13
REMARK                            x       y       z     vdW  Elec       q    Type
REMARK                         _______ _______ _______ _____ _____    ______ ____
ROOT
ATOM      1  C   UNL     1      50.410   8.506  13.588  0.00  0.00    +0.000 C 
ATOM      2  C   UNL     1      49.958   7.400  12.632  0.00  0.00    +0.000 C 
ATOM      3  C   UNL     1      48.456   7.147  12.716  0.00  0.00    +0.000 C 
ATOM      4  C   UNL     1      47.629   8.422  12.473  0.00  0.00    +0.000 C 
ATOM      5  C   UNL     1      48.104   9.583  13.364  0.00  0.00    +0.000 C 
ATOM      6  C   UNL     1      49.618   9.791  13.288  0.00  0.00    +0.000 C 
ENDROOT
BRANCH   1   7
ATOM      7  C   UNL     1      50.250   8.084  15.065  0.00  0.00    +0.000 C 
BRANCH   7   8
ATOM      8  N   UNL     1      50.553   6.666  15.263  0.00  0.00    +0.000 NA
ATOM      9  H   UNL     1      49.875   6.093  14.761  0.00  0.00    +0.000 HD
BRANCH   8  11
ATOM     10  C   UNL     1      51.838   5.910  17.269  0.00  0.00    +0.000 C 
ATOM     11  C   UNL     1      50.470   6.271  16.686  0.00  0.00    +0.000 C 
BRANCH  11  12
ATOM     12  C   UNL     1      49.529   5.081  16.848  0.00  0.00    +0.000 A 
ATOM     13  C   UNL     1      48.156   5.237  16.634  0.00  0.00    +0.000 A 
ATOM     14  C   UNL     1      47.309   4.153  16.843  0.00  0.00    +0.000 A 
ATOM     15  C   UNL     1      47.855   2.945  17.255  0.00  0.00    +0.000 A 
ATOM     16  C   UNL     1      49.226   2.865  17.427  0.00  0.00    +0.000 A 
ATOM     17  N   UNL     1      50.073   3.898  17.235  0.00  0.00    +0.000 NA
ENDBRANCH  11  12
ENDBRANCH   8  11
ENDBRANCH   7   8
ENDBRANCH   1   7
BRANCH   4  18
ATOM     18  C   UNL     1      46.128   8.171  12.703  0.00  0.00    +0.000 C 
BRANCH  18  19
ATOM     19  N   UNL     1      45.742   6.820  12.362  0.00  0.00    +0.000 N 
ATOM     20  C   UNL     1      44.597   6.552  11.643  0.00  0.00    +0.000 C 
ATOM     21  O   UNL     1      43.870   7.439  11.200  0.00  0.00    +0.000 OA
ATOM     22  H   UNL     1      46.074   6.080  12.976  0.00  0.00    +0.000 HD
BRANCH  20  23
ATOM     23  C   UNL     1      44.345   5.140  11.352  0.00  0.00    +0.000 A 
ATOM     24  C   UNL     1      43.593   4.370  12.223  0.00  0.00    +0.000 A 
ATOM     25  S   UNL     1      43.390   2.758  11.700  0.00  0.00    +0.000 S 
ATOM     26  C   UNL     1      44.334   3.026  10.308  0.00  0.00    +0.000 A 
ATOM     27  N   UNL     1      44.592   2.032   9.426  0.00  0.00    +0.000 NA
ATOM     28  C   UNL     1      45.339   2.381   8.429  0.00  0.00    +0.000 A 
ATOM     29  N   UNL     1      45.846   3.640   8.234  0.00  0.00    +0.000 N 
ATOM     30  C   UNL     1      45.621   4.670   9.108  0.00  0.00    +0.000 A 
ATOM     31  O   UNL     1      46.094   5.794   8.909  0.00  0.00    +0.000 OA
ATOM     32  C   UNL     1      44.784   4.337  10.239  0.00  0.00    +0.000 A 
ATOM     33  H   UNL     1      46.423   3.849   7.434  0.00  0.00    +0.000 HD
ENDBRANCH  20  23
ENDBRANCH  18  19
ENDBRANCH   4  18
TORSDOF 7
ENDMDL
MODEL 6
REMARK VINA RESULT:    -6.897      2.521      3.472
REMARK INTER + INTRA:         -10.774
REMARK INTER:                  -9.448
REMARK INTRA:                  -1.326
REMARK UNBOUND:                -1.055
REMARK  Name = 
REMARK  8 active torsions:
REMARK  status: ('A' for Active; 'I' for Inactive)
REMARK    1  A    between atoms: C_1  and  C_2
REMARK    2  A    between atoms: C_2  and  N_3
REMARK    3  A    between atoms: C_2  and  C_25
REMARK    4  A    between atoms: N_3  and  C_4
REMARK    5  A    between atoms: C_4  and  C_5
REMARK    6  A    between atoms: C_8  and  C_9
REMARK    7  A    between atoms: C_9  and  N_10
REMARK    8  A    between atoms: C_11  and  C_13
REMARK                            x       y       z     vdW  Elec       q    Type
REMARK                         _______ _______ _______ _____ _____    ______ ____
ROOT
ATOM      1  C   UNL     1      46.326   6.847  11.826  0.00  0.00    +0.000 C 
ATOM      2  C   UNL     1      45.897   8.165  12.474  0.00  0.00    +0.000 C 
ATOM      3  C   UNL     1      46.774   8.530  13.667  0.00  0.00    +0.000 C 
ATOM      4  C   UNL     1      48.269   8.584  13.307  0.00  0.00    +0.000 C 
ATOM      5  C   UNL     1      48.723   7.303  12.583  0.00  0.00    +0.000 C 
ATOM      6  C   UNL     1      47.806   6.941  11.414  0.00  0.00    +0.000 C 
ENDROOT
BRANCH   1   7
ATOM      7  C   UNL     1      46.084   5.644  12.765  0.00  0.00    +0.000 C 
BRANCH   7   8
ATOM      8  N   UNL     1      45.285   4.601  12.121  0.00  0.00    +0.000 NA
ATOM      9  H   UNL     1      45.874   3.798  11.903  0.00  0.00    +0.000 HD
BRANCH   8  11
ATOM     10  C   UNL     1      43.168   5.087  10.884  0.00  0.00    +0.000 C 
ATOM     11  C   UNL     1      44.697   5.057  10.843  0.00  0.00    +0.000 C 
BRANCH  11  12
ATOM     12  C   UNL     1      45.149   4.149   9.703  0.00  0.00    +0.000 A 
ATOM     13  C   UNL     1      44.993   2.763   9.805  0.00  0.00    +0.000 A 
ATOM     14  C   UNL     1      45.465   1.950   8.779  0.00  0.00    +0.000 A 
ATOM     15  C   UNL     1      46.072   2.542   7.679  0.00  0.00    +0.000 A 
ATOM     16  C   UNL     1      46.171   3.922   7.643  0.00  0.00    +0.000 A 
ATOM     17  N   UNL     1      45.727   4.737   8.624  0.00  0.00    +0.000 NA
ENDBRANCH  11  12
ENDBRANCH   8  11
ENDBRANCH   7   8
ENDBRANCH   1   7
BRANCH   4  18
ATOM     18  C   UNL     1      49.140   8.813  14.553  0.00  0.00    +0.000 C 
BRANCH  18  19
ATOM     19  N   UNL     1      48.753   7.959  15.655  0.00  0.00    +0.000 N 
ATOM     20  C   UNL     1      49.537   6.902  16.062  0.00  0.00    +0.000 C 
ATOM     21  O   UNL     1      50.631   6.655  15.560  0.00  0.00    +0.000 OA
ATOM     22  H   UNL     1      47.758   7.886  15.849  0.00  0.00    +0.000 HD
BRANCH  20  23
ATOM     23  C   UNL     1      49.030   6.138  17.204  0.00  0.00    +0.000 A 
ATOM     24  C   UNL     1      48.922   4.760  17.131  0.00  0.00    +0.000 A 
ATOM     25  S   UNL     1      48.334   4.050  18.568  0.00  0.00    +0.000 S 
ATOM     26  C   UNL     1      48.169   5.567  19.324  0.00  0.00    +0.000 A 
ATOM     27  N   UNL     1      47.678   5.682  20.579  0.00  0.00    +0.000 NA
ATOM     28  C   UNL     1      47.592   6.898  21.012  0.00  0.00    +0.000 A 
ATOM     29  N   UNL     1      47.962   8.010  20.299  0.00  0.00    +0.000 N 
ATOM     30  C   UNL     1      48.451   7.940  19.022  0.00  0.00    +0.000 A 
ATOM     31  O   UNL     1      48.771   8.958  18.402  0.00  0.00    +0.000 OA
ATOM     32  C   UNL     1      48.574   6.601  18.491  0.00  0.00    +0.000 A 
ATOM     33  H   UNL     1      47.871   8.933  20.694  0.00  0.00    +0.000 HD
ENDBRANCH  20  23
ENDBRANCH  18  19
ENDBRANCH   4  18
TORSDOF 7
ENDMDL
MODEL 7
REMARK VINA RESULT:    -6.881      3.951      8.484
REMARK INTER + INTRA:         -10.751
REMARK INTER:                  -9.092
REMARK INTRA:                  -1.660
REMARK UNBOUND:                -1.055
REMARK  Name = 
REMARK  8 active torsions:
REMARK  status: ('A' for Active; 'I' for Inactive)
REMARK    1  A    between atoms: C_1  and  C_2
REMARK    2  A    between atoms: C_2  and  N_3
REMARK    3  A    between atoms: C_2  and  C_25
REMARK    4  A    between atoms: N_3  and  C_4
REMARK    5  A    between atoms: C_4  and  C_5
REMARK    6  A    between atoms: C_8  and  C_9
REMARK    7  A    between atoms: C_9  and  N_10
REMARK    8  A    between atoms: C_11  and  C_13
REMARK                            x       y       z     vdW  Elec       q    Type
REMARK                         _______ _______ _______ _____ _____    ______ ____
ROOT
ATOM      1  C   UNL     1      49.128   6.620  18.931  0.00  0.00    +0.000 C 
ATOM      2  C   UNL     1      47.861   5.941  19.454  0.00  0.00    +0.000 C 
ATOM      3  C   UNL     1      47.139   5.157  18.364  0.00  0.00    +0.000 C 
ATOM      4  C   UNL     1      48.047   4.120  17.682  0.00  0.00    +0.000 C 
ATOM      5  C   UNL     1      49.368   4.751  17.208  0.00  0.00    +0.000 C 
ATOM      6  C   UNL     1      50.054   5.560  18.310  0.00  0.00    +0.000 C 
ENDROOT
BRANCH   1   7
ATOM      7  C   UNL     1      48.799   7.737  17.916  0.00  0.00    +0.000 C 
BRANCH   7   8
ATOM      8  N   UNL     1      50.008   8.349  17.366  0.00  0.00    +0.000 NA
ATOM      9  H   UNL     1      50.641   8.608  18.122  0.00  0.00    +0.000 HD
BRANCH   8  11
ATOM     10  C   UNL     1      48.418  10.255  17.077  0.00  0.00    +0.000 C 
ATOM     11  C   UNL     1      49.715   9.589  16.615  0.00  0.00    +0.000 C 
BRANCH  11  12
ATOM     12  C   UNL     1      49.619   9.290  15.122  0.00  0.00    +0.000 A 
ATOM     13  C   UNL     1      50.273   8.177  14.584  0.00  0.00    +0.000 A 
ATOM     14  C   UNL     1      50.219   7.957  13.211  0.00  0.00    +0.000 A 
ATOM     15  C   UNL     1      49.511   8.848  12.415  0.00  0.00    +0.000 A 
ATOM     16  C   UNL     1      48.874   9.914  13.025  0.00  0.00    +0.000 A 
ATOM     17  N   UNL     1      48.910  10.157  14.353  0.00  0.00    +0.000 NA
ENDBRANCH  11  12
ENDBRANCH   8  11
ENDBRANCH   7   8
ENDBRANCH   1   7
BRANCH   4  18
ATOM     18  C   UNL     1      47.338   3.444  16.495  0.00  0.00    +0.000 C 
BRANCH  18  19
ATOM     19  N   UNL     1      46.757   4.407  15.587  0.00  0.00    +0.000 N 
ATOM     20  C   UNL     1      46.786   4.226  14.221  0.00  0.00    +0.000 C 
ATOM     21  O   UNL     1      47.252   3.216  13.696  0.00  0.00    +0.000 OA
ATOM     22  H   UNL     1      46.699   5.369  15.914  0.00  0.00    +0.000 HD
BRANCH  20  23
ATOM     23  C   UNL     1      46.140   5.271  13.427  0.00  0.00    +0.000 A 
ATOM     24  C   UNL     1      46.778   6.480  13.209  0.00  0.00    +0.000 A 
ATOM     25  S   UNL     1      45.874   7.559  12.242  0.00  0.00    +0.000 S 
ATOM     26  C   UNL     1      44.581   6.458  12.113  0.00  0.00    +0.000 A 
ATOM     27  N   UNL     1      43.453   6.768  11.434  0.00  0.00    +0.000 NA
ATOM     28  C   UNL     1      42.551   5.841  11.440  0.00  0.00    +0.000 A 
ATOM     29  N   UNL     1      42.683   4.625  12.061  0.00  0.00    +0.000 N 
ATOM     30  C   UNL     1      43.803   4.275  12.768  0.00  0.00    +0.000 A 
ATOM     31  O   UNL     1      43.893   3.174  13.321  0.00  0.00    +0.000 OA
ATOM     32  C   UNL     1      44.847   5.275  12.788  0.00  0.00    +0.000 A 
ATOM     33  H   UNL     1      41.943   3.942  12.027  0.00  0.00    +0.000 HD
ENDBRANCH  20  23
ENDBRANCH  18  19
ENDBRANCH   4  18
TORSDOF 7
ENDMDL
MODEL 8
REMARK VINA RESULT:    -6.589      3.947      6.916
REMARK INTER + INTRA:         -10.339
REMARK INTER:                  -8.516
REMARK INTRA:                  -1.823
REMARK UNBOUND:                -1.055
REMARK  Name = 
REMARK  8 active torsions:
REMARK  status: ('A' for Active; 'I' for Inactive)
REMARK    1  A    between atoms: C_1  and  C_2
REMARK    2  A    between atoms: C_2  and  N_3
REMARK    3  A    between atoms: C_2  and  C_25
REMARK    4  A    between atoms: N_3  and  C_4
REMARK    5  A    between atoms: C_4  and  C_5
REMARK    6  A    between atoms: C_8  and  C_9
REMARK    7  A    between atoms: C_9  and  N_10
REMARK    8  A    between atoms: C_11  and  C_13
REMARK                            x       y       z     vdW  Elec       q    Type
REMARK                         _______ _______ _______ _____ _____    ______ ____
ROOT
ATOM      1  C   UNL     1      47.828   3.313  17.231  0.00  0.00    +0.000 C 
ATOM      2  C   UNL     1      49.209   2.909  17.753  0.00  0.00    +0.000 C 
ATOM      3  C   UNL     1      50.289   3.906  17.348  0.00  0.00    +0.000 C 
ATOM      4  C   UNL     1      49.961   5.344  17.788  0.00  0.00    +0.000 C 
ATOM      5  C   UNL     1      48.547   5.761  17.347  0.00  0.00    +0.000 C 
ATOM      6  C   UNL     1      47.489   4.727  17.734  0.00  0.00    +0.000 C 
ENDROOT
BRANCH   1   7
ATOM      7  C   UNL     1      47.756   3.236  15.691  0.00  0.00    +0.000 C 
BRANCH   7   8
ATOM      8  N   UNL     1      46.593   3.950  15.162  0.00  0.00    +0.000 NA
ATOM      9  H   UNL     1      45.769   3.352  15.207  0.00  0.00    +0.000 HD
BRANCH   8  11
ATOM     10  C   UNL     1      47.427   5.698  13.582  0.00  0.00    +0.000 C 
ATOM     11  C   UNL     1      46.767   4.327  13.742  0.00  0.00    +0.000 C 
BRANCH  11  12
ATOM     12  C   UNL     1      45.417   4.337  13.032  0.00  0.00    +0.000 A 
ATOM     13  C   UNL     1      44.702   5.530  12.896  0.00  0.00    +0.000 A 
ATOM     14  C   UNL     1      43.447   5.505  12.296  0.00  0.00    +0.000 A 
ATOM     15  C   UNL     1      42.944   4.293  11.843  0.00  0.00    +0.000 A 
ATOM     16  C   UNL     1      43.721   3.158  11.996  0.00  0.00    +0.000 A 
ATOM     17  N   UNL     1      44.940   3.149  12.576  0.00  0.00    +0.000 NA
ENDBRANCH  11  12
ENDBRANCH   8  11
ENDBRANCH   7   8
ENDBRANCH   1   7
BRANCH   4  18
ATOM     18  C   UNL     1      50.992   6.348  17.246  0.00  0.00    +0.000 C 
BRANCH  18  19
ATOM     19  N   UNL     1      50.605   6.890  15.962  0.00  0.00    +0.000 N 
ATOM     20  C   UNL     1      51.250   7.974  15.408  0.00  0.00    +0.000 C 
ATOM     21  O   UNL     1      52.224   8.507  15.936  0.00  0.00    +0.000 OA
ATOM     22  H   UNL     1      49.639   6.743  15.677  0.00  0.00    +0.000 HD
BRANCH  20  23
ATOM     23  C   UNL     1      50.764   8.400  14.095  0.00  0.00    +0.000 A 
ATOM     24  C   UNL     1      51.617   8.414  13.004  0.00  0.00    +0.000 A 
ATOM     25  S   UNL     1      50.861   8.918  11.559  0.00  0.00    +0.000 S 
ATOM     26  C   UNL     1      49.374   9.169  12.351  0.00  0.00    +0.000 A 
ATOM     27  N   UNL     1      48.290   9.637  11.690  0.00  0.00    +0.000 NA
ATOM     28  C   UNL     1      47.240   9.797  12.428  0.00  0.00    +0.000 A 
ATOM     29  N   UNL     1      47.177   9.522  13.771  0.00  0.00    +0.000 N 
ATOM     30  C   UNL     1      48.253   9.059  14.481  0.00  0.00    +0.000 A 
ATOM     31  O   UNL     1      48.170   8.825  15.690  0.00  0.00    +0.000 OA
ATOM     32  C   UNL     1      49.454   8.857  13.701  0.00  0.00    +0.000 A 
ATOM     33  H   UNL     1      46.326   9.667  14.291  0.00  0.00    +0.000 HD
ENDBRANCH  20  23
ENDBRANCH  18  19
ENDBRANCH   4  18
TORSDOF 7
ENDMDL
MODEL 9
REMARK VINA RESULT:    -6.285      3.700      8.789
REMARK INTER + INTRA:          -9.911
REMARK INTER:                  -7.986
REMARK INTRA:                  -1.925
REMARK UNBOUND:                -1.055
REMARK  Name = 
REMARK  8 active torsions:
REMARK  status: ('A' for Active; 'I' for Inactive)
REMARK    1  A    between atoms: C_1  and  C_2
REMARK    2  A    between atoms: C_2  and  N_3
REMARK    3  A    between atoms: C_2  and  C_25
REMARK    4  A    between atoms: N_3  and  C_4
REMARK    5  A    between atoms: C_4  and  C_5
REMARK    6  A    between atoms: C_8  and  C_9
REMARK    7  A    between atoms: C_9  and  N_10
REMARK    8  A    between atoms: C_11  and  C_13
REMARK                            x       y       z     vdW  Elec       q    Type
REMARK                         _______ _______ _______ _____ _____    ______ ____
ROOT
ATOM      1  C   UNL     1      49.348   8.072  19.811  0.00  0.00    +0.000 C 
ATOM      2  C   UNL     1      49.422   9.546  19.407  0.00  0.00    +0.000 C 
ATOM      3  C   UNL     1      49.554   9.721  17.898  0.00  0.00    +0.000 C 
ATOM      4  C   UNL     1      48.426   9.019  17.122  0.00  0.00    +0.000 C 
ATOM      5  C   UNL     1      48.270   7.551  17.555  0.00  0.00    +0.000 C 
ATOM      6  C   UNL     1      48.176   7.401  19.075  0.00  0.00    +0.000 C 
ENDROOT
BRANCH   1   7
ATOM      7  C   UNL     1      50.677   7.336  19.531  0.00  0.00    +0.000 C 
BRANCH   7   8
ATOM      8  N   UNL     1      50.493   5.887  19.447  0.00  0.00    +0.000 NA
ATOM      9  H   UNL     1      50.767   5.451  20.328  0.00  0.00    +0.000 HD
BRANCH   8  11
ATOM     10  C   UNL     1      51.697   6.274  17.292  0.00  0.00    +0.000 C 
ATOM     11  C   UNL     1      51.331   5.277  18.393  0.00  0.00    +0.000 C 
BRANCH  11  12
ATOM     12  C   UNL     1      50.607   4.087  17.768  0.00  0.00    +0.000 A 
ATOM     13  C   UNL     1      49.236   4.157  17.506  0.00  0.00    +0.000 A 
ATOM     14  C   UNL     1      48.586   3.040  16.990  0.00  0.00    +0.000 A 
ATOM     15  C   UNL     1      49.323   1.888  16.746  0.00  0.00    +0.000 A 
ATOM     16  C   UNL     1      50.680   1.905  17.014  0.00  0.00    +0.000 A 
ATOM     17  N   UNL     1      51.338   2.970  17.517  0.00  0.00    +0.000 NA
ENDBRANCH  11  12
ENDBRANCH   8  11
ENDBRANCH   7   8
ENDBRANCH   1   7
BRANCH   4  18
ATOM     18  C   UNL     1      48.659   9.091  15.603  0.00  0.00    +0.000 C 
BRANCH  18  19
ATOM     19  N   UNL     1      47.644   8.378  14.860  0.00  0.00    +0.000 N 
ATOM     20  C   UNL     1      47.639   8.349  13.482  0.00  0.00    +0.000 C 
ATOM     21  O   UNL     1      48.522   8.872  12.805  0.00  0.00    +0.000 OA
ATOM     22  H   UNL     1      46.744   8.254  15.318  0.00  0.00    +0.000 HD
BRANCH  20  23
ATOM     23  C   UNL     1      46.564   7.571  12.867  0.00  0.00    +0.000 A 
ATOM     24  C   UNL     1      45.596   8.198  12.100  0.00  0.00    +0.000 A 
ATOM     25  S   UNL     1      44.443   7.120  11.450  0.00  0.00    +0.000 S 
ATOM     26  C   UNL     1      45.177   5.781  12.204  0.00  0.00    +0.000 A 
ATOM     27  N   UNL     1      44.667   4.534  12.084  0.00  0.00    +0.000 NA
ATOM     28  C   UNL     1      45.321   3.623  12.729  0.00  0.00    +0.000 A 
ATOM     29  N   UNL     1      46.446   3.850  13.479  0.00  0.00    +0.000 N 
ATOM     30  C   UNL     1      46.989   5.098  13.637  0.00  0.00    +0.000 A 
ATOM     31  O   UNL     1      48.001   5.274  14.321  0.00  0.00    +0.000 OA
ATOM     32  C   UNL     1      46.299   6.155  12.930  0.00  0.00    +0.000 A 
ATOM     33  H   UNL     1      46.912   3.095  13.958  0.00  0.00    +0.000 HD
ENDBRANCH  20  23
ENDBRANCH  18  19
ENDBRANCH   4  18
TORSDOF 7
ENDMDL
