MODEL 1
REMARK VINA RESULT:    -7.205      0.000      0.000
REMARK INTER + INTRA:         -13.522
REMARK INTER:                 -11.627
REMARK INTRA:                  -1.894
REMARK UNBOUND:                -1.894
REMARK  Name = 
REMARK  12 active torsions:
REMARK  status: ('A' for Active; 'I' for Inactive)
REMARK    1  A    between atoms: C_1  and  O_2
REMARK    2  A    between atoms: O_2  and  C_3
REMARK    3  A    between atoms: C_10  and  C_11
REMARK    4  A    between atoms: N_13  and  C_14
REMARK    5  A    between atoms: C_14  and  C_15
REMARK    6  A    between atoms: C_18  and  C_19
REMARK    7  A    between atoms: C_19  and  C_20
REMARK    8  A    between atoms: C_20  and  N_21
REMARK    9  A    between atoms: N_21  and  C_22
REMARK   10  A    between atoms: C_27  and  C_28
REMARK   11  A    between atoms: C_28  and  C_29
REMARK   12  A    between atoms: C_29  and  O_30
REMARK                            x       y       z     vdW  Elec       q    Type
REMARK                         _______ _______ _______ _____ _____    ______ ____
ROOT
ATOM      1  C   UNL     1      47.619   4.430  15.865  0.00  0.00    +0.000 A 
ATOM      2  C   UNL     1      48.071   5.749  15.775  0.00  0.00    +0.000 A 
ATOM      3  C   UNL     1      47.932   6.467  14.583  0.00  0.00    +0.000 A 
ATOM      4  C   UNL     1      47.330   5.894  13.453  0.00  0.00    +0.000 A 
ATOM      5  C   UNL     1      46.870   4.571  13.553  0.00  0.00    +0.000 A 
ATOM      6  C   UNL     1      47.007   3.851  14.748  0.00  0.00    +0.000 A 
ENDROOT
BRANCH   1   7
ATOM      7  C   UNL     1      47.732   3.685  17.170  0.00  0.00    +0.000 C 
BRANCH   7  10
ATOM      8  C   UNL     1      49.857   2.458  16.962  0.00  0.00    +0.000 C 
ATOM      9  O   UNL     1      49.372   1.696  16.125  0.00  0.00    +0.000 OA
ATOM     10  N   UNL     1      49.115   3.465  17.512  0.00  0.00    +0.000 N 
ATOM     11  H   UNL     1      49.526   4.079  18.202  0.00  0.00    +0.000 HD
BRANCH   8  19
ATOM     12  C   UNL     1      52.278   4.708  17.923  0.00  0.00    +0.000 A 
ATOM     13  N   UNL     1      53.364   5.349  18.399  0.00  0.00    +0.000 NA
ATOM     14  C   UNL     1      54.418   4.612  18.764  0.00  0.00    +0.000 A 
ATOM     15  N   UNL     1      54.531   3.288  18.699  0.00  0.00    +0.000 NA
ATOM     16  C   UNL     1      53.422   2.689  18.229  0.00  0.00    +0.000 A 
ATOM     17  S   UNL     1      53.390   0.999  18.069  0.00  0.00    +0.000 S 
ATOM     18  C   UNL     1      51.792   1.036  17.492  0.00  0.00    +0.000 A 
ATOM     19  C   UNL     1      51.250   2.314  17.418  0.00  0.00    +0.000 A 
ATOM     20  C   UNL     1      52.239   3.305  17.834  0.00  0.00    +0.000 A 
BRANCH  12  22
ATOM     21  C   UNL     1      51.467   6.400  16.521  0.00  0.00    +0.000 C 
ATOM     22  O   UNL     1      51.184   5.467  17.561  0.00  0.00    +0.000 OA
ENDBRANCH  12  22
ENDBRANCH   8  19
ENDBRANCH   7  10
ENDBRANCH   1   7
BRANCH   4  23
ATOM     23  C   UNL     1      47.152   6.634  12.137  0.00  0.00    +0.000 C 
BRANCH  23  24
ATOM     24  C   UNL     1      45.853   7.439  12.034  0.00  0.00    +0.000 C 
BRANCH  24  25
ATOM     25  N   UNL     1      44.947   6.933  11.000  0.00  0.00    +0.000 N 
ATOM     26  H   UNL     1      44.148   7.549  10.854  0.00  0.00    +0.000 HD
BRANCH  25  27
ATOM     27  C   UNL     1      44.489   5.603  11.146  0.00  0.00    +0.000 A 
ATOM     28  C   UNL     1      43.750   5.181  12.267  0.00  0.00    +0.000 A 
ATOM     29  C   UNL     1      43.251   3.882  12.378  0.00  0.00    +0.000 A 
ATOM     30  C   UNL     1      43.506   2.960  11.377  0.00  0.00    +0.000 A 
ATOM     31  C   UNL     1      44.300   3.328  10.294  0.00  0.00    +0.000 A 
ATOM     32  C   UNL     1      44.827   4.632  10.178  0.00  0.00    +0.000 A 
BRANCH  32  33
ATOM     33  C   UNL     1      45.735   4.918   8.994  0.00  0.00    +0.000 C 
BRANCH  33  34
ATOM     34  C   UNL     1      45.791   3.816   7.930  0.00  0.00    +0.000 C 
BRANCH  34  35
ATOM     35  O   UNL     1      46.652   4.169   6.853  0.00  0.00    +0.000 OA
ATOM     36  H   UNL     1      46.872   5.111   6.981  0.00  0.00    +0.000 HD
ENDBRANCH  34  35
ENDBRANCH  33  34
ENDBRANCH  32  33
ENDBRANCH  25  27
ENDBRANCH  24  25
ENDBRANCH  23  24
ENDBRANCH   4  23
TORSDOF 11
ENDMDL
MODEL 2
REMARK VINA RESULT:    -6.862      1.842      3.511
REMARK INTER + INTRA:         -12.968
REMARK INTER:                 -11.583
REMARK INTRA:                  -1.385
REMARK UNBOUND:                -1.894
REMARK  Name = 
REMARK  12 active torsions:
REMARK  status: ('A' for Active; 'I' for Inactive)
REMARK    1  A    between atoms: C_1  and  O_2
REMARK    2  A    between atoms: O_2  and  C_3
REMARK    3  A    between atoms: C_10  and  C_11
REMARK    4  A    between atoms: N_13  and  C_14
REMARK    5  A    between atoms: C_14  and  C_15
REMARK    6  A    between atoms: C_18  and  C_19
REMARK    7  A    between atoms: C_19  and  C_20
REMARK    8  A    between atoms: C_20  and  N_21
REMARK    9  A    between atoms: N_21  and  C_22
REMARK   10  A    between atoms: C_27  and  C_28
REMARK   11  A    between atoms: C_28  and  C_29
REMARK   12  A    between atoms: C_29  and  O_30
REMARK                            x       y       z     vdW  Elec       q    Type
REMARK                         _______ _______ _______ _____ _____    ______ ____
ROOT
ATOM      1  C   UNL     1      49.247   7.056  15.136  0.00  0.00    +0.000 A 
ATOM      2  C   UNL     1      48.456   5.952  15.470  0.00  0.00    +0.000 A 
ATOM      3  C   UNL     1      47.417   5.544  14.629  0.00  0.00    +0.000 A 
ATOM      4  C   UNL     1      47.143   6.215  13.428  0.00  0.00    +0.000 A 
ATOM      5  C   UNL     1      47.947   7.316  13.094  0.00  0.00    +0.000 A 
ATOM      6  C   UNL     1      48.991   7.727  13.935  0.00  0.00    +0.000 A 
ENDROOT
BRANCH   1   7
ATOM      7  C   UNL     1      50.393   7.456  16.028  0.00  0.00    +0.000 C 
BRANCH   7  10
ATOM      8  C   UNL     1      51.413   6.084  17.799  0.00  0.00    +0.000 C 
ATOM      9  O   UNL     1      51.059   6.883  18.666  0.00  0.00    +0.000 OA
ATOM     10  N   UNL     1      51.114   6.294  16.483  0.00  0.00    +0.000 N 
ATOM     11  H   UNL     1      51.417   5.632  15.781  0.00  0.00    +0.000 HD
BRANCH   8  19
ATOM     12  C   UNL     1      50.851   2.717  17.358  0.00  0.00    +0.000 A 
ATOM     13  N   UNL     1      50.916   1.374  17.256  0.00  0.00    +0.000 NA
ATOM     14  C   UNL     1      52.010   0.762  17.717  0.00  0.00    +0.000 A 
ATOM     15  N   UNL     1      53.065   1.333  18.295  0.00  0.00    +0.000 NA
ATOM     16  C   UNL     1      52.963   2.671  18.366  0.00  0.00    +0.000 A 
ATOM     17  S   UNL     1      54.215   3.567  19.083  0.00  0.00    +0.000 S 
ATOM     18  C   UNL     1      53.404   5.030  18.785  0.00  0.00    +0.000 A 
ATOM     19  C   UNL     1      52.184   4.876  18.136  0.00  0.00    +0.000 A 
ATOM     20  C   UNL     1      51.910   3.458  17.911  0.00  0.00    +0.000 A 
BRANCH  12  22
ATOM     21  C   UNL     1      48.620   2.473  16.688  0.00  0.00    +0.000 C 
ATOM     22  O   UNL     1      49.728   3.351  16.867  0.00  0.00    +0.000 OA
ENDBRANCH  12  22
ENDBRANCH   8  19
ENDBRANCH   7  10
ENDBRANCH   1   7
BRANCH   4  23
ATOM     23  C   UNL     1      46.028   5.806  12.479  0.00  0.00    +0.000 C 
BRANCH  23  24
ATOM     24  C   UNL     1      46.243   6.240  11.025  0.00  0.00    +0.000 C 
BRANCH  24  25
ATOM     25  N   UNL     1      45.120   5.891  10.153  0.00  0.00    +0.000 N 
ATOM     26  H   UNL     1      44.223   5.971  10.630  0.00  0.00    +0.000 HD
BRANCH  25  27
ATOM     27  C   UNL     1      45.185   4.643   9.492  0.00  0.00    +0.000 A 
ATOM     28  C   UNL     1      45.970   4.442   8.340  0.00  0.00    +0.000 A 
ATOM     29  C   UNL     1      46.076   3.193   7.726  0.00  0.00    +0.000 A 
ATOM     30  C   UNL     1      45.373   2.114   8.236  0.00  0.00    +0.000 A 
ATOM     31  C   UNL     1      44.529   2.301   9.327  0.00  0.00    +0.000 A 
ATOM     32  C   UNL     1      44.397   3.563   9.946  0.00  0.00    +0.000 A 
BRANCH  32  33
ATOM     33  C   UNL     1      43.403   3.682  11.089  0.00  0.00    +0.000 C 
BRANCH  33  34
ATOM     34  C   UNL     1      43.619   2.706  12.251  0.00  0.00    +0.000 C 
BRANCH  34  35
ATOM     35  O   UNL     1      44.989   2.641  12.634  0.00  0.00    +0.000 OA
ATOM     36  H   UNL     1      44.993   2.540  13.604  0.00  0.00    +0.000 HD
ENDBRANCH  34  35
ENDBRANCH  33  34
ENDBRANCH  32  33
ENDBRANCH  25  27
ENDBRANCH  24  25
ENDBRANCH  23  24
ENDBRANCH   4  23
TORSDOF 11
ENDMDL
MODEL 3
REMARK VINA RESULT:    -6.860      1.523      2.384
REMARK INTER + INTRA:         -12.965
REMARK INTER:                 -11.323
REMARK INTRA:                  -1.642
REMARK UNBOUND:                -1.894
REMARK  Name = 
REMARK  12 active torsions:
REMARK  status: ('A' for Active; 'I' for Inactive)
REMARK    1  A    between atoms: C_1  and  O_2
REMARK    2  A    between atoms: O_2  and  C_3
REMARK    3  A    between atoms: C_10  and  C_11
REMARK    4  A    between atoms: N_13  and  C_14
REMARK    5  A    between atoms: C_14  and  C_15
REMARK    6  A    between atoms: C_18  and  C_19
REMARK    7  A    between atoms: C_19  and  C_20
REMARK    8  A    between atoms: C_20  and  N_21
REMARK    9  A    between atoms: N_21  and  C_22
REMARK   10  A    between atoms: C_27  and  C_28
REMARK   11  A    between atoms: C_28  and  C_29
REMARK   12  A    between atoms: C_29  and  O_30
REMARK                            x       y       z     vdW  Elec       q    Type
REMARK                         _______ _______ _______ _____ _____    ______ ____
ROOT
ATOM      1  C   UNL     1      47.891   4.211  16.574  0.00  0.00    +0.000 A 
ATOM      2  C   UNL     1      47.148   3.817  15.457  0.00  0.00    +0.000 A 
ATOM      3  C   UNL     1      46.985   4.683  14.372  0.00  0.00    +0.000 A 
ATOM      4  C   UNL     1      47.566   5.960  14.365  0.00  0.00    +0.000 A 
ATOM      5  C   UNL     1      48.319   6.345  15.486  0.00  0.00    +0.000 A 
ATOM      6  C   UNL     1      48.485   5.478  16.574  0.00  0.00    +0.000 A 
ENDROOT
BRANCH   1   7
ATOM      7  C   UNL     1      48.098   3.249  17.715  0.00  0.00    +0.000 C 
BRANCH   7  10
ATOM      8  C   UNL     1      50.280   2.251  17.167  0.00  0.00    +0.000 C 
ATOM      9  O   UNL     1      49.809   1.680  16.183  0.00  0.00    +0.000 OA
ATOM     10  N   UNL     1      49.503   3.045  17.961  0.00  0.00    +0.000 N 
ATOM     11  H   UNL     1      49.904   3.503  18.769  0.00  0.00    +0.000 HD
BRANCH   8  19
ATOM     12  C   UNL     1      52.775   4.478  17.983  0.00  0.00    +0.000 A 
ATOM     13  N   UNL     1      53.893   5.109  18.394  0.00  0.00    +0.000 NA
ATOM     14  C   UNL     1      54.958   4.362  18.698  0.00  0.00    +0.000 A 
ATOM     15  N   UNL     1      55.055   3.037  18.628  0.00  0.00    +0.000 NA
ATOM     16  C   UNL     1      53.916   2.449  18.225  0.00  0.00    +0.000 A 
ATOM     17  S   UNL     1      53.858   0.759  18.069  0.00  0.00    +0.000 S 
ATOM     18  C   UNL     1      52.229   0.811  17.586  0.00  0.00    +0.000 A 
ATOM     19  C   UNL     1      51.696   2.093  17.541  0.00  0.00    +0.000 A 
ATOM     20  C   UNL     1      52.717   3.076  17.898  0.00  0.00    +0.000 A 
BRANCH  12  22
ATOM     21  C   UNL     1      51.900   6.179  16.630  0.00  0.00    +0.000 C 
ATOM     22  O   UNL     1      51.669   5.248  17.684  0.00  0.00    +0.000 OA
ENDBRANCH  12  22
ENDBRANCH   8  19
ENDBRANCH   7  10
ENDBRANCH   1   7
BRANCH   4  23
ATOM     23  C   UNL     1      47.422   6.936  13.208  0.00  0.00    +0.000 C 
BRANCH  23  24
ATOM     24  C   UNL     1      47.189   6.273  11.846  0.00  0.00    +0.000 C 
BRANCH  24  25
ATOM     25  N   UNL     1      45.770   6.172  11.496  0.00  0.00    +0.000 N 
ATOM     26  H   UNL     1      45.171   6.148  12.320  0.00  0.00    +0.000 HD
BRANCH  25  27
ATOM     27  C   UNL     1      45.400   5.125  10.621  0.00  0.00    +0.000 A 
ATOM     28  C   UNL     1      45.657   5.175   9.237  0.00  0.00    +0.000 A 
ATOM     29  C   UNL     1      45.341   4.113   8.387  0.00  0.00    +0.000 A 
ATOM     30  C   UNL     1      44.730   2.981   8.899  0.00  0.00    +0.000 A 
ATOM     31  C   UNL     1      44.393   2.936  10.249  0.00  0.00    +0.000 A 
ATOM     32  C   UNL     1      44.689   4.010  11.117  0.00  0.00    +0.000 A 
BRANCH  32  33
ATOM     33  C   UNL     1      44.224   3.895  12.558  0.00  0.00    +0.000 C 
BRANCH  33  34
ATOM     34  C   UNL     1      42.978   4.714  12.913  0.00  0.00    +0.000 C 
BRANCH  34  35
ATOM     35  O   UNL     1      43.313   6.048  13.280  0.00  0.00    +0.000 OA
ATOM     36  H   UNL     1      42.512   6.423  13.692  0.00  0.00    +0.000 HD
ENDBRANCH  34  35
ENDBRANCH  33  34
ENDBRANCH  32  33
ENDBRANCH  25  27
ENDBRANCH  24  25
ENDBRANCH  23  24
ENDBRANCH   4  23
TORSDOF 11
ENDMDL
MODEL 4
REMARK VINA RESULT:    -6.560      3.140      8.807
REMARK INTER + INTRA:         -12.481
REMARK INTER:                 -10.741
REMARK INTRA:                  -1.740
REMARK UNBOUND:                -1.894
REMARK  Name = 
REMARK  12 active torsions:
REMARK  status: ('A' for Active; 'I' for Inactive)
REMARK    1  A    between atoms: C_1  and  O_2
REMARK    2  A    between atoms: O_2  and  C_3
REMARK    3  A    between atoms: C_10  and  C_11
REMARK    4  A    between atoms: N_13  and  C_14
REMARK    5  A    between atoms: C_14  and  C_15
REMARK    6  A    between atoms: C_18  and  C_19
REMARK    7  A    between atoms: C_19  and  C_20
REMARK    8  A    between atoms: C_20  and  N_21
REMARK    9  A    between atoms: N_21  and  C_22
REMARK   10  A    between atoms: C_27  and  C_28
REMARK   11  A    between atoms: C_28  and  C_29
REMARK   12  A    between atoms: C_29  and  O_30
REMARK                            x       y       z     vdW  Elec       q    Type
REMARK                         _______ _______ _______ _____ _____    ______ ____
ROOT
ATOM      1  C   UNL     1      48.328   7.963  13.183  0.00  0.00    +0.000 A 
ATOM      2  C   UNL     1      49.500   7.260  13.478  0.00  0.00    +0.000 A 
ATOM      3  C   UNL     1      50.088   7.358  14.743  0.00  0.00    +0.000 A 
ATOM      4  C   UNL     1      49.519   8.151  15.751  0.00  0.00    +0.000 A 
ATOM      5  C   UNL     1      48.337   8.847  15.451  0.00  0.00    +0.000 A 
ATOM      6  C   UNL     1      47.746   8.748  14.184  0.00  0.00    +0.000 A 
ENDROOT
BRANCH   1   7
ATOM      7  C   UNL     1      47.681   7.810  11.832  0.00  0.00    +0.000 C 
BRANCH   7  10
ATOM      8  C   UNL     1      45.585   6.587  11.410  0.00  0.00    +0.000 C 
ATOM      9  O   UNL     1      45.005   7.626  11.096  0.00  0.00    +0.000 OA
ATOM     10  N   UNL     1      46.902   6.598  11.774  0.00  0.00    +0.000 N 
ATOM     11  H   UNL     1      47.364   5.737  12.035  0.00  0.00    +0.000 HD
BRANCH   8  19
ATOM     12  C   UNL     1      45.316   4.023   9.129  0.00  0.00    +0.000 A 
ATOM     13  N   UNL     1      45.101   2.869   8.466  0.00  0.00    +0.000 NA
ATOM     14  C   UNL     1      44.378   1.922   9.071  0.00  0.00    +0.000 A 
ATOM     15  N   UNL     1      43.818   1.989  10.276  0.00  0.00    +0.000 NA
ATOM     16  C   UNL     1      44.066   3.151  10.906  0.00  0.00    +0.000 A 
ATOM     17  S   UNL     1      43.421   3.416  12.454  0.00  0.00    +0.000 S 
ATOM     18  C   UNL     1      44.143   4.951  12.545  0.00  0.00    +0.000 A 
ATOM     19  C   UNL     1      44.888   5.290  11.422  0.00  0.00    +0.000 A 
ATOM     20  C   UNL     1      44.817   4.220  10.429  0.00  0.00    +0.000 A 
BRANCH  12  22
ATOM     21  C   UNL     1      46.855   4.494   7.428  0.00  0.00    +0.000 C 
ATOM     22  O   UNL     1      46.076   4.994   8.512  0.00  0.00    +0.000 OA
ENDBRANCH  12  22
ENDBRANCH   8  19
ENDBRANCH   7  10
ENDBRANCH   1   7
BRANCH   4  23
ATOM     23  C   UNL     1      50.117   8.287  17.142  0.00  0.00    +0.000 C 
BRANCH  23  24
ATOM     24  C   UNL     1      49.678   7.199  18.129  0.00  0.00    +0.000 C 
BRANCH  24  25
ATOM     25  N   UNL     1      48.811   6.189  17.518  0.00  0.00    +0.000 N 
ATOM     26  H   UNL     1      47.896   6.147  17.963  0.00  0.00    +0.000 HD
BRANCH  25  27
ATOM     27  C   UNL     1      49.334   4.880  17.406  0.00  0.00    +0.000 A 
ATOM     28  C   UNL     1      50.665   4.570  17.745  0.00  0.00    +0.000 A 
ATOM     29  C   UNL     1      51.159   3.266  17.687  0.00  0.00    +0.000 A 
ATOM     30  C   UNL     1      50.336   2.238  17.259  0.00  0.00    +0.000 A 
ATOM     31  C   UNL     1      49.039   2.527  16.843  0.00  0.00    +0.000 A 
ATOM     32  C   UNL     1      48.532   3.844  16.878  0.00  0.00    +0.000 A 
BRANCH  32  33
ATOM     33  C   UNL     1      47.128   4.069  16.343  0.00  0.00    +0.000 C 
BRANCH  33  34
ATOM     34  C   UNL     1      47.047   4.494  14.873  0.00  0.00    +0.000 C 
BRANCH  34  35
ATOM     35  O   UNL     1      46.827   3.380  14.015  0.00  0.00    +0.000 OA
ATOM     36  H   UNL     1      47.199   3.629  13.149  0.00  0.00    +0.000 HD
ENDBRANCH  34  35
ENDBRANCH  33  34
ENDBRANCH  32  33
ENDBRANCH  25  27
ENDBRANCH  24  25
ENDBRANCH  23  24
ENDBRANCH   4  23
TORSDOF 11
ENDMDL
MODEL 5
REMARK VINA RESULT:    -6.497      3.329      8.883
REMARK INTER + INTRA:         -12.379
REMARK INTER:                 -10.551
REMARK INTRA:                  -1.828
REMARK UNBOUND:                -1.894
REMARK  Name = 
REMARK  12 active torsions:
REMARK  status: ('A' for Active; 'I' for Inactive)
REMARK    1  A    between atoms: C_1  and  O_2
REMARK    2  A    between atoms: O_2  and  C_3
REMARK    3  A    between atoms: C_10  and  C_11
REMARK    4  A    between atoms: N_13  and  C_14
REMARK    5  A    between atoms: C_14  and  C_15
REMARK    6  A    between atoms: C_18  and  C_19
REMARK    7  A    between atoms: C_19  and  C_20
REMARK    8  A    between atoms: C_20  and  N_21
REMARK    9  A    between atoms: N_21  and  C_22
REMARK   10  A    between atoms: C_27  and  C_28
REMARK   11  A    between atoms: C_28  and  C_29
REMARK   12  A    between atoms: C_29  and  O_30
REMARK                            x       y       z     vdW  Elec       q    Type
REMARK                         _______ _______ _______ _____ _____    ______ ____
ROOT
ATOM      1  C   UNL     1      49.003   7.783  13.180  0.00  0.00    +0.000 A 
ATOM      2  C   UNL     1      48.372   7.064  14.199  0.00  0.00    +0.000 A 
ATOM      3  C   UNL     1      49.070   6.715  15.359  0.00  0.00    +0.000 A 
ATOM      4  C   UNL     1      50.412   7.081  15.540  0.00  0.00    +0.000 A 
ATOM      5  C   UNL     1      51.037   7.811  14.517  0.00  0.00    +0.000 A 
ATOM      6  C   UNL     1      50.338   8.163  13.355  0.00  0.00    +0.000 A 
ENDROOT
BRANCH   1   7
ATOM      7  C   UNL     1      48.225   8.193  11.957  0.00  0.00    +0.000 C 
BRANCH   7  10
ATOM      8  C   UNL     1      46.208   6.951  11.287  0.00  0.00    +0.000 C 
ATOM      9  O   UNL     1      45.477   7.847  11.709  0.00  0.00    +0.000 OA
ATOM     10  N   UNL     1      47.568   7.055  11.366  0.00  0.00    +0.000 N 
ATOM     11  H   UNL     1      48.155   6.308  11.020  0.00  0.00    +0.000 HD
BRANCH   8  19
ATOM     12  C   UNL     1      44.447   4.284  12.568  0.00  0.00    +0.000 A 
ATOM     13  N   UNL     1      43.708   3.178  12.785  0.00  0.00    +0.000 NA
ATOM     14  C   UNL     1      43.430   2.394  11.740  0.00  0.00    +0.000 A 
ATOM     15  N   UNL     1      43.817   2.571  10.479  0.00  0.00    +0.000 NA
ATOM     16  C   UNL     1      44.541   3.690  10.305  0.00  0.00    +0.000 A 
ATOM     17  S   UNL     1      45.130   4.073   8.759  0.00  0.00    +0.000 S 
ATOM     18  C   UNL     1      45.848   5.502   9.333  0.00  0.00    +0.000 A 
ATOM     19  C   UNL     1      45.654   5.723  10.692  0.00  0.00    +0.000 A 
ATOM     20  C   UNL     1      44.894   4.621  11.277  0.00  0.00    +0.000 A 
BRANCH  12  22
ATOM     21  C   UNL     1      45.980   4.828  14.253  0.00  0.00    +0.000 C 
ATOM     22  O   UNL     1      44.721   5.103  13.644  0.00  0.00    +0.000 OA
ENDBRANCH  12  22
ENDBRANCH   8  19
ENDBRANCH   7  10
ENDBRANCH   1   7
BRANCH   4  23
ATOM     23  C   UNL     1      51.212   6.729  16.784  0.00  0.00    +0.000 C 
BRANCH  23  24
ATOM     24  C   UNL     1      50.434   6.865  18.097  0.00  0.00    +0.000 C 
BRANCH  24  25
ATOM     25  N   UNL     1      50.252   5.587  18.789  0.00  0.00    +0.000 N 
ATOM     26  H   UNL     1      51.140   5.128  18.989  0.00  0.00    +0.000 HD
BRANCH  25  27
ATOM     27  C   UNL     1      49.371   4.655  18.192  0.00  0.00    +0.000 A 
ATOM     28  C   UNL     1      47.975   4.840  18.181  0.00  0.00    +0.000 A 
ATOM     29  C   UNL     1      47.116   3.946  17.540  0.00  0.00    +0.000 A 
ATOM     30  C   UNL     1      47.633   2.824  16.915  0.00  0.00    +0.000 A 
ATOM     31  C   UNL     1      49.001   2.575  16.977  0.00  0.00    +0.000 A 
ATOM     32  C   UNL     1      49.880   3.459  17.638  0.00  0.00    +0.000 A 
BRANCH  32  33
ATOM     33  C   UNL     1      51.346   3.069  17.708  0.00  0.00    +0.000 C 
BRANCH  33  34
ATOM     34  C   UNL     1      51.634   1.572  17.545  0.00  0.00    +0.000 C 
BRANCH  34  35
ATOM     35  O   UNL     1      52.714   1.152  18.372  0.00  0.00    +0.000 OA
ATOM     36  H   UNL     1      52.919   1.909  18.953  0.00  0.00    +0.000 HD
ENDBRANCH  34  35
ENDBRANCH  33  34
ENDBRANCH  32  33
ENDBRANCH  25  27
ENDBRANCH  24  25
ENDBRANCH  23  24
ENDBRANCH   4  23
TORSDOF 11
ENDMDL
MODEL 6
REMARK VINA RESULT:    -6.337      3.076      8.743
REMARK INTER + INTRA:         -12.121
REMARK INTER:                  -9.534
REMARK INTRA:                  -2.588
REMARK UNBOUND:                -1.894
REMARK  Name = 
REMARK  12 active torsions:
REMARK  status: ('A' for Active; 'I' for Inactive)
REMARK    1  A    between atoms: C_1  and  O_2
REMARK    2  A    between atoms: O_2  and  C_3
REMARK    3  A    between atoms: C_10  and  C_11
REMARK    4  A    between atoms: N_13  and  C_14
REMARK    5  A    between atoms: C_14  and  C_15
REMARK    6  A    between atoms: C_18  and  C_19
REMARK    7  A    between atoms: C_19  and  C_20
REMARK    8  A    between atoms: C_20  and  N_21
REMARK    9  A    between atoms: N_21  and  C_22
REMARK   10  A    between atoms: C_27  and  C_28
REMARK   11  A    between atoms: C_28  and  C_29
REMARK   12  A    between atoms: C_29  and  O_30
REMARK                            x       y       z     vdW  Elec       q    Type
REMARK                         _______ _______ _______ _____ _____    ______ ____
ROOT
ATOM      1  C   UNL     1      49.098   7.876  15.870  0.00  0.00    +0.000 A 
ATOM      2  C   UNL     1      48.571   8.215  17.120  0.00  0.00    +0.000 A 
ATOM      3  C   UNL     1      49.223   7.827  18.294  0.00  0.00    +0.000 A 
ATOM      4  C   UNL     1      50.422   7.099  18.256  0.00  0.00    +0.000 A 
ATOM      5  C   UNL     1      50.950   6.770  16.998  0.00  0.00    +0.000 A 
ATOM      6  C   UNL     1      50.299   7.161  15.819  0.00  0.00    +0.000 A 
ENDROOT
BRANCH   1   7
ATOM      7  C   UNL     1      48.410   8.342  14.614  0.00  0.00    +0.000 C 
BRANCH   7  10
ATOM      8  C   UNL     1      47.699   6.369  13.324  0.00  0.00    +0.000 C 
ATOM      9  O   UNL     1      48.834   6.215  12.872  0.00  0.00    +0.000 OA
ATOM     10  N   UNL     1      47.418   7.386  14.192  0.00  0.00    +0.000 N 
ATOM     11  H   UNL     1      46.479   7.503  14.550  0.00  0.00    +0.000 HD
BRANCH   8  19
ATOM     12  C   UNL     1      44.559   6.916  12.023  0.00  0.00    +0.000 A 
ATOM     13  N   UNL     1      43.335   6.839  11.465  0.00  0.00    +0.000 NA
ATOM     14  C   UNL     1      42.807   5.627  11.274  0.00  0.00    +0.000 A 
ATOM     15  N   UNL     1      43.353   4.456  11.591  0.00  0.00    +0.000 NA
ATOM     16  C   UNL     1      44.577   4.578  12.134  0.00  0.00    +0.000 A 
ATOM     17  S   UNL     1      45.423   3.185  12.609  0.00  0.00    +0.000 S 
ATOM     18  C   UNL     1      46.753   4.108  13.124  0.00  0.00    +0.000 A 
ATOM     19  C   UNL     1      46.592   5.477  12.942  0.00  0.00    +0.000 A 
ATOM     20  C   UNL     1      45.275   5.758  12.373  0.00  0.00    +0.000 A 
BRANCH  12  22
ATOM     21  C   UNL     1      44.587   9.148  11.313  0.00  0.00    +0.000 C 
ATOM     22  O   UNL     1      45.112   8.167  12.204  0.00  0.00    +0.000 OA
ENDBRANCH  12  22
ENDBRANCH   8  19
ENDBRANCH   7  10
ENDBRANCH   1   7
BRANCH   4  23
ATOM     23  C   UNL     1      51.170   6.658  19.503  0.00  0.00    +0.000 C 
BRANCH  23  24
ATOM     24  C   UNL     1      50.379   5.715  20.416  0.00  0.00    +0.000 C 
BRANCH  24  25
ATOM     25  N   UNL     1      50.421   4.321  19.970  0.00  0.00    +0.000 N 
ATOM     26  H   UNL     1      51.371   4.005  19.782  0.00  0.00    +0.000 HD
BRANCH  25  27
ATOM     27  C   UNL     1      49.590   3.971  18.880  0.00  0.00    +0.000 A 
ATOM     28  C   UNL     1      48.213   4.264  18.861  0.00  0.00    +0.000 A 
ATOM     29  C   UNL     1      47.410   3.968  17.758  0.00  0.00    +0.000 A 
ATOM     30  C   UNL     1      47.963   3.343  16.652  0.00  0.00    +0.000 A 
ATOM     31  C   UNL     1      49.304   2.973  16.675  0.00  0.00    +0.000 A 
ATOM     32  C   UNL     1      50.124   3.247  17.791  0.00  0.00    +0.000 A 
BRANCH  32  33
ATOM     33  C   UNL     1      51.557   2.746  17.748  0.00  0.00    +0.000 C 
BRANCH  33  34
ATOM     34  C   UNL     1      51.735   1.311  17.241  0.00  0.00    +0.000 C 
BRANCH  34  35
ATOM     35  O   UNL     1      51.242   0.358  18.176  0.00  0.00    +0.000 OA
ATOM     36  H   UNL     1      51.753   0.495  18.995  0.00  0.00    +0.000 HD
ENDBRANCH  34  35
ENDBRANCH  33  34
ENDBRANCH  32  33
ENDBRANCH  25  27
ENDBRANCH  24  25
ENDBRANCH  23  24
ENDBRANCH   4  23
TORSDOF 11
ENDMDL
MODEL 7
REMARK VINA RESULT:    -6.274      3.583      8.982
REMARK INTER + INTRA:         -12.020
REMARK INTER:                  -9.578
REMARK INTRA:                  -2.442
REMARK UNBOUND:                -1.894
REMARK  Name = 
REMARK  12 active torsions:
REMARK  status: ('A' for Active; 'I' for Inactive)
REMARK    1  A    between atoms: C_1  and  O_2
REMARK    2  A    between atoms: O_2  and  C_3
REMARK    3  A    between atoms: C_10  and  C_11
REMARK    4  A    between atoms: N_13  and  C_14
REMARK    5  A    between atoms: C_14  and  C_15
REMARK    6  A    between atoms: C_18  and  C_19
REMARK    7  A    between atoms: C_19  and  C_20
REMARK    8  A    between atoms: C_20  and  N_21
REMARK    9  A    between atoms: N_21  and  C_22
REMARK   10  A    between atoms: C_27  and  C_28
REMARK   11  A    between atoms: C_28  and  C_29
REMARK   12  A    between atoms: C_29  and  O_30
REMARK                            x       y       z     vdW  Elec       q    Type
REMARK                         _______ _______ _______ _____ _____    ______ ____
ROOT
ATOM      1  C   UNL     1      48.113   4.203  17.754  0.00  0.00    +0.000 A 
ATOM      2  C   UNL     1      47.476   5.103  18.613  0.00  0.00    +0.000 A 
ATOM      3  C   UNL     1      48.200   5.765  19.609  0.00  0.00    +0.000 A 
ATOM      4  C   UNL     1      49.578   5.558  19.770  0.00  0.00    +0.000 A 
ATOM      5  C   UNL     1      50.213   4.660  18.898  0.00  0.00    +0.000 A 
ATOM      6  C   UNL     1      49.490   3.996  17.897  0.00  0.00    +0.000 A 
ENDROOT
BRANCH   1   7
ATOM      7  C   UNL     1      47.331   3.532  16.655  0.00  0.00    +0.000 C 
BRANCH   7  10
ATOM      8  C   UNL     1      46.853   4.273  14.356  0.00  0.00    +0.000 C 
ATOM      9  O   UNL     1      47.251   3.204  13.894  0.00  0.00    +0.000 OA
ATOM     10  N   UNL     1      46.854   4.503  15.703  0.00  0.00    +0.000 N 
ATOM     11  H   UNL     1      46.528   5.388  16.067  0.00  0.00    +0.000 HD
BRANCH   8  19
ATOM     12  C   UNL     1      43.938   4.778  12.597  0.00  0.00    +0.000 A 
ATOM     13  N   UNL     1      42.898   5.251  11.882  0.00  0.00    +0.000 NA
ATOM     14  C   UNL     1      43.021   6.455  11.317  0.00  0.00    +0.000 A 
ATOM     15  N   UNL     1      44.081   7.258  11.364  0.00  0.00    +0.000 NA
ATOM     16  C   UNL     1      45.089   6.753  12.096  0.00  0.00    +0.000 A 
ATOM     17  S   UNL     1      46.529   7.639  12.259  0.00  0.00    +0.000 S 
ATOM     18  C   UNL     1      47.212   6.439  13.249  0.00  0.00    +0.000 A 
ATOM     19  C   UNL     1      46.372   5.356  13.483  0.00  0.00    +0.000 A 
ATOM     20  C   UNL     1      45.111   5.535  12.768  0.00  0.00    +0.000 A 
BRANCH  12  22
ATOM     21  C   UNL     1      43.549   2.492  12.265  0.00  0.00    +0.000 C 
ATOM     22  O   UNL     1      43.804   3.542  13.195  0.00  0.00    +0.000 OA
ENDBRANCH  12  22
ENDBRANCH   8  19
ENDBRANCH   7  10
ENDBRANCH   1   7
BRANCH   4  23
ATOM     23  C   UNL     1      50.408   6.258  20.834  0.00  0.00    +0.000 C 
BRANCH  23  24
ATOM     24  C   UNL     1      51.449   7.237  20.282  0.00  0.00    +0.000 C 
BRANCH  24  25
ATOM     25  N   UNL     1      50.860   8.288  19.449  0.00  0.00    +0.000 N 
ATOM     26  H   UNL     1      49.980   8.634  19.830  0.00  0.00    +0.000 HD
BRANCH  25  27
ATOM     27  C   UNL     1      50.689   7.996  18.076  0.00  0.00    +0.000 A 
ATOM     28  C   UNL     1      51.715   7.430  17.295  0.00  0.00    +0.000 A 
ATOM     29  C   UNL     1      51.522   7.092  15.954  0.00  0.00    +0.000 A 
ATOM     30  C   UNL     1      50.300   7.339  15.352  0.00  0.00    +0.000 A 
ATOM     31  C   UNL     1      49.294   7.969  16.078  0.00  0.00    +0.000 A 
ATOM     32  C   UNL     1      49.481   8.335  17.429  0.00  0.00    +0.000 A 
BRANCH  32  33
ATOM     33  C   UNL     1      48.348   9.076  18.117  0.00  0.00    +0.000 C 
BRANCH  33  34
ATOM     34  C   UNL     1      48.483  10.602  18.143  0.00  0.00    +0.000 C 
BRANCH  34  35
ATOM     35  O   UNL     1      47.542  11.228  17.277  0.00  0.00    +0.000 OA
ATOM     36  H   UNL     1      47.797  12.168  17.237  0.00  0.00    +0.000 HD
ENDBRANCH  34  35
ENDBRANCH  33  34
ENDBRANCH  32  33
ENDBRANCH  25  27
ENDBRANCH  24  25
ENDBRANCH  23  24
ENDBRANCH   4  23
TORSDOF 11
ENDMDL
MODEL 8
REMARK VINA RESULT:    -6.020      3.495      9.085
REMARK INTER + INTRA:         -11.610
REMARK INTER:                  -9.729
REMARK INTRA:                  -1.880
REMARK UNBOUND:                -1.894
REMARK  Name = 
REMARK  12 active torsions:
REMARK  status: ('A' for Active; 'I' for Inactive)
REMARK    1  A    between atoms: C_1  and  O_2
REMARK    2  A    between atoms: O_2  and  C_3
REMARK    3  A    between atoms: C_10  and  C_11
REMARK    4  A    between atoms: N_13  and  C_14
REMARK    5  A    between atoms: C_14  and  C_15
REMARK    6  A    between atoms: C_18  and  C_19
REMARK    7  A    between atoms: C_19  and  C_20
REMARK    8  A    between atoms: C_20  and  N_21
REMARK    9  A    between atoms: N_21  and  C_22
REMARK   10  A    between atoms: C_27  and  C_28
REMARK   11  A    between atoms: C_28  and  C_29
REMARK   12  A    between atoms: C_29  and  O_30
REMARK                            x       y       z     vdW  Elec       q    Type
REMARK                         _______ _______ _______ _____ _____    ______ ____
ROOT
ATOM      1  C   UNL     1      48.569   8.822  16.748  0.00  0.00    +0.000 A 
ATOM      2  C   UNL     1      49.601   7.881  16.812  0.00  0.00    +0.000 A 
ATOM      3  C   UNL     1      49.858   7.189  17.999  0.00  0.00    +0.000 A 
ATOM      4  C   UNL     1      49.089   7.408  19.152  0.00  0.00    +0.000 A 
ATOM      5  C   UNL     1      48.049   8.348  19.078  0.00  0.00    +0.000 A 
ATOM      6  C   UNL     1      47.788   9.042  17.888  0.00  0.00    +0.000 A 
ENDROOT
BRANCH   1   7
ATOM      7  C   UNL     1      48.274   9.526  15.449  0.00  0.00    +0.000 C 
BRANCH   7  10
ATOM      8  C   UNL     1      47.636   7.917  13.698  0.00  0.00    +0.000 C 
ATOM      9  O   UNL     1      48.815   7.697  13.425  0.00  0.00    +0.000 OA
ATOM     10  N   UNL     1      47.293   8.796  14.687  0.00  0.00    +0.000 N 
ATOM     11  H   UNL     1      46.318   8.969  14.896  0.00  0.00    +0.000 HD
BRANCH   8  19
ATOM     12  C   UNL     1      46.538   4.659  13.513  0.00  0.00    +0.000 A 
ATOM     13  N   UNL     1      45.872   3.505  13.312  0.00  0.00    +0.000 NA
ATOM     14  C   UNL     1      44.793   3.531  12.525  0.00  0.00    +0.000 A 
ATOM     15  N   UNL     1      44.293   4.586  11.886  0.00  0.00    +0.000 NA
ATOM     16  C   UNL     1      44.980   5.717  12.123  0.00  0.00    +0.000 A 
ATOM     17  S   UNL     1      44.489   7.164  11.382  0.00  0.00    +0.000 S 
ATOM     18  C   UNL     1      45.738   8.032  12.138  0.00  0.00    +0.000 A 
ATOM     19  C   UNL     1      46.541   7.257  12.967  0.00  0.00    +0.000 A 
ATOM     20  C   UNL     1      46.101   5.864  12.934  0.00  0.00    +0.000 A 
BRANCH  12  22
ATOM     21  C   UNL     1      47.320   4.359  15.700  0.00  0.00    +0.000 C 
ATOM     22  O   UNL     1      47.643   4.635  14.340  0.00  0.00    +0.000 OA
ENDBRANCH  12  22
ENDBRANCH   8  19
ENDBRANCH   7  10
ENDBRANCH   1   7
BRANCH   4  23
ATOM     23  C   UNL     1      49.326   6.678  20.464  0.00  0.00    +0.000 C 
BRANCH  23  24
ATOM     24  C   UNL     1      49.129   5.161  20.389  0.00  0.00    +0.000 C 
BRANCH  24  25
ATOM     25  N   UNL     1      50.370   4.412  20.602  0.00  0.00    +0.000 N 
ATOM     26  H   UNL     1      50.719   4.509  21.555  0.00  0.00    +0.000 HD
BRANCH  25  27
ATOM     27  C   UNL     1      51.427   4.653  19.694  0.00  0.00    +0.000 A 
ATOM     28  C   UNL     1      52.526   5.471  20.018  0.00  0.00    +0.000 A 
ATOM     29  C   UNL     1      53.594   5.659  19.139  0.00  0.00    +0.000 A 
ATOM     30  C   UNL     1      53.574   5.051  17.895  0.00  0.00    +0.000 A 
ATOM     31  C   UNL     1      52.465   4.299  17.517  0.00  0.00    +0.000 A 
ATOM     32  C   UNL     1      51.369   4.117  18.388  0.00  0.00    +0.000 A 
BRANCH  32  33
ATOM     33  C   UNL     1      50.178   3.336  17.862  0.00  0.00    +0.000 C 
BRANCH  33  34
ATOM     34  C   UNL     1      50.512   1.984  17.220  0.00  0.00    +0.000 C 
BRANCH  34  35
ATOM     35  O   UNL     1      49.758   1.766  16.033  0.00  0.00    +0.000 OA
ATOM     36  H   UNL     1      49.999   0.874  15.721  0.00  0.00    +0.000 HD
ENDBRANCH  34  35
ENDBRANCH  33  34
ENDBRANCH  32  33
ENDBRANCH  25  27
ENDBRANCH  24  25
ENDBRANCH  23  24
ENDBRANCH   4  23
TORSDOF 11
ENDMDL
MODEL 9
REMARK VINA RESULT:    -5.972      2.461      4.241
REMARK INTER + INTRA:         -11.532
REMARK INTER:                 -10.135
REMARK INTRA:                  -1.396
REMARK UNBOUND:                -1.894
REMARK  Name = 
REMARK  12 active torsions:
REMARK  status: ('A' for Active; 'I' for Inactive)
REMARK    1  A    between atoms: C_1  and  O_2
REMARK    2  A    between atoms: O_2  and  C_3
REMARK    3  A    between atoms: C_10  and  C_11
REMARK    4  A    between atoms: N_13  and  C_14
REMARK    5  A    between atoms: C_14  and  C_15
REMARK    6  A    between atoms: C_18  and  C_19
REMARK    7  A    between atoms: C_19  and  C_20
REMARK    8  A    between atoms: C_20  and  N_21
REMARK    9  A    between atoms: N_21  and  C_22
REMARK   10  A    between atoms: C_27  and  C_28
REMARK   11  A    between atoms: C_28  and  C_29
REMARK   12  A    between atoms: C_29  and  O_30
REMARK                            x       y       z     vdW  Elec       q    Type
REMARK                         _______ _______ _______ _____ _____    ______ ____
ROOT
ATOM      1  C   UNL     1      50.195   8.501  13.237  0.00  0.00    +0.000 A 
ATOM      2  C   UNL     1      49.109   8.558  14.116  0.00  0.00    +0.000 A 
ATOM      3  C   UNL     1      47.816   8.278  13.666  0.00  0.00    +0.000 A 
ATOM      4  C   UNL     1      47.569   7.923  12.331  0.00  0.00    +0.000 A 
ATOM      5  C   UNL     1      48.665   7.858  11.456  0.00  0.00    +0.000 A 
ATOM      6  C   UNL     1      49.963   8.137  11.906  0.00  0.00    +0.000 A 
ENDROOT
BRANCH   1   7
ATOM      7  C   UNL     1      51.589   8.759  13.746  0.00  0.00    +0.000 C 
BRANCH   7  10
ATOM      8  C   UNL     1      52.565   7.961  15.861  0.00  0.00    +0.000 C 
ATOM      9  O   UNL     1      52.720   9.115  16.262  0.00  0.00    +0.000 OA
ATOM     10  N   UNL     1      52.007   7.708  14.640  0.00  0.00    +0.000 N 
ATOM     11  H   UNL     1      51.891   6.755  14.322  0.00  0.00    +0.000 HD
BRANCH   8  19
ATOM     12  C   UNL     1      50.953   5.113  16.931  0.00  0.00    +0.000 A 
ATOM     13  N   UNL     1      50.595   3.908  17.416  0.00  0.00    +0.000 NA
ATOM     14  C   UNL     1      51.516   3.197  18.072  0.00  0.00    +0.000 A 
ATOM     15  N   UNL     1      52.774   3.551  18.323  0.00  0.00    +0.000 NA
ATOM     16  C   UNL     1      53.092   4.753  17.812  0.00  0.00    +0.000 A 
ATOM     17  S   UNL     1      54.656   5.372  18.042  0.00  0.00    +0.000 S 
ATOM     18  C   UNL     1      54.283   6.776  17.160  0.00  0.00    +0.000 A 
ATOM     19  C   UNL     1      52.984   6.804  16.669  0.00  0.00    +0.000 A 
ATOM     20  C   UNL     1      52.263   5.602  17.085  0.00  0.00    +0.000 A 
BRANCH  12  22
ATOM     21  C   UNL     1      48.788   6.007  16.959  0.00  0.00    +0.000 C 
ATOM     22  O   UNL     1      50.007   5.841  16.239  0.00  0.00    +0.000 OA
ENDBRANCH  12  22
ENDBRANCH   8  19
ENDBRANCH   7  10
ENDBRANCH   1   7
BRANCH   4  23
ATOM     23  C   UNL     1      46.183   7.605  11.795  0.00  0.00    +0.000 C 
BRANCH  23  24
ATOM     24  C   UNL     1      45.972   6.135  11.417  0.00  0.00    +0.000 C 
BRANCH  24  25
ATOM     25  N   UNL     1      45.077   5.962  10.270  0.00  0.00    +0.000 N 
ATOM     26  H   UNL     1      44.096   6.046  10.532  0.00  0.00    +0.000 HD
BRANCH  25  27
ATOM     27  C   UNL     1      45.253   4.795   9.491  0.00  0.00    +0.000 A 
ATOM     28  C   UNL     1      46.108   4.761   8.372  0.00  0.00    +0.000 A 
ATOM     29  C   UNL     1      46.322   3.591   7.641  0.00  0.00    +0.000 A 
ATOM     30  C   UNL     1      45.660   2.428   7.996  0.00  0.00    +0.000 A 
ATOM     31  C   UNL     1      44.750   2.452   9.050  0.00  0.00    +0.000 A 
ATOM     32  C   UNL     1      44.509   3.632   9.786  0.00  0.00    +0.000 A 
BRANCH  32  33
ATOM     33  C   UNL     1      43.451   3.575  10.874  0.00  0.00    +0.000 C 
BRANCH  33  34
ATOM     34  C   UNL     1      43.934   3.052  12.231  0.00  0.00    +0.000 C 
BRANCH  34  35
ATOM     35  O   UNL     1      43.430   1.748  12.501  0.00  0.00    +0.000 OA
ATOM     36  H   UNL     1      43.824   1.478  13.351  0.00  0.00    +0.000 HD
ENDBRANCH  34  35
ENDBRANCH  33  34
ENDBRANCH  32  33
ENDBRANCH  25  27
ENDBRANCH  24  25
ENDBRANCH  23  24
ENDBRANCH   4  23
TORSDOF 11
ENDMDL
