MODEL 1
REMARK VINA RESULT:    -7.770      0.000      0.000
REMARK INTER + INTRA:         -10.698
REMARK INTER:                 -10.041
REMARK INTRA:                  -0.657
REMARK UNBOUND:                -0.657
REMARK  Name = 
REMARK  5 active torsions:
REMARK  status: ('A' for Active; 'I' for Inactive)
REMARK    1  A    between atoms: C_2  and  C_5
REMARK    2  A    between atoms: C_7  and  N_8
REMARK    3  A    between atoms: N_8  and  C_9
REMARK    4  A    between atoms: C_9  and  C_10
REMARK    5  A    between atoms: C_17  and  C_18
REMARK                            x       y       z     vdW  Elec       q    Type
REMARK                         _______ _______ _______ _____ _____    ______ ____
ROOT
ATOM      1  C   UNL     1      45.909   6.228  12.635  0.00  0.00    +0.000 A 
ATOM      2  C   UNL     1      45.397   5.190  11.883  0.00  0.00    +0.000 A 
ATOM      3  C   UNL     1      45.509   3.911  12.391  0.00  0.00    +0.000 A 
ATOM      4  N   UNL     1      46.121   3.668  13.560  0.00  0.00    +0.000 NA
ATOM      5  C   UNL     1      46.658   4.719  14.212  0.00  0.00    +0.000 A 
ATOM      6  N   UNL     1      46.557   5.995  13.801  0.00  0.00    +0.000 NA
ENDROOT
BRANCH   5   7
ATOM      7  C   UNL     1      47.457   4.467  15.420  0.00  0.00    +0.000 A 
ATOM      8  C   UNL     1      47.525   3.215  16.046  0.00  0.00    +0.000 A 
ATOM      9  C   UNL     1      48.331   3.018  17.169  0.00  0.00    +0.000 A 
ATOM     10  C   UNL     1      49.060   4.090  17.650  0.00  0.00    +0.000 A 
ATOM     11  N   UNL     1      49.029   5.317  17.097  0.00  0.00    +0.000 NA
ATOM     12  C   UNL     1      48.235   5.472  16.004  0.00  0.00    +0.000 A 
ENDBRANCH   5   7
BRANCH   1  14
ATOM     13  F   UNL     1      45.249   8.489  13.147  0.00  0.00    +0.000 F 
ATOM     14  C   UNL     1      45.734   7.665  12.171  0.00  0.00    +0.000 C 
ATOM     15  F   UNL     1      44.865   7.785  11.129  0.00  0.00    +0.000 F 
ATOM     16  F   UNL     1      46.901   8.235  11.762  0.00  0.00    +0.000 F 
ENDBRANCH   1  14
BRANCH   3  17
ATOM     17  N   UNL     1      44.938   2.875  11.646  0.00  0.00    +0.000 N 
ATOM     18  H   UNL     1      44.455   2.209  12.240  0.00  0.00    +0.000 HD
BRANCH  17  19
ATOM     19  C   UNL     1      44.262   3.196  10.400  0.00  0.00    +0.000 C 
BRANCH  19  20
ATOM     20  C   UNL     1      45.086   3.018   9.168  0.00  0.00    +0.000 A 
ATOM     21  C   UNL     1      45.428   4.091   8.368  0.00  0.00    +0.000 A 
ATOM     22  N   UNL     1      46.239   4.010   7.295  0.00  0.00    +0.000 NA
ATOM     23  C   UNL     1      46.724   2.788   7.028  0.00  0.00    +0.000 A 
ATOM     24  N   UNL     1      46.468   1.670   7.725  0.00  0.00    +0.000 NA
ATOM     25  C   UNL     1      45.649   1.816   8.788  0.00  0.00    +0.000 A 
ENDBRANCH  19  20
ENDBRANCH  17  19
ENDBRANCH   3  17
TORSDOF 5
ENDMDL
MODEL 2
REMARK VINA RESULT:    -7.453      2.576      4.848
REMARK INTER + INTRA:         -10.288
REMARK INTER:                  -9.545
REMARK INTRA:                  -0.742
REMARK UNBOUND:                -0.657
REMARK  Name = 
REMARK  5 active torsions:
REMARK  status: ('A' for Active; 'I' for Inactive)
REMARK    1  A    between atoms: C_2  and  C_5
REMARK    2  A    between atoms: C_7  and  N_8
REMARK    3  A    between atoms: N_8  and  C_9
REMARK    4  A    between atoms: C_9  and  C_10
REMARK    5  A    between atoms: C_17  and  C_18
REMARK                            x       y       z     vdW  Elec       q    Type
REMARK                         _______ _______ _______ _____ _____    ______ ____
ROOT
ATOM      1  C   UNL     1      46.113   5.076  13.156  0.00  0.00    +0.000 A 
ATOM      2  C   UNL     1      45.452   4.223  12.294  0.00  0.00    +0.000 A 
ATOM      3  C   UNL     1      44.832   4.776  11.192  0.00  0.00    +0.000 A 
ATOM      4  N   UNL     1      44.837   6.099  10.970  0.00  0.00    +0.000 NA
ATOM      5  C   UNL     1      45.442   6.882  11.886  0.00  0.00    +0.000 A 
ATOM      6  N   UNL     1      46.099   6.416  12.962  0.00  0.00    +0.000 NA
ENDROOT
BRANCH   5   7
ATOM      7  C   UNL     1      45.341   8.342  11.746  0.00  0.00    +0.000 A 
ATOM      8  C   UNL     1      44.219   8.983  11.202  0.00  0.00    +0.000 A 
ATOM      9  C   UNL     1      44.156  10.375  11.127  0.00  0.00    +0.000 A 
ATOM     10  C   UNL     1      45.227  11.108  11.602  0.00  0.00    +0.000 A 
ATOM     11  N   UNL     1      46.335  10.548  12.128  0.00  0.00    +0.000 NA
ATOM     12  C   UNL     1      46.361   9.191  12.186  0.00  0.00    +0.000 A 
ENDBRANCH   5   7
BRANCH   1  14
ATOM     13  F   UNL     1      46.141   4.417  15.474  0.00  0.00    +0.000 F 
ATOM     14  C   UNL     1      46.890   4.516  14.336  0.00  0.00    +0.000 C 
ATOM     15  F   UNL     1      47.967   5.279  14.675  0.00  0.00    +0.000 F 
ATOM     16  F   UNL     1      47.369   3.261  14.107  0.00  0.00    +0.000 F 
ENDBRANCH   1  14
BRANCH   3  17
ATOM     17  N   UNL     1      44.215   3.896  10.298  0.00  0.00    +0.000 N 
ATOM     18  H   UNL     1      43.245   3.729  10.546  0.00  0.00    +0.000 HD
BRANCH  17  19
ATOM     19  C   UNL     1      44.472   4.044   8.875  0.00  0.00    +0.000 C 
BRANCH  19  20
ATOM     20  C   UNL     1      45.518   3.134   8.322  0.00  0.00    +0.000 A 
ATOM     21  C   UNL     1      45.561   1.795   8.660  0.00  0.00    +0.000 A 
ATOM     22  N   UNL     1      46.424   0.906   8.130  0.00  0.00    +0.000 NA
ATOM     23  C   UNL     1      47.274   1.399   7.217  0.00  0.00    +0.000 A 
ATOM     24  N   UNL     1      47.333   2.675   6.805  0.00  0.00    +0.000 NA
ATOM     25  C   UNL     1      46.444   3.516   7.372  0.00  0.00    +0.000 A 
ENDBRANCH  19  20
ENDBRANCH  17  19
ENDBRANCH   3  17
TORSDOF 5
ENDMDL
MODEL 3
REMARK VINA RESULT:    -7.175      2.966      3.634
REMARK INTER + INTRA:          -9.929
REMARK INTER:                  -9.239
REMARK INTRA:                  -0.691
REMARK UNBOUND:                -0.657
REMARK  Name = 
REMARK  5 active torsions:
REMARK  status: ('A' for Active; 'I' for Inactive)
REMARK    1  A    between atoms: C_2  and  C_5
REMARK    2  A    between atoms: C_7  and  N_8
REMARK    3  A    between atoms: N_8  and  C_9
REMARK    4  A    between atoms: C_9  and  C_10
REMARK    5  A    between atoms: C_17  and  C_18
REMARK                            x       y       z     vdW  Elec       q    Type
REMARK                         _______ _______ _______ _____ _____    ______ ____
ROOT
ATOM      1  C   UNL     1      44.178   5.343  11.812  0.00  0.00    +0.000 A 
ATOM      2  C   UNL     1      44.529   5.158  10.490  0.00  0.00    +0.000 A 
ATOM      3  C   UNL     1      45.794   5.550  10.098  0.00  0.00    +0.000 A 
ATOM      4  N   UNL     1      46.651   6.123  10.956  0.00  0.00    +0.000 NA
ATOM      5  C   UNL     1      46.222   6.336  12.217  0.00  0.00    +0.000 A 
ATOM      6  N   UNL     1      45.022   5.949  12.681  0.00  0.00    +0.000 NA
ENDROOT
BRANCH   5   7
ATOM      7  C   UNL     1      47.085   7.089  13.139  0.00  0.00    +0.000 A 
ATOM      8  C   UNL     1      48.174   6.515  13.809  0.00  0.00    +0.000 A 
ATOM      9  C   UNL     1      48.987   7.284  14.644  0.00  0.00    +0.000 A 
ATOM     10  C   UNL     1      48.691   8.626  14.795  0.00  0.00    +0.000 A 
ATOM     11  N   UNL     1      47.654   9.231  14.184  0.00  0.00    +0.000 NA
ATOM     12  C   UNL     1      46.885   8.452  13.378  0.00  0.00    +0.000 A 
ENDBRANCH   5   7
BRANCH   1  14
ATOM     13  F   UNL     1      42.697   4.967  13.675  0.00  0.00    +0.000 F 
ATOM     14  C   UNL     1      42.835   4.848  12.321  0.00  0.00    +0.000 C 
ATOM     15  F   UNL     1      42.614   3.531  12.048  0.00  0.00    +0.000 F 
ATOM     16  F   UNL     1      41.783   5.529  11.788  0.00  0.00    +0.000 F 
ENDBRANCH   1  14
BRANCH   3  17
ATOM     17  N   UNL     1      46.156   5.306   8.770  0.00  0.00    +0.000 N 
ATOM     18  H   UNL     1      47.164   5.294   8.653  0.00  0.00    +0.000 HD
BRANCH  17  19
ATOM     19  C   UNL     1      45.434   4.292   8.020  0.00  0.00    +0.000 C 
BRANCH  19  20
ATOM     20  C   UNL     1      46.173   3.012   7.812  0.00  0.00    +0.000 A 
ATOM     21  C   UNL     1      45.749   1.832   8.392  0.00  0.00    +0.000 A 
ATOM     22  N   UNL     1      46.319   0.630   8.173  0.00  0.00    +0.000 NA
ATOM     23  C   UNL     1      47.361   0.630   7.328  0.00  0.00    +0.000 A 
ATOM     24  N   UNL     1      47.867   1.705   6.703  0.00  0.00    +0.000 NA
ATOM     25  C   UNL     1      47.253   2.878   6.963  0.00  0.00    +0.000 A 
ENDBRANCH  19  20
ENDBRANCH  17  19
ENDBRANCH   3  17
TORSDOF 5
ENDMDL
MODEL 4
REMARK VINA RESULT:    -7.087      3.066      4.425
REMARK INTER + INTRA:          -9.816
REMARK INTER:                  -9.052
REMARK INTRA:                  -0.763
REMARK UNBOUND:                -0.657
REMARK  Name = 
REMARK  5 active torsions:
REMARK  status: ('A' for Active; 'I' for Inactive)
REMARK    1  A    between atoms: C_2  and  C_5
REMARK    2  A    between atoms: C_7  and  N_8
REMARK    3  A    between atoms: N_8  and  C_9
REMARK    4  A    between atoms: C_9  and  C_10
REMARK    5  A    between atoms: C_17  and  C_18
REMARK                            x       y       z     vdW  Elec       q    Type
REMARK                         _______ _______ _______ _____ _____    ______ ____
ROOT
ATOM      1  C   UNL     1      47.124   4.798  14.560  0.00  0.00    +0.000 A 
ATOM      2  C   UNL     1      45.985   4.364  13.910  0.00  0.00    +0.000 A 
ATOM      3  C   UNL     1      45.676   4.945  12.697  0.00  0.00    +0.000 A 
ATOM      4  N   UNL     1      46.430   5.920  12.169  0.00  0.00    +0.000 NA
ATOM      5  C   UNL     1      47.491   6.344  12.886  0.00  0.00    +0.000 A 
ATOM      6  N   UNL     1      47.877   5.804  14.054  0.00  0.00    +0.000 NA
ENDROOT
BRANCH   5   7
ATOM      7  C   UNL     1      48.251   7.506  12.403  0.00  0.00    +0.000 A 
ATOM      8  C   UNL     1      49.610   7.444  12.063  0.00  0.00    +0.000 A 
ATOM      9  C   UNL     1      50.277   8.568  11.571  0.00  0.00    +0.000 A 
ATOM     10  C   UNL     1      49.564   9.744  11.427  0.00  0.00    +0.000 A 
ATOM     11  N   UNL     1      48.261   9.866  11.745  0.00  0.00    +0.000 NA
ATOM     12  C   UNL     1      47.644   8.752  12.219  0.00  0.00    +0.000 A 
ENDBRANCH   5   7
BRANCH   1  14
ATOM     13  F   UNL     1      46.586   4.108  16.805  0.00  0.00    +0.000 F 
ATOM     14  C   UNL     1      47.565   4.133  15.853  0.00  0.00    +0.000 C 
ATOM     15  F   UNL     1      48.626   4.756  16.438  0.00  0.00    +0.000 F 
ATOM     16  F   UNL     1      47.935   2.833  15.680  0.00  0.00    +0.000 F 
ENDBRANCH   1  14
BRANCH   3  17
ATOM     17  N   UNL     1      44.551   4.458  12.024  0.00  0.00    +0.000 N 
ATOM     18  H   UNL     1      43.736   4.431  12.628  0.00  0.00    +0.000 HD
BRANCH  17  19
ATOM     19  C   UNL     1      44.299   4.902  10.663  0.00  0.00    +0.000 C 
BRANCH  19  20
ATOM     20  C   UNL     1      44.912   4.057   9.596  0.00  0.00    +0.000 A 
ATOM     21  C   UNL     1      45.623   4.618   8.552  0.00  0.00    +0.000 A 
ATOM     22  N   UNL     1      46.272   3.908   7.608  0.00  0.00    +0.000 NA
ATOM     23  C   UNL     1      46.198   2.574   7.736  0.00  0.00    +0.000 A 
ATOM     24  N   UNL     1      45.543   1.911   8.701  0.00  0.00    +0.000 NA
ATOM     25  C   UNL     1      44.912   2.677   9.615  0.00  0.00    +0.000 A 
ENDBRANCH  19  20
ENDBRANCH  17  19
ENDBRANCH   3  17
TORSDOF 5
ENDMDL
MODEL 5
REMARK VINA RESULT:    -6.916      1.597      2.309
REMARK INTER + INTRA:          -9.594
REMARK INTER:                  -9.068
REMARK INTRA:                  -0.526
REMARK UNBOUND:                -0.657
REMARK  Name = 
REMARK  5 active torsions:
REMARK  status: ('A' for Active; 'I' for Inactive)
REMARK    1  A    between atoms: C_2  and  C_5
REMARK    2  A    between atoms: C_7  and  N_8
REMARK    3  A    between atoms: N_8  and  C_9
REMARK    4  A    between atoms: C_9  and  C_10
REMARK    5  A    between atoms: C_17  and  C_18
REMARK                            x       y       z     vdW  Elec       q    Type
REMARK                         _______ _______ _______ _____ _____    ______ ____
ROOT
ATOM      1  C   UNL     1      47.669   6.175  13.131  0.00  0.00    +0.000 A 
ATOM      2  C   UNL     1      46.656   5.454  12.531  0.00  0.00    +0.000 A 
ATOM      3  C   UNL     1      46.007   4.501  13.291  0.00  0.00    +0.000 A 
ATOM      4  N   UNL     1      46.360   4.252  14.560  0.00  0.00    +0.000 NA
ATOM      5  C   UNL     1      47.402   4.944  15.065  0.00  0.00    +0.000 A 
ATOM      6  N   UNL     1      48.057   5.912  14.401  0.00  0.00    +0.000 NA
ENDROOT
BRANCH   5   7
ATOM      7  C   UNL     1      47.902   4.593  16.402  0.00  0.00    +0.000 A 
ATOM      8  C   UNL     1      48.817   5.386  17.109  0.00  0.00    +0.000 A 
ATOM      9  C   UNL     1      49.231   5.029  18.394  0.00  0.00    +0.000 A 
ATOM     10  C   UNL     1      48.716   3.873  18.952  0.00  0.00    +0.000 A 
ATOM     11  N   UNL     1      47.841   3.069  18.319  0.00  0.00    +0.000 NA
ATOM     12  C   UNL     1      47.460   3.448  17.071  0.00  0.00    +0.000 A 
ENDBRANCH   5   7
BRANCH   1  14
ATOM     13  F   UNL     1      48.084   7.290  11.035  0.00  0.00    +0.000 F 
ATOM     14  C   UNL     1      48.357   7.298  12.374  0.00  0.00    +0.000 C 
ATOM     15  F   UNL     1      49.716   7.249  12.467  0.00  0.00    +0.000 F 
ATOM     16  F   UNL     1      47.990   8.535  12.812  0.00  0.00    +0.000 F 
ENDBRANCH   1  14
BRANCH   3  17
ATOM     17  N   UNL     1      44.946   3.818  12.689  0.00  0.00    +0.000 N 
ATOM     18  H   UNL     1      44.301   3.445  13.378  0.00  0.00    +0.000 HD
BRANCH  17  19
ATOM     19  C   UNL     1      44.325   4.387  11.505  0.00  0.00    +0.000 C 
BRANCH  19  20
ATOM     20  C   UNL     1      44.886   3.914  10.204  0.00  0.00    +0.000 A 
ATOM     21  C   UNL     1      44.906   2.573   9.874  0.00  0.00    +0.000 A 
ATOM     22  N   UNL     1      45.317   2.090   8.684  0.00  0.00    +0.000 NA
ATOM     23  C   UNL     1      45.720   3.011   7.795  0.00  0.00    +0.000 A 
ATOM     24  N   UNL     1      45.747   4.338   7.994  0.00  0.00    +0.000 NA
ATOM     25  C   UNL     1      45.324   4.759   9.205  0.00  0.00    +0.000 A 
ENDBRANCH  19  20
ENDBRANCH  17  19
ENDBRANCH   3  17
TORSDOF 5
ENDMDL
MODEL 6
REMARK VINA RESULT:    -6.814      2.975      6.338
REMARK INTER + INTRA:          -9.462
REMARK INTER:                  -8.713
REMARK INTRA:                  -0.749
REMARK UNBOUND:                -0.657
REMARK  Name = 
REMARK  5 active torsions:
REMARK  status: ('A' for Active; 'I' for Inactive)
REMARK    1  A    between atoms: C_2  and  C_5
REMARK    2  A    between atoms: C_7  and  N_8
REMARK    3  A    between atoms: N_8  and  C_9
REMARK    4  A    between atoms: C_9  and  C_10
REMARK    5  A    between atoms: C_17  and  C_18
REMARK                            x       y       z     vdW  Elec       q    Type
REMARK                         _______ _______ _______ _____ _____    ______ ____
ROOT
ATOM      1  C   UNL     1      46.110   5.578  12.225  0.00  0.00    +0.000 A 
ATOM      2  C   UNL     1      45.981   4.724  13.302  0.00  0.00    +0.000 A 
ATOM      3  C   UNL     1      46.931   4.800  14.301  0.00  0.00    +0.000 A 
ATOM      4  N   UNL     1      47.967   5.649  14.225  0.00  0.00    +0.000 NA
ATOM      5  C   UNL     1      48.071   6.407  13.115  0.00  0.00    +0.000 A 
ATOM      6  N   UNL     1      47.168   6.416  12.120  0.00  0.00    +0.000 NA
ENDROOT
BRANCH   5   7
ATOM      7  C   UNL     1      49.270   7.240  12.939  0.00  0.00    +0.000 A 
ATOM      8  C   UNL     1      49.733   7.659  11.683  0.00  0.00    +0.000 A 
ATOM      9  C   UNL     1      50.854   8.484  11.573  0.00  0.00    +0.000 A 
ATOM     10  C   UNL     1      51.497   8.878  12.731  0.00  0.00    +0.000 A 
ATOM     11  N   UNL     1      51.103   8.502  13.964  0.00  0.00    +0.000 NA
ATOM     12  C   UNL     1      50.008   7.700  14.033  0.00  0.00    +0.000 A 
ENDBRANCH   5   7
BRANCH   1  14
ATOM     13  F   UNL     1      45.559   5.458   9.882  0.00  0.00    +0.000 F 
ATOM     14  C   UNL     1      45.047   5.603  11.140  0.00  0.00    +0.000 C 
ATOM     15  F   UNL     1      44.341   6.768  11.113  0.00  0.00    +0.000 F 
ATOM     16  F   UNL     1      44.129   4.605  11.275  0.00  0.00    +0.000 F 
ENDBRANCH   1  14
BRANCH   3  17
ATOM     17  N   UNL     1      46.758   3.970  15.412  0.00  0.00    +0.000 N 
ATOM     18  H   UNL     1      46.775   2.989  15.153  0.00  0.00    +0.000 HD
BRANCH  17  19
ATOM     19  C   UNL     1      47.450   4.296  16.648  0.00  0.00    +0.000 C 
BRANCH  19  20
ATOM     20  C   UNL     1      48.686   3.502  16.910  0.00  0.00    +0.000 A 
ATOM     21  C   UNL     1      48.901   2.280  16.303  0.00  0.00    +0.000 A 
ATOM     22  N   UNL     1      50.032   1.557  16.429  0.00  0.00    +0.000 NA
ATOM     23  C   UNL     1      50.982   2.103  17.203  0.00  0.00    +0.000 A 
ATOM     24  N   UNL     1      50.896   3.278  17.845  0.00  0.00    +0.000 NA
ATOM     25  C   UNL     1      49.740   3.954  17.679  0.00  0.00    +0.000 A 
ENDBRANCH  19  20
ENDBRANCH  17  19
ENDBRANCH   3  17
TORSDOF 5
ENDMDL
MODEL 7
REMARK VINA RESULT:    -6.681      3.318      7.228
REMARK INTER + INTRA:          -9.290
REMARK INTER:                  -8.572
REMARK INTRA:                  -0.718
REMARK UNBOUND:                -0.657
REMARK  Name = 
REMARK  5 active torsions:
REMARK  status: ('A' for Active; 'I' for Inactive)
REMARK    1  A    between atoms: C_2  and  C_5
REMARK    2  A    between atoms: C_7  and  N_8
REMARK    3  A    between atoms: N_8  and  C_9
REMARK    4  A    between atoms: C_9  and  C_10
REMARK    5  A    between atoms: C_17  and  C_18
REMARK                            x       y       z     vdW  Elec       q    Type
REMARK                         _______ _______ _______ _____ _____    ______ ____
ROOT
ATOM      1  C   UNL     1      44.407   3.687  11.001  0.00  0.00    +0.000 A 
ATOM      2  C   UNL     1      44.644   5.033  11.196  0.00  0.00    +0.000 A 
ATOM      3  C   UNL     1      45.312   5.719  10.202  0.00  0.00    +0.000 A 
ATOM      4  N   UNL     1      45.751   5.105   9.094  0.00  0.00    +0.000 NA
ATOM      5  C   UNL     1      45.547   3.775   8.997  0.00  0.00    +0.000 A 
ATOM      6  N   UNL     1      44.872   3.047   9.902  0.00  0.00    +0.000 NA
ENDROOT
BRANCH   5   7
ATOM      7  C   UNL     1      46.141   3.050   7.864  0.00  0.00    +0.000 A 
ATOM      8  C   UNL     1      46.431   3.656   6.634  0.00  0.00    +0.000 A 
ATOM      9  C   UNL     1      47.032   2.933   5.602  0.00  0.00    +0.000 A 
ATOM     10  C   UNL     1      47.334   1.602   5.823  0.00  0.00    +0.000 A 
ATOM     11  N   UNL     1      47.073   0.963   6.980  0.00  0.00    +0.000 NA
ATOM     12  C   UNL     1      46.489   1.699   7.962  0.00  0.00    +0.000 A 
ENDBRANCH   5   7
BRANCH   1  14
ATOM     13  F   UNL     1      42.783   3.688  12.781  0.00  0.00    +0.000 F 
ATOM     14  C   UNL     1      43.597   2.900  12.017  0.00  0.00    +0.000 C 
ATOM     15  F   UNL     1      44.374   2.214  12.902  0.00  0.00    +0.000 F 
ATOM     16  F   UNL     1      42.773   1.980  11.441  0.00  0.00    +0.000 F 
ENDBRANCH   1  14
BRANCH   3  17
ATOM     17  N   UNL     1      45.495   7.093  10.386  0.00  0.00    +0.000 N 
ATOM     18  H   UNL     1      44.876   7.636   9.794  0.00  0.00    +0.000 HD
BRANCH  17  19
ATOM     19  C   UNL     1      45.667   7.604  11.736  0.00  0.00    +0.000 C 
BRANCH  19  20
ATOM     20  C   UNL     1      47.075   7.631  12.230  0.00  0.00    +0.000 A 
ATOM     21  C   UNL     1      47.659   6.519  12.806  0.00  0.00    +0.000 A 
ATOM     22  N   UNL     1      48.949   6.452  13.191  0.00  0.00    +0.000 NA
ATOM     23  C   UNL     1      49.674   7.560  12.977  0.00  0.00    +0.000 A 
ATOM     24  N   UNL     1      49.226   8.700  12.428  0.00  0.00    +0.000 NA
ATOM     25  C   UNL     1      47.927   8.705  12.064  0.00  0.00    +0.000 A 
ENDBRANCH  19  20
ENDBRANCH  17  19
ENDBRANCH   3  17
TORSDOF 5
ENDMDL
MODEL 8
REMARK VINA RESULT:    -6.584      2.251      3.079
REMARK INTER + INTRA:          -9.166
REMARK INTER:                  -8.478
REMARK INTRA:                  -0.688
REMARK UNBOUND:                -0.657
REMARK  Name = 
REMARK  5 active torsions:
REMARK  status: ('A' for Active; 'I' for Inactive)
REMARK    1  A    between atoms: C_2  and  C_5
REMARK    2  A    between atoms: C_7  and  N_8
REMARK    3  A    between atoms: N_8  and  C_9
REMARK    4  A    between atoms: C_9  and  C_10
REMARK    5  A    between atoms: C_17  and  C_18
REMARK                            x       y       z     vdW  Elec       q    Type
REMARK                         _______ _______ _______ _____ _____    ______ ____
ROOT
ATOM      1  C   UNL     1      44.818   8.110  11.480  0.00  0.00    +0.000 A 
ATOM      2  C   UNL     1      44.352   6.879  11.063  0.00  0.00    +0.000 A 
ATOM      3  C   UNL     1      45.052   5.758  11.461  0.00  0.00    +0.000 A 
ATOM      4  N   UNL     1      46.167   5.848  12.201  0.00  0.00    +0.000 NA
ATOM      5  C   UNL     1      46.606   7.084  12.517  0.00  0.00    +0.000 A 
ATOM      6  N   UNL     1      45.960   8.219  12.200  0.00  0.00    +0.000 NA
ENDROOT
BRANCH   5   7
ATOM      7  C   UNL     1      47.899   7.220  13.204  0.00  0.00    +0.000 A 
ATOM      8  C   UNL     1      48.914   8.079  12.760  0.00  0.00    +0.000 A 
ATOM      9  C   UNL     1      50.109   8.202  13.471  0.00  0.00    +0.000 A 
ATOM     10  C   UNL     1      50.268   7.455  14.623  0.00  0.00    +0.000 A 
ATOM     11  N   UNL     1      49.332   6.608  15.094  0.00  0.00    +0.000 NA
ATOM     12  C   UNL     1      48.181   6.515  14.377  0.00  0.00    +0.000 A 
ENDBRANCH   5   7
BRANCH   1  14
ATOM     13  F   UNL     1      42.724   9.134  10.869  0.00  0.00    +0.000 F 
ATOM     14  C   UNL     1      44.039   9.372  11.149  0.00  0.00    +0.000 C 
ATOM     15  F   UNL     1      44.529  10.031  10.062  0.00  0.00    +0.000 F 
ATOM     16  F   UNL     1      44.034  10.274  12.171  0.00  0.00    +0.000 F 
ENDBRANCH   1  14
BRANCH   3  17
ATOM     17  N   UNL     1      44.537   4.515  11.080  0.00  0.00    +0.000 N 
ATOM     18  H   UNL     1      43.854   4.172  11.747  0.00  0.00    +0.000 HD
BRANCH  17  19
ATOM     19  C   UNL     1      44.204   4.290   9.683  0.00  0.00    +0.000 C 
BRANCH  19  20
ATOM     20  C   UNL     1      45.190   3.469   8.921  0.00  0.00    +0.000 A 
ATOM     21  C   UNL     1      45.276   2.101   9.095  0.00  0.00    +0.000 A 
ATOM     22  N   UNL     1      46.081   1.293   8.377  0.00  0.00    +0.000 NA
ATOM     23  C   UNL     1      46.826   1.903   7.442  0.00  0.00    +0.000 A 
ATOM     24  N   UNL     1      46.833   3.218   7.176  0.00  0.00    +0.000 NA
ATOM     25  C   UNL     1      46.006   3.973   7.929  0.00  0.00    +0.000 A 
ENDBRANCH  19  20
ENDBRANCH  17  19
ENDBRANCH   3  17
TORSDOF 5
ENDMDL
MODEL 9
REMARK VINA RESULT:    -6.574      2.743      6.671
REMARK INTER + INTRA:          -9.153
REMARK INTER:                  -8.496
REMARK INTRA:                  -0.657
REMARK UNBOUND:                -0.657
REMARK  Name = 
REMARK  5 active torsions:
REMARK  status: ('A' for Active; 'I' for Inactive)
REMARK    1  A    between atoms: C_2  and  C_5
REMARK    2  A    between atoms: C_7  and  N_8
REMARK    3  A    between atoms: N_8  and  C_9
REMARK    4  A    between atoms: C_9  and  C_10
REMARK    5  A    between atoms: C_17  and  C_18
REMARK                            x       y       z     vdW  Elec       q    Type
REMARK                         _______ _______ _______ _____ _____    ______ ____
ROOT
ATOM      1  C   UNL     1      45.264   4.634  11.637  0.00  0.00    +0.000 A 
ATOM      2  C   UNL     1      45.641   3.851  12.711  0.00  0.00    +0.000 A 
ATOM      3  C   UNL     1      46.475   4.413  13.656  0.00  0.00    +0.000 A 
ATOM      4  N   UNL     1      46.938   5.666  13.532  0.00  0.00    +0.000 NA
ATOM      5  C   UNL     1      46.587   6.353  12.426  0.00  0.00    +0.000 A 
ATOM      6  N   UNL     1      45.749   5.889  11.483  0.00  0.00    +0.000 NA
ENDROOT
BRANCH   5   7
ATOM      7  C   UNL     1      47.192   7.673  12.192  0.00  0.00    +0.000 A 
ATOM      8  C   UNL     1      48.520   7.843  11.777  0.00  0.00    +0.000 A 
ATOM      9  C   UNL     1      49.035   9.118  11.530  0.00  0.00    +0.000 A 
ATOM     10  C   UNL     1      48.202  10.207  11.705  0.00  0.00    +0.000 A 
ATOM     11  N   UNL     1      46.921  10.106  12.109  0.00  0.00    +0.000 NA
ATOM     12  C   UNL     1      46.454   8.851  12.338  0.00  0.00    +0.000 A 
ENDBRANCH   5   7
BRANCH   1  14
ATOM     13  F   UNL     1      44.879   3.588   9.500  0.00  0.00    +0.000 F 
ATOM     14  C   UNL     1      44.276   4.101  10.614  0.00  0.00    +0.000 C 
ATOM     15  F   UNL     1      43.417   5.055  10.156  0.00  0.00    +0.000 F 
ATOM     16  F   UNL     1      43.500   3.093  11.102  0.00  0.00    +0.000 F 
ENDBRANCH   1  14
BRANCH   3  17
ATOM     17  N   UNL     1      46.803   3.629  14.765  0.00  0.00    +0.000 N 
ATOM     18  H   UNL     1      47.380   2.835  14.506  0.00  0.00    +0.000 HD
BRANCH  17  19
ATOM     19  C   UNL     1      47.180   4.287  16.005  0.00  0.00    +0.000 C 
BRANCH  19  20
ATOM     20  C   UNL     1      48.489   3.858  16.579  0.00  0.00    +0.000 A 
ATOM     21  C   UNL     1      48.867   2.529  16.598  0.00  0.00    +0.000 A 
ATOM     22  N   UNL     1      50.068   2.087  17.021  0.00  0.00    +0.000 NA
ATOM     23  C   UNL     1      50.920   3.037  17.437  0.00  0.00    +0.000 A 
ATOM     24  N   UNL     1      50.674   4.356  17.467  0.00  0.00    +0.000 NA
ATOM     25  C   UNL     1      49.454   4.735  17.031  0.00  0.00    +0.000 A 
ENDBRANCH  19  20
ENDBRANCH  17  19
ENDBRANCH   3  17
TORSDOF 5
ENDMDL
