MODEL 1
REMARK VINA RESULT:    -8.315      0.000      0.000
REMARK INTER + INTRA:         -11.517
REMARK INTER:                 -10.746
REMARK INTRA:                  -0.771
REMARK UNBOUND:                -0.771
REMARK  Name = 
REMARK  6 active torsions:
REMARK  status: ('A' for Active; 'I' for Inactive)
REMARK    1  A    between atoms: C_1  and  C_2
REMARK    2  A    between atoms: C_7  and  C_8
REMARK    3  A    between atoms: N_10  and  C_11
REMARK    4  A    between atoms: C_11  and  C_12
REMARK    5  A    between atoms: C_15  and  C_16
REMARK    6  A    between atoms: C_16  and  N_17
REMARK                            x       y       z     vdW  Elec       q    Type
REMARK                         _______ _______ _______ _____ _____    ______ ____
ROOT
ATOM      1  C   UNL     1      47.784   7.686  13.638  0.00  0.00    +0.000 C 
ATOM      2  O   UNL     1      48.438   8.196  12.732  0.00  0.00    +0.000 OA
ATOM      3  N   UNL     1      46.413   7.624  13.588  0.00  0.00    +0.000 N 
ATOM      4  H   UNL     1      45.895   7.254  14.379  0.00  0.00    +0.000 HD
ENDROOT
BRANCH   1  11
ATOM      5  C   UNL     1      48.252   2.505  18.120  0.00  0.00    +0.000 C 
ATOM      6  C   UNL     1      48.306   3.726  17.252  0.00  0.00    +0.000 A 
ATOM      7  N   UNL     1      49.153   4.676  17.487  0.00  0.00    +0.000 NA
ATOM      8  C   UNL     1      49.091   5.723  16.621  0.00  0.00    +0.000 A 
ATOM      9  S   UNL     1      50.135   7.054  16.798  0.00  0.00    +0.000 S 
ATOM     10  C   UNL     1      49.461   7.832  15.442  0.00  0.00    +0.000 A 
ATOM     11  C   UNL     1      48.442   7.113  14.826  0.00  0.00    +0.000 A 
ATOM     12  C   UNL     1      48.236   5.870  15.540  0.00  0.00    +0.000 A 
ATOM     13  C   UNL     1      47.301   4.782  15.320  0.00  0.00    +0.000 A 
ATOM     14  O   UNL     1      46.469   4.752  14.421  0.00  0.00    +0.000 OA
ATOM     15  N   UNL     1      47.404   3.742  16.216  0.00  0.00    +0.000 N 
ATOM     16  H   UNL     1      46.763   2.976  16.075  0.00  0.00    +0.000 HD
ENDBRANCH   1  11
BRANCH   3  17
ATOM     17  C   UNL     1      45.633   8.208  12.517  0.00  0.00    +0.000 C 
BRANCH  17  18
ATOM     18  C   UNL     1      45.053   7.149  11.567  0.00  0.00    +0.000 C 
ATOM     19  C   UNL     1      44.135   6.163  12.303  0.00  0.00    +0.000 C 
ATOM     20  C   UNL     1      43.572   5.107  11.354  0.00  0.00    +0.000 C 
ATOM     21  C   UNL     1      44.685   4.334  10.628  0.00  0.00    +0.000 C 
ATOM     22  C   UNL     1      45.637   5.315   9.919  0.00  0.00    +0.000 C 
ATOM     23  C   UNL     1      46.184   6.380  10.869  0.00  0.00    +0.000 C 
BRANCH  21  24
ATOM     24  C   UNL     1      44.119   3.334   9.600  0.00  0.00    +0.000 C 
BRANCH  24  25
ATOM     25  N   UNL     1      45.005   2.179   9.439  0.00  0.00    +0.000 N 
ATOM     26  C   UNL     1      45.775   2.230   8.259  0.00  0.00    +0.000 A 
ATOM     27  C   UNL     1      46.639   1.170   7.989  0.00  0.00    +0.000 A 
ATOM     28  C   UNL     1      47.395   1.180   6.819  0.00  0.00    +0.000 A 
ATOM     29  C   UNL     1      47.275   2.252   5.946  0.00  0.00    +0.000 A 
ATOM     30  C   UNL     1      46.409   3.271   6.292  0.00  0.00    +0.000 A 
ATOM     31  N   UNL     1      45.671   3.280   7.422  0.00  0.00    +0.000 NA
ATOM     32  H   UNL     1      44.488   1.305   9.412  0.00  0.00    +0.000 HD
ENDBRANCH  24  25
ENDBRANCH  21  24
ENDBRANCH  17  18
ENDBRANCH   3  17
TORSDOF 5
ENDMDL
MODEL 2
REMARK VINA RESULT:    -8.012      2.293      3.075
REMARK INTER + INTRA:         -11.125
REMARK INTER:                 -10.313
REMARK INTRA:                  -0.812
REMARK UNBOUND:                -0.771
REMARK  Name = 
REMARK  6 active torsions:
REMARK  status: ('A' for Active; 'I' for Inactive)
REMARK    1  A    between atoms: C_1  and  C_2
REMARK    2  A    between atoms: C_7  and  C_8
REMARK    3  A    between atoms: N_10  and  C_11
REMARK    4  A    between atoms: C_11  and  C_12
REMARK    5  A    between atoms: C_15  and  C_16
REMARK    6  A    between atoms: C_16  and  N_17
REMARK                            x       y       z     vdW  Elec       q    Type
REMARK                         _______ _______ _______ _____ _____    ______ ____
ROOT
ATOM      1  C   UNL     1      48.269   5.418  16.362  0.00  0.00    +0.000 C 
ATOM      2  O   UNL     1      47.206   5.085  16.879  0.00  0.00    +0.000 OA
ATOM      3  N   UNL     1      48.305   6.170  15.213  0.00  0.00    +0.000 N 
ATOM      4  H   UNL     1      49.196   6.376  14.773  0.00  0.00    +0.000 HD
ENDROOT
BRANCH   1  11
ATOM      5  C   UNL     1      52.750   0.416  17.794  0.00  0.00    +0.000 C 
ATOM      6  C   UNL     1      51.910   1.638  17.573  0.00  0.00    +0.000 A 
ATOM      7  N   UNL     1      52.310   2.804  17.969  0.00  0.00    +0.000 NA
ATOM      8  C   UNL     1      51.448   3.823  17.705  0.00  0.00    +0.000 A 
ATOM      9  S   UNL     1      51.827   5.415  18.165  0.00  0.00    +0.000 S 
ATOM     10  C   UNL     1      50.364   6.006  17.526  0.00  0.00    +0.000 A 
ATOM     11  C   UNL     1      49.561   5.025  16.951  0.00  0.00    +0.000 A 
ATOM     12  C   UNL     1      50.219   3.740  17.071  0.00  0.00    +0.000 A 
ATOM     13  C   UNL     1      49.811   2.412  16.651  0.00  0.00    +0.000 A 
ATOM     14  O   UNL     1      48.753   2.156  16.089  0.00  0.00    +0.000 OA
ATOM     15  N   UNL     1      50.716   1.414  16.933  0.00  0.00    +0.000 N 
ATOM     16  H   UNL     1      50.449   0.485  16.645  0.00  0.00    +0.000 HD
ENDBRANCH   1  11
BRANCH   3  17
ATOM     17  C   UNL     1      47.115   6.565  14.489  0.00  0.00    +0.000 C 
BRANCH  17  18
ATOM     18  C   UNL     1      46.828   5.652  13.287  0.00  0.00    +0.000 C 
ATOM     19  C   UNL     1      46.292   6.443  12.085  0.00  0.00    +0.000 C 
ATOM     20  C   UNL     1      45.998   5.527  10.899  0.00  0.00    +0.000 C 
ATOM     21  C   UNL     1      45.007   4.410  11.266  0.00  0.00    +0.000 C 
ATOM     22  C   UNL     1      45.514   3.635  12.497  0.00  0.00    +0.000 C 
ATOM     23  C   UNL     1      45.823   4.558  13.675  0.00  0.00    +0.000 C 
BRANCH  21  24
ATOM     24  C   UNL     1      44.783   3.430  10.098  0.00  0.00    +0.000 C 
BRANCH  24  25
ATOM     25  N   UNL     1      45.199   4.017   8.822  0.00  0.00    +0.000 N 
ATOM     26  C   UNL     1      45.911   3.117   8.003  0.00  0.00    +0.000 A 
ATOM     27  C   UNL     1      46.378   3.574   6.772  0.00  0.00    +0.000 A 
ATOM     28  C   UNL     1      47.105   2.716   5.951  0.00  0.00    +0.000 A 
ATOM     29  C   UNL     1      47.346   1.417   6.375  0.00  0.00    +0.000 A 
ATOM     30  C   UNL     1      46.837   1.034   7.601  0.00  0.00    +0.000 A 
ATOM     31  N   UNL     1      46.128   1.851   8.408  0.00  0.00    +0.000 NA
ATOM     32  H   UNL     1      45.799   4.826   8.955  0.00  0.00    +0.000 HD
ENDBRANCH  24  25
ENDBRANCH  21  24
ENDBRANCH  17  18
ENDBRANCH   3  17
TORSDOF 5
ENDMDL
MODEL 3
REMARK VINA RESULT:    -7.605      2.443      4.186
REMARK INTER + INTRA:         -10.599
REMARK INTER:                  -9.514
REMARK INTRA:                  -1.085
REMARK UNBOUND:                -0.771
REMARK  Name = 
REMARK  6 active torsions:
REMARK  status: ('A' for Active; 'I' for Inactive)
REMARK    1  A    between atoms: C_1  and  C_2
REMARK    2  A    between atoms: C_7  and  C_8
REMARK    3  A    between atoms: N_10  and  C_11
REMARK    4  A    between atoms: C_11  and  C_12
REMARK    5  A    between atoms: C_15  and  C_16
REMARK    6  A    between atoms: C_16  and  N_17
REMARK                            x       y       z     vdW  Elec       q    Type
REMARK                         _______ _______ _______ _____ _____    ______ ____
ROOT
ATOM      1  C   UNL     1      48.662   6.622  15.299  0.00  0.00    +0.000 C 
ATOM      2  O   UNL     1      49.062   5.769  16.087  0.00  0.00    +0.000 OA
ATOM      3  N   UNL     1      47.569   6.402  14.497  0.00  0.00    +0.000 N 
ATOM      4  H   UNL     1      47.299   7.100  13.810  0.00  0.00    +0.000 HD
ENDROOT
BRANCH   1  11
ATOM      5  C   UNL     1      51.662  11.287  11.250  0.00  0.00    +0.000 C 
ATOM      6  C   UNL     1      51.047  10.401  12.293  0.00  0.00    +0.000 A 
ATOM      7  N   UNL     1      51.019  10.756  13.538  0.00  0.00    +0.000 NA
ATOM      8  C   UNL     1      50.433   9.857  14.374  0.00  0.00    +0.000 A 
ATOM      9  S   UNL     1      50.320  10.173  16.041  0.00  0.00    +0.000 S 
ATOM     10  C   UNL     1      49.534   8.690  16.324  0.00  0.00    +0.000 A 
ATOM     11  C   UNL     1      49.336   7.927  15.178  0.00  0.00    +0.000 A 
ATOM     12  C   UNL     1      49.878   8.633  14.035  0.00  0.00    +0.000 A 
ATOM     13  C   UNL     1      49.939   8.277  12.630  0.00  0.00    +0.000 A 
ATOM     14  O   UNL     1      49.509   7.231  12.159  0.00  0.00    +0.000 OA
ATOM     15  N   UNL     1      50.534   9.218  11.821  0.00  0.00    +0.000 N 
ATOM     16  H   UNL     1      50.582   8.987  10.840  0.00  0.00    +0.000 HD
ENDBRANCH   1  11
BRANCH   3  17
ATOM     17  C   UNL     1      46.854   5.144  14.461  0.00  0.00    +0.000 C 
BRANCH  17  18
ATOM     18  C   UNL     1      46.465   4.730  13.033  0.00  0.00    +0.000 C 
ATOM     19  C   UNL     1      46.049   5.938  12.181  0.00  0.00    +0.000 C 
ATOM     20  C   UNL     1      45.653   5.516  10.768  0.00  0.00    +0.000 C 
ATOM     21  C   UNL     1      44.523   4.474  10.774  0.00  0.00    +0.000 C 
ATOM     22  C   UNL     1      44.912   3.274  11.658  0.00  0.00    +0.000 C 
ATOM     23  C   UNL     1      45.324   3.703  13.066  0.00  0.00    +0.000 C 
BRANCH  21  24
ATOM     24  C   UNL     1      44.187   3.977   9.354  0.00  0.00    +0.000 C 
BRANCH  24  25
ATOM     25  N   UNL     1      44.603   2.585   9.165  0.00  0.00    +0.000 N 
ATOM     26  C   UNL     1      45.708   2.449   8.300  0.00  0.00    +0.000 A 
ATOM     27  C   UNL     1      46.178   1.165   8.028  0.00  0.00    +0.000 A 
ATOM     28  C   UNL     1      47.254   0.997   7.159  0.00  0.00    +0.000 A 
ATOM     29  C   UNL     1      47.839   2.115   6.583  0.00  0.00    +0.000 A 
ATOM     30  C   UNL     1      47.326   3.354   6.914  0.00  0.00    +0.000 A 
ATOM     31  N   UNL     1      46.288   3.537   7.757  0.00  0.00    +0.000 NA
ATOM     32  H   UNL     1      43.857   2.016   8.776  0.00  0.00    +0.000 HD
ENDBRANCH  24  25
ENDBRANCH  21  24
ENDBRANCH  17  18
ENDBRANCH   3  17
TORSDOF 5
ENDMDL
MODEL 4
REMARK VINA RESULT:    -6.813      3.024      4.156
REMARK INTER + INTRA:          -9.576
REMARK INTER:                  -9.309
REMARK INTRA:                  -0.267
REMARK UNBOUND:                -0.771
REMARK  Name = 
REMARK  6 active torsions:
REMARK  status: ('A' for Active; 'I' for Inactive)
REMARK    1  A    between atoms: C_1  and  C_2
REMARK    2  A    between atoms: C_7  and  C_8
REMARK    3  A    between atoms: N_10  and  C_11
REMARK    4  A    between atoms: C_11  and  C_12
REMARK    5  A    between atoms: C_15  and  C_16
REMARK    6  A    between atoms: C_16  and  N_17
REMARK                            x       y       z     vdW  Elec       q    Type
REMARK                         _______ _______ _______ _____ _____    ______ ____
ROOT
ATOM      1  C   UNL     1      48.293   8.060  13.433  0.00  0.00    +0.000 C 
ATOM      2  O   UNL     1      48.141   7.673  14.589  0.00  0.00    +0.000 OA
ATOM      3  N   UNL     1      47.223   8.263  12.597  0.00  0.00    +0.000 N 
ATOM      4  H   UNL     1      47.382   8.522  11.628  0.00  0.00    +0.000 HD
ENDROOT
BRANCH   1  11
ATOM      5  C   UNL     1      54.703  10.263  14.531  0.00  0.00    +0.000 C 
ATOM      6  C   UNL     1      53.364   9.750  14.092  0.00  0.00    +0.000 A 
ATOM      7  N   UNL     1      53.160   9.380  12.869  0.00  0.00    +0.000 NA
ATOM      8  C   UNL     1      51.900   8.937  12.610  0.00  0.00    +0.000 A 
ATOM      9  S   UNL     1      51.470   8.418  11.049  0.00  0.00    +0.000 S 
ATOM     10  C   UNL     1      49.880   8.067  11.544  0.00  0.00    +0.000 A 
ATOM     11  C   UNL     1      49.636   8.328  12.888  0.00  0.00    +0.000 A 
ATOM     12  C   UNL     1      50.842   8.845  13.501  0.00  0.00    +0.000 A 
ATOM     13  C   UNL     1      51.118   9.278  14.858  0.00  0.00    +0.000 A 
ATOM     14  O   UNL     1      50.298   9.276  15.768  0.00  0.00    +0.000 OA
ATOM     15  N   UNL     1      52.406   9.711  15.075  0.00  0.00    +0.000 N 
ATOM     16  H   UNL     1      52.616  10.013  16.015  0.00  0.00    +0.000 HD
ENDBRANCH   1  11
BRANCH   3  17
ATOM     17  C   UNL     1      45.856   7.973  12.976  0.00  0.00    +0.000 C 
BRANCH  17  18
ATOM     18  C   UNL     1      45.183   6.969  12.027  0.00  0.00    +0.000 C 
ATOM     19  C   UNL     1      44.470   5.847  12.796  0.00  0.00    +0.000 C 
ATOM     20  C   UNL     1      43.815   4.848  11.845  0.00  0.00    +0.000 C 
ATOM     21  C   UNL     1      44.827   4.238  10.862  0.00  0.00    +0.000 C 
ATOM     22  C   UNL     1      45.579   5.355  10.114  0.00  0.00    +0.000 C 
ATOM     23  C   UNL     1      46.218   6.362  11.069  0.00  0.00    +0.000 C 
BRANCH  21  24
ATOM     24  C   UNL     1      44.151   3.301   9.842  0.00  0.00    +0.000 C 
BRANCH  24  25
ATOM     25  N   UNL     1      44.979   2.123   9.571  0.00  0.00    +0.000 N 
ATOM     26  C   UNL     1      45.718   2.227   8.375  0.00  0.00    +0.000 A 
ATOM     27  C   UNL     1      46.526   1.153   8.004  0.00  0.00    +0.000 A 
ATOM     28  C   UNL     1      47.250   1.217   6.815  0.00  0.00    +0.000 A 
ATOM     29  C   UNL     1      47.154   2.353   6.025  0.00  0.00    +0.000 A 
ATOM     30  C   UNL     1      46.345   3.381   6.469  0.00  0.00    +0.000 A 
ATOM     31  N   UNL     1      45.639   3.339   7.619  0.00  0.00    +0.000 NA
ATOM     32  H   UNL     1      44.423   1.277   9.497  0.00  0.00    +0.000 HD
ENDBRANCH  24  25
ENDBRANCH  21  24
ENDBRANCH  17  18
ENDBRANCH   3  17
TORSDOF 5
ENDMDL
MODEL 5
REMARK VINA RESULT:    -6.770      4.581      7.056
REMARK INTER + INTRA:          -9.520
REMARK INTER:                  -8.687
REMARK INTRA:                  -0.833
REMARK UNBOUND:                -0.771
REMARK  Name = 
REMARK  6 active torsions:
REMARK  status: ('A' for Active; 'I' for Inactive)
REMARK    1  A    between atoms: C_1  and  C_2
REMARK    2  A    between atoms: C_7  and  C_8
REMARK    3  A    between atoms: N_10  and  C_11
REMARK    4  A    between atoms: C_11  and  C_12
REMARK    5  A    between atoms: C_15  and  C_16
REMARK    6  A    between atoms: C_16  and  N_17
REMARK                            x       y       z     vdW  Elec       q    Type
REMARK                         _______ _______ _______ _____ _____    ______ ____
ROOT
ATOM      1  C   UNL     1      45.022   7.539  11.778  0.00  0.00    +0.000 C 
ATOM      2  O   UNL     1      44.481   8.359  11.042  0.00  0.00    +0.000 OA
ATOM      3  N   UNL     1      46.060   7.892  12.605  0.00  0.00    +0.000 N 
ATOM      4  H   UNL     1      46.530   7.180  13.156  0.00  0.00    +0.000 HD
ENDROOT
BRANCH   1  11
ATOM      5  C   UNL     1      44.888   1.394   8.716  0.00  0.00    +0.000 C 
ATOM      6  C   UNL     1      44.804   2.646   9.538  0.00  0.00    +0.000 A 
ATOM      7  N   UNL     1      44.178   2.660  10.672  0.00  0.00    +0.000 NA
ATOM      8  C   UNL     1      44.181   3.861  11.310  0.00  0.00    +0.000 A 
ATOM      9  S   UNL     1      43.398   4.045  12.808  0.00  0.00    +0.000 S 
ATOM     10  C   UNL     1      43.837   5.687  12.898  0.00  0.00    +0.000 A 
ATOM     11  C   UNL     1      44.581   6.133  11.811  0.00  0.00    +0.000 A 
ATOM     12  C   UNL     1      44.771   5.039  10.881  0.00  0.00    +0.000 A 
ATOM     13  C   UNL     1      45.455   4.975   9.603  0.00  0.00    +0.000 A 
ATOM     14  O   UNL     1      46.020   5.922   9.069  0.00  0.00    +0.000 OA
ATOM     15  N   UNL     1      45.433   3.740   8.997  0.00  0.00    +0.000 N 
ATOM     16  H   UNL     1      45.907   3.678   8.108  0.00  0.00    +0.000 HD
ENDBRANCH   1  11
BRANCH   3  17
ATOM     17  C   UNL     1      46.640   9.218  12.626  0.00  0.00    +0.000 C 
BRANCH  17  18
ATOM     18  C   UNL     1      48.174   9.190  12.526  0.00  0.00    +0.000 C 
ATOM     19  C   UNL     1      48.700  10.246  11.544  0.00  0.00    +0.000 C 
ATOM     20  C   UNL     1      50.223  10.203  11.442  0.00  0.00    +0.000 C 
ATOM     21  C   UNL     1      50.735   8.814  11.029  0.00  0.00    +0.000 C 
ATOM     22  C   UNL     1      50.179   7.740  11.984  0.00  0.00    +0.000 C 
ATOM     23  C   UNL     1      48.656   7.797  12.096  0.00  0.00    +0.000 C 
BRANCH  21  24
ATOM     24  C   UNL     1      52.275   8.743  11.018  0.00  0.00    +0.000 C 
BRANCH  24  25
ATOM     25  N   UNL     1      52.743   7.358  10.924  0.00  0.00    +0.000 N 
ATOM     26  C   UNL     1      53.069   6.971   9.608  0.00  0.00    +0.000 A 
ATOM     27  C   UNL     1      53.506   5.664   9.395  0.00  0.00    +0.000 A 
ATOM     28  C   UNL     1      53.813   5.245   8.102  0.00  0.00    +0.000 A 
ATOM     29  C   UNL     1      53.681   6.141   7.052  0.00  0.00    +0.000 A 
ATOM     30  C   UNL     1      53.258   7.422   7.346  0.00  0.00    +0.000 A 
ATOM     31  N   UNL     1      52.960   7.848   8.591  0.00  0.00    +0.000 NA
ATOM     32  H   UNL     1      52.046   6.699  11.257  0.00  0.00    +0.000 HD
ENDBRANCH  24  25
ENDBRANCH  21  24
ENDBRANCH  17  18
ENDBRANCH   3  17
TORSDOF 5
ENDMDL
MODEL 6
REMARK VINA RESULT:    -6.462      3.375      4.911
REMARK INTER + INTRA:          -9.122
REMARK INTER:                  -8.398
REMARK INTRA:                  -0.724
REMARK UNBOUND:                -0.771
REMARK  Name = 
REMARK  6 active torsions:
REMARK  status: ('A' for Active; 'I' for Inactive)
REMARK    1  A    between atoms: C_1  and  C_2
REMARK    2  A    between atoms: C_7  and  C_8
REMARK    3  A    between atoms: N_10  and  C_11
REMARK    4  A    between atoms: C_11  and  C_12
REMARK    5  A    between atoms: C_15  and  C_16
REMARK    6  A    between atoms: C_16  and  N_17
REMARK                            x       y       z     vdW  Elec       q    Type
REMARK                         _______ _______ _______ _____ _____    ______ ____
ROOT
ATOM      1  C   UNL     1      50.174   4.927  18.042  0.00  0.00    +0.000 C 
ATOM      2  O   UNL     1      49.141   4.768  18.687  0.00  0.00    +0.000 OA
ATOM      3  N   UNL     1      50.228   5.790  16.975  0.00  0.00    +0.000 N 
ATOM      4  H   UNL     1      51.076   5.855  16.421  0.00  0.00    +0.000 HD
ENDROOT
BRANCH   1  11
ATOM      5  C   UNL     1      53.889  -0.824  17.520  0.00  0.00    +0.000 C 
ATOM      6  C   UNL     1      53.237   0.507  17.752  0.00  0.00    +0.000 A 
ATOM      7  N   UNL     1      53.819   1.422  18.457  0.00  0.00    +0.000 NA
ATOM      8  C   UNL     1      53.114   2.579  18.586  0.00  0.00    +0.000 A 
ATOM      9  S   UNL     1      53.740   3.877  19.486  0.00  0.00    +0.000 S 
ATOM     10  C   UNL     1      52.366   4.830  19.171  0.00  0.00    +0.000 A 
ATOM     11  C   UNL     1      51.408   4.199  18.384  0.00  0.00    +0.000 A 
ATOM     12  C   UNL     1      51.868   2.866  18.050  0.00  0.00    +0.000 A 
ATOM     13  C   UNL     1      51.253   1.807  17.272  0.00  0.00    +0.000 A 
ATOM     14  O   UNL     1      50.153   1.886  16.739  0.00  0.00    +0.000 OA
ATOM     15  N   UNL     1      52.005   0.659  17.164  0.00  0.00    +0.000 N 
ATOM     16  H   UNL     1      51.593  -0.086  16.624  0.00  0.00    +0.000 HD
ENDBRANCH   1  11
BRANCH   3  17
ATOM     17  C   UNL     1      49.075   6.517  16.486  0.00  0.00    +0.000 C 
BRANCH  17  18
ATOM     18  C   UNL     1      48.384   5.802  15.314  0.00  0.00    +0.000 C 
ATOM     19  C   UNL     1      47.750   6.797  14.332  0.00  0.00    +0.000 C 
ATOM     20  C   UNL     1      47.055   6.078  13.178  0.00  0.00    +0.000 C 
ATOM     21  C   UNL     1      45.986   5.090  13.675  0.00  0.00    +0.000 C 
ATOM     22  C   UNL     1      46.601   4.112  14.694  0.00  0.00    +0.000 C 
ATOM     23  C   UNL     1      47.310   4.836  15.837  0.00  0.00    +0.000 C 
BRANCH  21  24
ATOM     24  C   UNL     1      45.350   4.295  12.518  0.00  0.00    +0.000 C 
BRANCH  24  25
ATOM     25  N   UNL     1      45.508   4.996  11.241  0.00  0.00    +0.000 N 
ATOM     26  C   UNL     1      45.389   4.146  10.123  0.00  0.00    +0.000 A 
ATOM     27  C   UNL     1      45.544   4.701   8.853  0.00  0.00    +0.000 A 
ATOM     28  C   UNL     1      45.455   3.882   7.730  0.00  0.00    +0.000 A 
ATOM     29  C   UNL     1      45.210   2.527   7.899  0.00  0.00    +0.000 A 
ATOM     30  C   UNL     1      45.053   2.056   9.188  0.00  0.00    +0.000 A 
ATOM     31  N   UNL     1      45.131   2.834  10.287  0.00  0.00    +0.000 NA
ATOM     32  H   UNL     1      46.413   5.450  11.167  0.00  0.00    +0.000 HD
ENDBRANCH  24  25
ENDBRANCH  21  24
ENDBRANCH  17  18
ENDBRANCH   3  17
TORSDOF 5
ENDMDL
MODEL 7
REMARK VINA RESULT:    -6.438      4.138      6.496
REMARK INTER + INTRA:          -9.091
REMARK INTER:                  -8.304
REMARK INTRA:                  -0.787
REMARK UNBOUND:                -0.771
REMARK  Name = 
REMARK  6 active torsions:
REMARK  status: ('A' for Active; 'I' for Inactive)
REMARK    1  A    between atoms: C_1  and  C_2
REMARK    2  A    between atoms: C_7  and  C_8
REMARK    3  A    between atoms: N_10  and  C_11
REMARK    4  A    between atoms: C_11  and  C_12
REMARK    5  A    between atoms: C_15  and  C_16
REMARK    6  A    between atoms: C_16  and  N_17
REMARK                            x       y       z     vdW  Elec       q    Type
REMARK                         _______ _______ _______ _____ _____    ______ ____
ROOT
ATOM      1  C   UNL     1      51.186   3.941  18.646  0.00  0.00    +0.000 C 
ATOM      2  O   UNL     1      51.007   4.548  19.699  0.00  0.00    +0.000 OA
ATOM      3  N   UNL     1      50.139   3.609  17.821  0.00  0.00    +0.000 N 
ATOM      4  H   UNL     1      50.309   3.052  16.989  0.00  0.00    +0.000 HD
ENDROOT
BRANCH   1  11
ATOM      5  C   UNL     1      55.318  -0.977  16.218  0.00  0.00    +0.000 C 
ATOM      6  C   UNL     1      54.586   0.220  16.747  0.00  0.00    +0.000 A 
ATOM      7  N   UNL     1      55.198   1.344  16.941  0.00  0.00    +0.000 NA
ATOM      8  C   UNL     1      54.413   2.346  17.424  0.00  0.00    +0.000 A 
ATOM      9  S   UNL     1      55.069   3.883  17.736  0.00  0.00    +0.000 S 
ATOM     10  C   UNL     1      53.564   4.477  18.264  0.00  0.00    +0.000 A 
ATOM     11  C   UNL     1      52.537   3.540  18.215  0.00  0.00    +0.000 A 
ATOM     12  C   UNL     1      53.061   2.284  17.719  0.00  0.00    +0.000 A 
ATOM     13  C   UNL     1      52.420   1.002  17.490  0.00  0.00    +0.000 A 
ATOM     14  O   UNL     1      51.238   0.768  17.708  0.00  0.00    +0.000 OA
ATOM     15  N   UNL     1      53.250   0.022  16.996  0.00  0.00    +0.000 N 
ATOM     16  H   UNL     1      52.820  -0.875  16.829  0.00  0.00    +0.000 HD
ENDBRANCH   1  11
BRANCH   3  17
ATOM     17  C   UNL     1      48.756   3.878  18.152  0.00  0.00    +0.000 C 
BRANCH  17  18
ATOM     18  C   UNL     1      48.042   4.703  17.070  0.00  0.00    +0.000 C 
ATOM     19  C   UNL     1      47.534   3.820  15.921  0.00  0.00    +0.000 C 
ATOM     20  C   UNL     1      46.837   4.650  14.845  0.00  0.00    +0.000 C 
ATOM     21  C   UNL     1      47.751   5.752  14.285  0.00  0.00    +0.000 C 
ATOM     22  C   UNL     1      48.300   6.620  15.433  0.00  0.00    +0.000 C 
ATOM     23  C   UNL     1      48.981   5.784  16.516  0.00  0.00    +0.000 C 
BRANCH  21  24
ATOM     24  C   UNL     1      47.019   6.649  13.267  0.00  0.00    +0.000 C 
BRANCH  24  25
ATOM     25  N   UNL     1      46.765   5.934  12.014  0.00  0.00    +0.000 N 
ATOM     26  C   UNL     1      45.408   5.596  11.833  0.00  0.00    +0.000 A 
ATOM     27  C   UNL     1      45.051   4.892  10.684  0.00  0.00    +0.000 A 
ATOM     28  C   UNL     1      43.723   4.523  10.489  0.00  0.00    +0.000 A 
ATOM     29  C   UNL     1      42.778   4.868  11.444  0.00  0.00    +0.000 A 
ATOM     30  C   UNL     1      43.207   5.579  12.548  0.00  0.00    +0.000 A 
ATOM     31  N   UNL     1      44.488   5.949  12.752  0.00  0.00    +0.000 NA
ATOM     32  H   UNL     1      47.291   5.067  11.958  0.00  0.00    +0.000 HD
ENDBRANCH  24  25
ENDBRANCH  21  24
ENDBRANCH  17  18
ENDBRANCH   3  17
TORSDOF 5
ENDMDL
MODEL 8
REMARK VINA RESULT:    -6.343      3.529      5.221
REMARK INTER + INTRA:          -8.969
REMARK INTER:                  -9.017
REMARK INTRA:                   0.049
REMARK UNBOUND:                -0.771
REMARK  Name = 
REMARK  6 active torsions:
REMARK  status: ('A' for Active; 'I' for Inactive)
REMARK    1  A    between atoms: C_1  and  C_2
REMARK    2  A    between atoms: C_7  and  C_8
REMARK    3  A    between atoms: N_10  and  C_11
REMARK    4  A    between atoms: C_11  and  C_12
REMARK    5  A    between atoms: C_15  and  C_16
REMARK    6  A    between atoms: C_16  and  N_17
REMARK                            x       y       z     vdW  Elec       q    Type
REMARK                         _______ _______ _______ _____ _____    ______ ____
ROOT
ATOM      1  C   UNL     1      48.668   7.813  12.881  0.00  0.00    +0.000 C 
ATOM      2  O   UNL     1      49.459   6.891  13.062  0.00  0.00    +0.000 OA
ATOM      3  N   UNL     1      47.374   7.747  13.335  0.00  0.00    +0.000 N 
ATOM      4  H   UNL     1      46.723   8.496  13.116  0.00  0.00    +0.000 HD
ENDROOT
BRANCH   1  11
ATOM      5  C   UNL     1      53.161  10.934   8.731  0.00  0.00    +0.000 C 
ATOM      6  C   UNL     1      52.077  10.436   9.640  0.00  0.00    +0.000 A 
ATOM      7  N   UNL     1      51.106  11.210  10.007  0.00  0.00    +0.000 NA
ATOM      8  C   UNL     1      50.194  10.629  10.832  0.00  0.00    +0.000 A 
ATOM      9  S   UNL     1      48.861  11.514  11.407  0.00  0.00    +0.000 S 
ATOM     10  C   UNL     1      48.282  10.176  12.285  0.00  0.00    +0.000 A 
ATOM     11  C   UNL     1      49.071   9.037  12.166  0.00  0.00    +0.000 A 
ATOM     12  C   UNL     1      50.199   9.326  11.305  0.00  0.00    +0.000 A 
ATOM     13  C   UNL     1      51.310   8.499  10.870  0.00  0.00    +0.000 A 
ATOM     14  O   UNL     1      51.477   7.332  11.201  0.00  0.00    +0.000 OA
ATOM     15  N   UNL     1      52.203   9.126  10.032  0.00  0.00    +0.000 N 
ATOM     16  H   UNL     1      52.980   8.565   9.719  0.00  0.00    +0.000 HD
ENDBRANCH   1  11
BRANCH   3  17
ATOM     17  C   UNL     1      46.822   6.580  13.989  0.00  0.00    +0.000 C 
BRANCH  17  18
ATOM     18  C   UNL     1      45.871   5.789  13.078  0.00  0.00    +0.000 C 
ATOM     19  C   UNL     1      46.007   4.274  13.287  0.00  0.00    +0.000 C 
ATOM     20  C   UNL     1      45.067   3.496  12.369  0.00  0.00    +0.000 C 
ATOM     21  C   UNL     1      45.296   3.836  10.888  0.00  0.00    +0.000 C 
ATOM     22  C   UNL     1      45.203   5.359  10.672  0.00  0.00    +0.000 C 
ATOM     23  C   UNL     1      46.132   6.133  11.605  0.00  0.00    +0.000 C 
BRANCH  21  24
ATOM     24  C   UNL     1      44.286   3.124   9.967  0.00  0.00    +0.000 C 
BRANCH  24  25
ATOM     25  N   UNL     1      44.811   1.841   9.493  0.00  0.00    +0.000 N 
ATOM     26  C   UNL     1      45.736   1.976   8.437  0.00  0.00    +0.000 A 
ATOM     27  C   UNL     1      46.285   0.817   7.890  0.00  0.00    +0.000 A 
ATOM     28  C   UNL     1      47.184   0.917   6.831  0.00  0.00    +0.000 A 
ATOM     29  C   UNL     1      47.518   2.173   6.343  0.00  0.00    +0.000 A 
ATOM     30  C   UNL     1      46.943   3.273   6.949  0.00  0.00    +0.000 A 
ATOM     31  N   UNL     1      46.074   3.196   7.978  0.00  0.00    +0.000 NA
ATOM     32  H   UNL     1      44.073   1.230   9.157  0.00  0.00    +0.000 HD
ENDBRANCH  24  25
ENDBRANCH  21  24
ENDBRANCH  17  18
ENDBRANCH   3  17
TORSDOF 5
ENDMDL
MODEL 9
REMARK VINA RESULT:    -6.182      3.587      8.470
REMARK INTER + INTRA:          -8.760
REMARK INTER:                  -7.622
REMARK INTRA:                  -1.138
REMARK UNBOUND:                -0.771
REMARK  Name = 
REMARK  6 active torsions:
REMARK  status: ('A' for Active; 'I' for Inactive)
REMARK    1  A    between atoms: C_1  and  C_2
REMARK    2  A    between atoms: C_7  and  C_8
REMARK    3  A    between atoms: N_10  and  C_11
REMARK    4  A    between atoms: C_11  and  C_12
REMARK    5  A    between atoms: C_15  and  C_16
REMARK    6  A    between atoms: C_16  and  N_17
REMARK                            x       y       z     vdW  Elec       q    Type
REMARK                         _______ _______ _______ _____ _____    ______ ____
ROOT
ATOM      1  C   UNL     1      47.844   8.071  14.028  0.00  0.00    +0.000 C 
ATOM      2  O   UNL     1      47.722   9.040  14.774  0.00  0.00    +0.000 OA
ATOM      3  N   UNL     1      49.033   7.393  13.921  0.00  0.00    +0.000 N 
ATOM      4  H   UNL     1      49.123   6.636  13.250  0.00  0.00    +0.000 HD
ENDROOT
BRANCH   1  11
ATOM      5  C   UNL     1      43.818   2.834  12.152  0.00  0.00    +0.000 C 
ATOM      6  C   UNL     1      44.582   4.095  12.429  0.00  0.00    +0.000 A 
ATOM      7  N   UNL     1      44.272   5.206  11.843  0.00  0.00    +0.000 NA
ATOM      8  C   UNL     1      45.048   6.269  12.187  0.00  0.00    +0.000 A 
ATOM      9  S   UNL     1      44.771   7.800  11.501  0.00  0.00    +0.000 S 
ATOM     10  C   UNL     1      46.054   8.488  12.383  0.00  0.00    +0.000 A 
ATOM     11  C   UNL     1      46.716   7.589  13.212  0.00  0.00    +0.000 A 
ATOM     12  C   UNL     1      46.108   6.280  13.079  0.00  0.00    +0.000 A 
ATOM     13  C   UNL     1      46.422   5.010  13.707  0.00  0.00    +0.000 A 
ATOM     14  O   UNL     1      47.331   4.838  14.509  0.00  0.00    +0.000 OA
ATOM     15  N   UNL     1      45.607   3.966  13.334  0.00  0.00    +0.000 N 
ATOM     16  H   UNL     1      45.810   3.075  13.763  0.00  0.00    +0.000 HD
ENDBRANCH   1  11
BRANCH   3  17
ATOM     17  C   UNL     1      50.240   7.798  14.610  0.00  0.00    +0.000 C 
BRANCH  17  18
ATOM     18  C   UNL     1      50.765   6.714  15.564  0.00  0.00    +0.000 C 
ATOM     19  C   UNL     1      49.749   6.383  16.666  0.00  0.00    +0.000 C 
ATOM     20  C   UNL     1      50.283   5.314  17.617  0.00  0.00    +0.000 C 
ATOM     21  C   UNL     1      51.620   5.726  18.254  0.00  0.00    +0.000 C 
ATOM     22  C   UNL     1      52.636   6.100  17.158  0.00  0.00    +0.000 C 
ATOM     23  C   UNL     1      52.091   7.157  16.199  0.00  0.00    +0.000 C 
BRANCH  21  24
ATOM     24  C   UNL     1      52.207   4.609  19.140  0.00  0.00    +0.000 C 
BRANCH  24  25
ATOM     25  N   UNL     1      51.757   3.287  18.697  0.00  0.00    +0.000 N 
ATOM     26  C   UNL     1      52.802   2.485  18.194  0.00  0.00    +0.000 A 
ATOM     27  C   UNL     1      52.486   1.212  17.722  0.00  0.00    +0.000 A 
ATOM     28  C   UNL     1      53.492   0.404  17.197  0.00  0.00    +0.000 A 
ATOM     29  C   UNL     1      54.793   0.885  17.158  0.00  0.00    +0.000 A 
ATOM     30  C   UNL     1      55.028   2.151  17.659  0.00  0.00    +0.000 A 
ATOM     31  N   UNL     1      54.067   2.945  18.175  0.00  0.00    +0.000 NA
ATOM     32  H   UNL     1      51.058   3.350  17.963  0.00  0.00    +0.000 HD
ENDBRANCH  24  25
ENDBRANCH  21  24
ENDBRANCH  17  18
ENDBRANCH   3  17
TORSDOF 5
ENDMDL
