MODEL 1
REMARK VINA RESULT:    -7.873      0.000      0.000
REMARK INTER + INTRA:         -10.566
REMARK INTER:                 -10.174
REMARK INTRA:                  -0.392
REMARK UNBOUND:                -0.392
REMARK  Name = 
REMARK  6 active torsions:
REMARK  status: ('A' for Active; 'I' for Inactive)
REMARK    1  A    between atoms: N_1  and  C_2
REMARK    2  A    between atoms: C_5  and  C_6
REMARK    3  A    between atoms: C_6  and  O_7
REMARK    4  A    between atoms: O_7  and  C_8
REMARK    5  A    between atoms: CA_11  and  C_12
REMARK    6  A    between atoms: C_12  and  OXT_14
REMARK                            x       y       z     vdW  Elec       q    Type
REMARK                         _______ _______ _______ _____ _____    ______ ____
ROOT
ATOM      1  O   UNL     1      44.709   4.614   9.861  0.00  0.00    +0.000 OA
ENDROOT
BRANCH   1   2
ATOM      2  C   UNL     1      45.369   4.678  11.056  0.00  0.00    +0.000 A 
ATOM      3  C   UNL     1      46.071   5.780  11.525  0.00  0.00    +0.000 A 
ATOM      4  C   UNL     1      46.667   5.744  12.791  0.00  0.00    +0.000 A 
ATOM      5  CA  UNL     1      46.544   4.582  13.567  0.00  0.00    +0.000 A 
ATOM      6  N   UNL     1      45.875   3.477  13.127  0.00  0.00    +0.000 NA
ATOM      7  C   UNL     1      45.315   3.557  11.887  0.00  0.00    +0.000 A 
BRANCH   5   8
ATOM      8  C   UNL     1      47.129   4.483  14.956  0.00  0.00    +0.000 C 
ATOM      9  O   UNL     1      46.742   3.679  15.764  0.00  0.00    +0.000 OA
BRANCH   8  10
ATOM     10  OXT UNL     1      48.128   5.361  15.228  0.00  0.00    +0.000 OA
ATOM     11  HXT UNL     1      48.896   4.988  15.707  0.00  0.00    +0.000 HD
ENDBRANCH   8  10
ENDBRANCH   5   8
ENDBRANCH   1   2
BRANCH   1  12
ATOM     12  C   UNL     1      44.261   3.309   9.473  0.00  0.00    +0.000 C 
BRANCH  12  16
ATOM     13  C   UNL     1      47.685   2.299   6.944  0.00  0.00    +0.000 C 
ATOM     14  C   UNL     1      46.845   3.525   6.576  0.00  0.00    +0.000 C 
ATOM     15  C   UNL     1      45.968   3.973   7.743  0.00  0.00    +0.000 C 
ATOM     16  C   UNL     1      45.084   2.832   8.269  0.00  0.00    +0.000 C 
ATOM     17  C   UNL     1      45.933   1.604   8.628  0.00  0.00    +0.000 C 
ATOM     18  C   UNL     1      46.799   1.156   7.451  0.00  0.00    +0.000 C 
BRANCH  13  19
ATOM     19  N   UNL     1      48.468   1.850   5.794  0.00  0.00    +0.000 NA
ATOM     20  H   UNL     1      47.882   1.853   4.959  0.00  0.00    +0.000 HD
ATOM     21  H   UNL     1      48.760   0.882   5.927  0.00  0.00    +0.000 HD
ENDBRANCH  13  19
ENDBRANCH  12  16
ENDBRANCH   1  12
TORSDOF 6
ENDMDL
MODEL 2
REMARK VINA RESULT:    -7.818      2.832      6.350
REMARK INTER + INTRA:         -10.496
REMARK INTER:                 -10.013
REMARK INTRA:                  -0.483
REMARK UNBOUND:                -0.392
REMARK  Name = 
REMARK  6 active torsions:
REMARK  status: ('A' for Active; 'I' for Inactive)
REMARK    1  A    between atoms: N_1  and  C_2
REMARK    2  A    between atoms: C_5  and  C_6
REMARK    3  A    between atoms: C_6  and  O_7
REMARK    4  A    between atoms: O_7  and  C_8
REMARK    5  A    between atoms: CA_11  and  C_12
REMARK    6  A    between atoms: C_12  and  OXT_14
REMARK                            x       y       z     vdW  Elec       q    Type
REMARK                         _______ _______ _______ _____ _____    ______ ____
ROOT
ATOM      1  O   UNL     1      43.658   4.521   9.962  0.00  0.00    +0.000 OA
ENDROOT
BRANCH   1   2
ATOM      2  C   UNL     1      44.527   3.761   9.231  0.00  0.00    +0.000 A 
ATOM      3  C   UNL     1      45.430   4.251   8.298  0.00  0.00    +0.000 A 
ATOM      4  C   UNL     1      46.307   3.376   7.646  0.00  0.00    +0.000 A 
ATOM      5  CA  UNL     1      46.253   2.007   7.949  0.00  0.00    +0.000 A 
ATOM      6  N   UNL     1      45.364   1.493   8.849  0.00  0.00    +0.000 NA
ATOM      7  C   UNL     1      44.529   2.383   9.456  0.00  0.00    +0.000 A 
BRANCH   5   8
ATOM      8  C   UNL     1      47.191   1.010   7.312  0.00  0.00    +0.000 C 
ATOM      9  O   UNL     1      48.028   1.333   6.509  0.00  0.00    +0.000 OA
BRANCH   8  10
ATOM     10  OXT UNL     1      47.029  -0.276   7.713  0.00  0.00    +0.000 OA
ATOM     11  HXT UNL     1      46.175  -0.689   7.468  0.00  0.00    +0.000 HD
ENDBRANCH   8  10
ENDBRANCH   5   8
ENDBRANCH   1   2
BRANCH   1  12
ATOM     12  C   UNL     1      43.358   4.027  11.274  0.00  0.00    +0.000 C 
BRANCH  12  16
ATOM     13  C   UNL     1      46.659   6.171  13.182  0.00  0.00    +0.000 C 
ATOM     14  C   UNL     1      46.262   4.801  13.740  0.00  0.00    +0.000 C 
ATOM     15  C   UNL     1      45.401   4.022  12.749  0.00  0.00    +0.000 C 
ATOM     16  C   UNL     1      44.165   4.822  12.308  0.00  0.00    +0.000 C 
ATOM     17  C   UNL     1      44.571   6.197  11.758  0.00  0.00    +0.000 C 
ATOM     18  C   UNL     1      45.424   6.974  12.760  0.00  0.00    +0.000 C 
BRANCH  13  19
ATOM     19  N   UNL     1      47.429   6.924  14.171  0.00  0.00    +0.000 NA
ATOM     20  H   UNL     1      46.969   6.865  15.080  0.00  0.00    +0.000 HD
ATOM     21  H   UNL     1      47.438   7.913  13.926  0.00  0.00    +0.000 HD
ENDBRANCH  13  19
ENDBRANCH  12  16
ENDBRANCH   1  12
TORSDOF 6
ENDMDL
MODEL 3
REMARK VINA RESULT:    -7.222      2.142      2.597
REMARK INTER + INTRA:          -9.725
REMARK INTER:                  -9.255
REMARK INTRA:                  -0.470
REMARK UNBOUND:                -0.392
REMARK  Name = 
REMARK  6 active torsions:
REMARK  status: ('A' for Active; 'I' for Inactive)
REMARK    1  A    between atoms: N_1  and  C_2
REMARK    2  A    between atoms: C_5  and  C_6
REMARK    3  A    between atoms: C_6  and  O_7
REMARK    4  A    between atoms: O_7  and  C_8
REMARK    5  A    between atoms: CA_11  and  C_12
REMARK    6  A    between atoms: C_12  and  OXT_14
REMARK                            x       y       z     vdW  Elec       q    Type
REMARK                         _______ _______ _______ _____ _____    ______ ____
ROOT
ATOM      1  O   UNL     1      44.913   3.476  10.746  0.00  0.00    +0.000 OA
ENDROOT
BRANCH   1   2
ATOM      2  C   UNL     1      45.173   4.635  11.421  0.00  0.00    +0.000 A 
ATOM      3  C   UNL     1      46.082   4.770  12.461  0.00  0.00    +0.000 A 
ATOM      4  C   UNL     1      46.298   6.023  13.045  0.00  0.00    +0.000 A 
ATOM      5  CA  UNL     1      45.582   7.130  12.564  0.00  0.00    +0.000 A 
ATOM      6  N   UNL     1      44.669   7.026  11.555  0.00  0.00    +0.000 NA
ATOM      7  C   UNL     1      44.490   5.785  11.020  0.00  0.00    +0.000 A 
BRANCH   5   8
ATOM      8  C   UNL     1      45.789   8.519  13.120  0.00  0.00    +0.000 C 
ATOM      9  O   UNL     1      46.760   8.817  13.767  0.00  0.00    +0.000 OA
BRANCH   8  10
ATOM     10  OXT UNL     1      44.808   9.410  12.832  0.00  0.00    +0.000 OA
ATOM     11  HXT UNL     1      43.928   9.205  13.211  0.00  0.00    +0.000 HD
ENDBRANCH   8  10
ENDBRANCH   5   8
ENDBRANCH   1   2
BRANCH   1  12
ATOM     12  C   UNL     1      44.166   3.623   9.531  0.00  0.00    +0.000 C 
BRANCH  12  16
ATOM     13  C   UNL     1      47.569   2.275   7.137  0.00  0.00    +0.000 C 
ATOM     14  C   UNL     1      46.843   3.555   6.714  0.00  0.00    +0.000 C 
ATOM     15  C   UNL     1      45.972   4.102   7.842  0.00  0.00    +0.000 C 
ATOM     16  C   UNL     1      44.983   3.051   8.366  0.00  0.00    +0.000 C 
ATOM     17  C   UNL     1      45.717   1.767   8.779  0.00  0.00    +0.000 C 
ATOM     18  C   UNL     1      46.578   1.221   7.642  0.00  0.00    +0.000 C 
BRANCH  13  19
ATOM     19  N   UNL     1      48.347   1.734   6.022  0.00  0.00    +0.000 NA
ATOM     20  H   UNL     1      48.067   2.193   5.155  0.00  0.00    +0.000 HD
ATOM     21  H   UNL     1      48.135   0.745   5.897  0.00  0.00    +0.000 HD
ENDBRANCH  13  19
ENDBRANCH  12  16
ENDBRANCH   1  12
TORSDOF 6
ENDMDL
MODEL 4
REMARK VINA RESULT:    -7.067      2.941      6.658
REMARK INTER + INTRA:          -9.525
REMARK INTER:                  -9.121
REMARK INTRA:                  -0.404
REMARK UNBOUND:                -0.392
REMARK  Name = 
REMARK  6 active torsions:
REMARK  status: ('A' for Active; 'I' for Inactive)
REMARK    1  A    between atoms: N_1  and  C_2
REMARK    2  A    between atoms: C_5  and  C_6
REMARK    3  A    between atoms: C_6  and  O_7
REMARK    4  A    between atoms: O_7  and  C_8
REMARK    5  A    between atoms: CA_11  and  C_12
REMARK    6  A    between atoms: C_12  and  OXT_14
REMARK                            x       y       z     vdW  Elec       q    Type
REMARK                         _______ _______ _______ _____ _____    ______ ____
ROOT
ATOM      1  O   UNL     1      44.172   4.877  10.048  0.00  0.00    +0.000 OA
ENDROOT
BRANCH   1   2
ATOM      2  C   UNL     1      44.893   4.016   9.269  0.00  0.00    +0.000 A 
ATOM      3  C   UNL     1      45.654   4.380   8.167  0.00  0.00    +0.000 A 
ATOM      4  C   UNL     1      46.391   3.412   7.474  0.00  0.00    +0.000 A 
ATOM      5  CA  UNL     1      46.341   2.079   7.910  0.00  0.00    +0.000 A 
ATOM      6  N   UNL     1      45.588   1.688   8.979  0.00  0.00    +0.000 NA
ATOM      7  C   UNL     1      44.885   2.665   9.620  0.00  0.00    +0.000 A 
BRANCH   5   8
ATOM      8  C   UNL     1      47.137   0.987   7.235  0.00  0.00    +0.000 C 
ATOM      9  O   UNL     1      47.959   1.219   6.386  0.00  0.00    +0.000 OA
BRANCH   8  10
ATOM     10  OXT UNL     1      46.865  -0.273   7.657  0.00  0.00    +0.000 OA
ATOM     11  HXT UNL     1      46.689  -0.926   6.948  0.00  0.00    +0.000 HD
ENDBRANCH   8  10
ENDBRANCH   5   8
ENDBRANCH   1   2
BRANCH   1  12
ATOM     12  C   UNL     1      44.553   4.925  11.430  0.00  0.00    +0.000 C 
BRANCH  12  16
ATOM     13  C   UNL     1      46.322   8.496  13.233  0.00  0.00    +0.000 C 
ATOM     14  C   UNL     1      45.535   8.653  11.929  0.00  0.00    +0.000 C 
ATOM     15  C   UNL     1      44.661   7.432  11.653  0.00  0.00    +0.000 C 
ATOM     16  C   UNL     1      45.475   6.129  11.656  0.00  0.00    +0.000 C 
ATOM     17  C   UNL     1      46.268   5.984  12.963  0.00  0.00    +0.000 C 
ATOM     18  C   UNL     1      47.148   7.206  13.227  0.00  0.00    +0.000 C 
BRANCH  13  19
ATOM     19  N   UNL     1      47.198   9.647  13.444  0.00  0.00    +0.000 NA
ATOM     20  H   UNL     1      47.278  10.181  12.579  0.00  0.00    +0.000 HD
ATOM     21  H   UNL     1      48.142   9.331  13.666  0.00  0.00    +0.000 HD
ENDBRANCH  13  19
ENDBRANCH  12  16
ENDBRANCH   1  12
TORSDOF 6
ENDMDL
MODEL 5
REMARK VINA RESULT:    -6.901      2.648      6.473
REMARK INTER + INTRA:          -9.310
REMARK INTER:                  -9.086
REMARK INTRA:                  -0.225
REMARK UNBOUND:                -0.392
REMARK  Name = 
REMARK  6 active torsions:
REMARK  status: ('A' for Active; 'I' for Inactive)
REMARK    1  A    between atoms: N_1  and  C_2
REMARK    2  A    between atoms: C_5  and  C_6
REMARK    3  A    between atoms: C_6  and  O_7
REMARK    4  A    between atoms: O_7  and  C_8
REMARK    5  A    between atoms: CA_11  and  C_12
REMARK    6  A    between atoms: C_12  and  OXT_14
REMARK                            x       y       z     vdW  Elec       q    Type
REMARK                         _______ _______ _______ _____ _____    ______ ____
ROOT
ATOM      1  O   UNL     1      43.709   3.644  10.396  0.00  0.00    +0.000 OA
ENDROOT
BRANCH   1   2
ATOM      2  C   UNL     1      44.606   3.237   9.448  0.00  0.00    +0.000 A 
ATOM      3  C   UNL     1      45.107   1.950   9.321  0.00  0.00    +0.000 A 
ATOM      4  C   UNL     1      45.986   1.640   8.276  0.00  0.00    +0.000 A 
ATOM      5  CA  UNL     1      46.348   2.649   7.371  0.00  0.00    +0.000 A 
ATOM      6  N   UNL     1      45.885   3.928   7.480  0.00  0.00    +0.000 NA
ATOM      7  C   UNL     1      45.035   4.183   8.515  0.00  0.00    +0.000 A 
BRANCH   5   8
ATOM      8  C   UNL     1      47.262   2.380   6.199  0.00  0.00    +0.000 C 
ATOM      9  O   UNL     1      47.083   2.873   5.115  0.00  0.00    +0.000 OA
BRANCH   8  10
ATOM     10  OXT UNL     1      48.304   1.550   6.455  0.00  0.00    +0.000 OA
ATOM     11  HXT UNL     1      48.079   0.732   6.945  0.00  0.00    +0.000 HD
ENDBRANCH   8  10
ENDBRANCH   5   8
ENDBRANCH   1   2
BRANCH   1  12
ATOM     12  C   UNL     1      43.930   4.955  10.933  0.00  0.00    +0.000 C 
BRANCH  12  16
ATOM     13  C   UNL     1      47.046   5.708  13.910  0.00  0.00    +0.000 C 
ATOM     14  C   UNL     1      47.062   6.527  12.616  0.00  0.00    +0.000 C 
ATOM     15  C   UNL     1      45.723   6.446  11.886  0.00  0.00    +0.000 C 
ATOM     16  C   UNL     1      45.302   4.993  11.618  0.00  0.00    +0.000 C 
ATOM     17  C   UNL     1      45.297   4.176  12.918  0.00  0.00    +0.000 C 
ATOM     18  C   UNL     1      46.643   4.255  13.637  0.00  0.00    +0.000 C 
BRANCH  13  19
ATOM     19  N   UNL     1      48.355   5.748  14.559  0.00  0.00    +0.000 NA
ATOM     20  H   UNL     1      48.857   6.586  14.265  0.00  0.00    +0.000 HD
ATOM     21  H   UNL     1      48.922   4.959  14.250  0.00  0.00    +0.000 HD
ENDBRANCH  13  19
ENDBRANCH  12  16
ENDBRANCH   1  12
TORSDOF 6
ENDMDL
MODEL 6
REMARK VINA RESULT:    -5.880      2.834      7.993
REMARK INTER + INTRA:          -7.991
REMARK INTER:                  -7.748
REMARK INTRA:                  -0.243
REMARK UNBOUND:                -0.392
REMARK  Name = 
REMARK  6 active torsions:
REMARK  status: ('A' for Active; 'I' for Inactive)
REMARK    1  A    between atoms: N_1  and  C_2
REMARK    2  A    between atoms: C_5  and  C_6
REMARK    3  A    between atoms: C_6  and  O_7
REMARK    4  A    between atoms: O_7  and  C_8
REMARK    5  A    between atoms: CA_11  and  C_12
REMARK    6  A    between atoms: C_12  and  OXT_14
REMARK                            x       y       z     vdW  Elec       q    Type
REMARK                         _______ _______ _______ _____ _____    ______ ____
ROOT
ATOM      1  O   UNL     1      45.827   4.390  14.411  0.00  0.00    +0.000 OA
ENDROOT
BRANCH   1   2
ATOM      2  C   UNL     1      45.633   4.534  13.066  0.00  0.00    +0.000 A 
ATOM      3  C   UNL     1      45.832   5.705  12.349  0.00  0.00    +0.000 A 
ATOM      4  C   UNL     1      45.648   5.717  10.961  0.00  0.00    +0.000 A 
ATOM      5  CA  UNL     1      45.258   4.533  10.317  0.00  0.00    +0.000 A 
ATOM      6  N   UNL     1      45.038   3.370  10.997  0.00  0.00    +0.000 NA
ATOM      7  C   UNL     1      45.227   3.408  12.346  0.00  0.00    +0.000 A 
BRANCH   5   8
ATOM      8  C   UNL     1      45.075   4.460   8.819  0.00  0.00    +0.000 C 
ATOM      9  O   UNL     1      46.004   4.496   8.054  0.00  0.00    +0.000 OA
BRANCH   8  10
ATOM     10  OXT UNL     1      43.791   4.345   8.397  0.00  0.00    +0.000 OA
ATOM     11  HXT UNL     1      43.606   4.711   7.508  0.00  0.00    +0.000 HD
ENDBRANCH   8  10
ENDBRANCH   5   8
ENDBRANCH   1   2
BRANCH   1  12
ATOM     12  C   UNL     1      47.191   4.445  14.848  0.00  0.00    +0.000 C 
BRANCH  12  16
ATOM     13  C   UNL     1      48.740   4.005  18.915  0.00  0.00    +0.000 C 
ATOM     14  C   UNL     1      48.007   2.818  18.283  0.00  0.00    +0.000 C 
ATOM     15  C   UNL     1      47.894   2.973  16.768  0.00  0.00    +0.000 C 
ATOM     16  C   UNL     1      47.237   4.305  16.374  0.00  0.00    +0.000 C 
ATOM     17  C   UNL     1      47.972   5.489  17.019  0.00  0.00    +0.000 C 
ATOM     18  C   UNL     1      48.072   5.331  18.536  0.00  0.00    +0.000 C 
BRANCH  13  19
ATOM     19  N   UNL     1      48.781   3.866  20.370  0.00  0.00    +0.000 NA
ATOM     20  H   UNL     1      48.911   4.782  20.797  0.00  0.00    +0.000 HD
ATOM     21  H   UNL     1      49.591   3.311  20.644  0.00  0.00    +0.000 HD
ENDBRANCH  13  19
ENDBRANCH  12  16
ENDBRANCH   1  12
TORSDOF 6
ENDMDL
MODEL 7
REMARK VINA RESULT:    -5.872      3.351      5.382
REMARK INTER + INTRA:          -7.981
REMARK INTER:                  -7.728
REMARK INTRA:                  -0.253
REMARK UNBOUND:                -0.392
REMARK  Name = 
REMARK  6 active torsions:
REMARK  status: ('A' for Active; 'I' for Inactive)
REMARK    1  A    between atoms: N_1  and  C_2
REMARK    2  A    between atoms: C_5  and  C_6
REMARK    3  A    between atoms: C_6  and  O_7
REMARK    4  A    between atoms: O_7  and  C_8
REMARK    5  A    between atoms: CA_11  and  C_12
REMARK    6  A    between atoms: C_12  and  OXT_14
REMARK                            x       y       z     vdW  Elec       q    Type
REMARK                         _______ _______ _______ _____ _____    ______ ____
ROOT
ATOM      1  O   UNL     1      47.229   3.422  14.451  0.00  0.00    +0.000 OA
ENDROOT
BRANCH   1   2
ATOM      2  C   UNL     1      47.678   3.514  15.738  0.00  0.00    +0.000 A 
ATOM      3  C   UNL     1      48.488   2.583  16.372  0.00  0.00    +0.000 A 
ATOM      4  C   UNL     1      48.926   2.811  17.682  0.00  0.00    +0.000 A 
ATOM      5  CA  UNL     1      48.529   3.988  18.336  0.00  0.00    +0.000 A 
ATOM      6  N   UNL     1      47.719   4.914  17.744  0.00  0.00    +0.000 NA
ATOM      7  C   UNL     1      47.316   4.647  16.470  0.00  0.00    +0.000 A 
BRANCH   5   8
ATOM      8  C   UNL     1      48.991   4.320  19.735  0.00  0.00    +0.000 C 
ATOM      9  O   UNL     1      49.863   5.121  19.954  0.00  0.00    +0.000 OA
BRANCH   8  10
ATOM     10  OXT UNL     1      48.349   3.656  20.729  0.00  0.00    +0.000 OA
ATOM     11  HXT UNL     1      48.250   4.151  21.569  0.00  0.00    +0.000 HD
ENDBRANCH   8  10
ENDBRANCH   5   8
ENDBRANCH   1   2
BRANCH   1  12
ATOM     12  C   UNL     1      46.264   4.408  14.061  0.00  0.00    +0.000 C 
BRANCH  12  16
ATOM     13  C   UNL     1      44.150   4.598  10.236  0.00  0.00    +0.000 C 
ATOM     14  C   UNL     1      44.305   3.234  10.915  0.00  0.00    +0.000 C 
ATOM     15  C   UNL     1      44.687   3.382  12.386  0.00  0.00    +0.000 C 
ATOM     16  C   UNL     1      45.948   4.240  12.570  0.00  0.00    +0.000 C 
ATOM     17  C   UNL     1      45.787   5.602  11.879  0.00  0.00    +0.000 C 
ATOM     18  C   UNL     1      45.416   5.445  10.405  0.00  0.00    +0.000 C 
BRANCH  13  19
ATOM     19  N   UNL     1      43.847   4.432   8.815  0.00  0.00    +0.000 NA
ATOM     20  H   UNL     1      43.897   5.336   8.347  0.00  0.00    +0.000 HD
ATOM     21  H   UNL     1      42.888   4.109   8.699  0.00  0.00    +0.000 HD
ENDBRANCH  13  19
ENDBRANCH  12  16
ENDBRANCH   1  12
TORSDOF 6
ENDMDL
MODEL 8
REMARK VINA RESULT:    -5.682      3.191      7.654
REMARK INTER + INTRA:          -7.735
REMARK INTER:                  -7.382
REMARK INTRA:                  -0.353
REMARK UNBOUND:                -0.392
REMARK  Name = 
REMARK  6 active torsions:
REMARK  status: ('A' for Active; 'I' for Inactive)
REMARK    1  A    between atoms: N_1  and  C_2
REMARK    2  A    between atoms: C_5  and  C_6
REMARK    3  A    between atoms: C_6  and  O_7
REMARK    4  A    between atoms: O_7  and  C_8
REMARK    5  A    between atoms: CA_11  and  C_12
REMARK    6  A    between atoms: C_12  and  OXT_14
REMARK                            x       y       z     vdW  Elec       q    Type
REMARK                         _______ _______ _______ _____ _____    ______ ____
ROOT
ATOM      1  O   UNL     1      47.665   4.685  14.884  0.00  0.00    +0.000 OA
ENDROOT
BRANCH   1   2
ATOM      2  C   UNL     1      46.737   4.647  13.881  0.00  0.00    +0.000 A 
ATOM      3  C   UNL     1      46.186   5.757  13.257  0.00  0.00    +0.000 A 
ATOM      4  C   UNL     1      45.279   5.590  12.204  0.00  0.00    +0.000 A 
ATOM      5  CA  UNL     1      44.939   4.290  11.798  0.00  0.00    +0.000 A 
ATOM      6  N   UNL     1      45.452   3.180  12.404  0.00  0.00    +0.000 NA
ATOM      7  C   UNL     1      46.328   3.392  13.426  0.00  0.00    +0.000 A 
BRANCH   5   8
ATOM      8  C   UNL     1      43.996   4.033  10.647  0.00  0.00    +0.000 C 
ATOM      9  O   UNL     1      43.756   2.924  10.245  0.00  0.00    +0.000 OA
BRANCH   8  10
ATOM     10  OXT UNL     1      43.433   5.140  10.101  0.00  0.00    +0.000 OA
ATOM     11  HXT UNL     1      43.427   5.935  10.674  0.00  0.00    +0.000 HD
ENDBRANCH   8  10
ENDBRANCH   5   8
ENDBRANCH   1   2
BRANCH   1  12
ATOM     12  C   UNL     1      47.162   4.420  16.200  0.00  0.00    +0.000 C 
BRANCH  12  16
ATOM     13  C   UNL     1      51.102   2.974  17.431  0.00  0.00    +0.000 C 
ATOM     14  C   UNL     1      50.009   1.944  17.136  0.00  0.00    +0.000 C 
ATOM     15  C   UNL     1      48.857   2.562  16.347  0.00  0.00    +0.000 C 
ATOM     16  C   UNL     1      48.278   3.800  17.050  0.00  0.00    +0.000 C 
ATOM     17  C   UNL     1      49.382   4.824  17.350  0.00  0.00    +0.000 C 
ATOM     18  C   UNL     1      50.526   4.200  18.148  0.00  0.00    +0.000 C 
BRANCH  13  19
ATOM     19  N   UNL     1      52.164   2.377  18.240  0.00  0.00    +0.000 NA
ATOM     20  H   UNL     1      52.205   1.374  18.065  0.00  0.00    +0.000 HD
ATOM     21  H   UNL     1      51.947   2.480  19.231  0.00  0.00    +0.000 HD
ENDBRANCH  13  19
ENDBRANCH  12  16
ENDBRANCH   1  12
TORSDOF 6
ENDMDL
MODEL 9
REMARK VINA RESULT:    -5.543      3.988      8.021
REMARK INTER + INTRA:          -7.555
REMARK INTER:                  -7.313
REMARK INTRA:                  -0.242
REMARK UNBOUND:                -0.392
REMARK  Name = 
REMARK  6 active torsions:
REMARK  status: ('A' for Active; 'I' for Inactive)
REMARK    1  A    between atoms: N_1  and  C_2
REMARK    2  A    between atoms: C_5  and  C_6
REMARK    3  A    between atoms: C_6  and  O_7
REMARK    4  A    between atoms: O_7  and  C_8
REMARK    5  A    between atoms: CA_11  and  C_12
REMARK    6  A    between atoms: C_12  and  OXT_14
REMARK                            x       y       z     vdW  Elec       q    Type
REMARK                         _______ _______ _______ _____ _____    ______ ____
ROOT
ATOM      1  O   UNL     1      48.175   5.465  14.023  0.00  0.00    +0.000 OA
ENDROOT
BRANCH   1   2
ATOM      2  C   UNL     1      47.033   5.553  13.277  0.00  0.00    +0.000 A 
ATOM      3  C   UNL     1      46.849   6.398  12.191  0.00  0.00    +0.000 A 
ATOM      4  C   UNL     1      45.648   6.363  11.472  0.00  0.00    +0.000 A 
ATOM      5  CA  UNL     1      44.644   5.468  11.870  0.00  0.00    +0.000 A 
ATOM      6  N   UNL     1      44.789   4.637  12.943  0.00  0.00    +0.000 NA
ATOM      7  C   UNL     1      45.973   4.709  13.614  0.00  0.00    +0.000 A 
BRANCH   5   8
ATOM      8  C   UNL     1      43.337   5.349  11.121  0.00  0.00    +0.000 C 
ATOM      9  O   UNL     1      42.270   5.484  11.661  0.00  0.00    +0.000 OA
BRANCH   8  10
ATOM     10  OXT UNL     1      43.452   5.085   9.795  0.00  0.00    +0.000 OA
ATOM     11  HXT UNL     1      42.794   5.528   9.220  0.00  0.00    +0.000 HD
ENDBRANCH   8  10
ENDBRANCH   5   8
ENDBRANCH   1   2
BRANCH   1  12
ATOM     12  C   UNL     1      48.227   6.317  15.174  0.00  0.00    +0.000 C 
BRANCH  12  16
ATOM     13  C   UNL     1      48.111   4.542  19.171  0.00  0.00    +0.000 C 
ATOM     14  C   UNL     1      49.181   5.595  18.873  0.00  0.00    +0.000 C 
ATOM     15  C   UNL     1      48.846   6.393  17.615  0.00  0.00    +0.000 C 
ATOM     16  C   UNL     1      48.613   5.481  16.401  0.00  0.00    +0.000 C 
ATOM     17  C   UNL     1      47.545   4.422  16.710  0.00  0.00    +0.000 C 
ATOM     18  C   UNL     1      47.892   3.622  17.965  0.00  0.00    +0.000 C 
BRANCH  13  19
ATOM     19  N   UNL     1      48.483   3.749  20.341  0.00  0.00    +0.000 NA
ATOM     20  H   UNL     1      49.127   3.009  20.063  0.00  0.00    +0.000 HD
ATOM     21  H   UNL     1      47.661   3.278  20.719  0.00  0.00    +0.000 HD
ENDBRANCH  13  19
ENDBRANCH  12  16
ENDBRANCH   1  12
TORSDOF 6
ENDMDL
