MODEL 1
REMARK VINA RESULT:    -8.630      0.000      0.000
REMARK INTER + INTRA:         -13.084
REMARK INTER:                 -12.161
REMARK INTRA:                  -0.923
REMARK UNBOUND:                -0.923
REMARK  Name = 
REMARK  7 active torsions:
REMARK  status: ('A' for Active; 'I' for Inactive)
REMARK    1  A    between atoms: C_2  and  C_3
REMARK    2  A    between atoms: N_7  and  C_8
REMARK    3  A    between atoms: C_8  and  C_9
REMARK    4  A    between atoms: C_9  and  C_10
REMARK    5  A    between atoms: C_12  and  N_13
REMARK    6  A    between atoms: N_13  and  C_14
REMARK    7  A    between atoms: C_19  and  C_20
REMARK                            x       y       z     vdW  Elec       q    Type
REMARK                         _______ _______ _______ _____ _____    ______ ____
ROOT
ATOM      1  C   UNL     1      44.888   5.603  12.667  0.00  0.00    +0.000 A 
ATOM      2  C   UNL     1      45.327   4.668  13.618  0.00  0.00    +0.000 A 
ATOM      3  C   UNL     1      46.632   4.702  14.116  0.00  0.00    +0.000 A 
ATOM      4  C   UNL     1      47.505   5.691  13.649  0.00  0.00    +0.000 A 
ATOM      5  C   UNL     1      47.080   6.664  12.729  0.00  0.00    +0.000 A 
ATOM      6  C   UNL     1      45.760   6.619  12.255  0.00  0.00    +0.000 A 
ENDROOT
BRANCH   5   7
ATOM      7  C   UNL     1      48.025   7.731  12.236  0.00  0.00    +0.000 C 
ATOM      8  F   UNL     1      49.047   8.000  13.095  0.00  0.00    +0.000 F 
ATOM      9  F   UNL     1      48.613   7.394  11.054  0.00  0.00    +0.000 F 
ATOM     10  F   UNL     1      47.400   8.921  12.014  0.00  0.00    +0.000 F 
ENDBRANCH   5   7
BRANCH   3  11
ATOM     11  N   UNL     1      47.119   3.768  15.053  0.00  0.00    +0.000 N 
ATOM     12  H   UNL     1      46.449   3.007  15.173  0.00  0.00    +0.000 HD
BRANCH  11  13
ATOM     13  C   UNL     1      47.856   4.074  16.249  0.00  0.00    +0.000 C 
ATOM     14  C   UNL     1      48.288   2.808  17.025  0.00  0.00    +0.000 C 
ATOM     15  N   UNL     1      47.914   3.486  18.288  0.00  0.00    +0.000 NA
ATOM     16  C   UNL     1      47.031   4.389  17.512  0.00  0.00    +0.000 C 
ATOM     17  H   UNL     1      48.700   3.968  18.726  0.00  0.00    +0.000 HD
ENDBRANCH  11  13
ENDBRANCH   3  11
BRANCH   1  18
ATOM     18  C   UNL     1      43.492   5.509  12.097  0.00  0.00    +0.000 C 
BRANCH  18  19
ATOM     19  C   UNL     1      43.367   4.368  11.089  0.00  0.00    +0.000 C 
BRANCH  19  24
ATOM     20  C   UNL     1      46.578   2.689   7.574  0.00  0.00    +0.000 A 
ATOM     21  C   UNL     1      45.688   1.976   8.367  0.00  0.00    +0.000 A 
ATOM     22  C   UNL     1      44.736   2.669   9.114  0.00  0.00    +0.000 A 
ATOM     23  C   UNL     1      44.705   4.060   9.076  0.00  0.00    +0.000 A 
ATOM     24  N   UNL     1      43.760   4.812   9.757  0.00  0.00    +0.000 N 
ATOM     25  N   UNL     1      45.570   4.762   8.317  0.00  0.00    +0.000 NA
ATOM     26  C   UNL     1      46.479   4.069   7.582  0.00  0.00    +0.000 A 
ATOM     27  H   UNL     1      44.047   5.786   9.679  0.00  0.00    +0.000 HD
BRANCH  20  29
ATOM     28  N   UNL     1      48.345   1.478   6.127  0.00  0.00    +0.000 NA
ATOM     29  C   UNL     1      47.556   2.024   6.774  0.00  0.00    +0.000 C 
ENDBRANCH  20  29
ENDBRANCH  19  24
ENDBRANCH  18  19
ENDBRANCH   1  18
TORSDOF 7
ENDMDL
MODEL 2
REMARK VINA RESULT:    -7.885      2.636      4.063
REMARK INTER + INTRA:         -12.034
REMARK INTER:                 -11.100
REMARK INTRA:                  -0.934
REMARK UNBOUND:                -0.923
REMARK  Name = 
REMARK  7 active torsions:
REMARK  status: ('A' for Active; 'I' for Inactive)
REMARK    1  A    between atoms: C_2  and  C_3
REMARK    2  A    between atoms: N_7  and  C_8
REMARK    3  A    between atoms: C_8  and  C_9
REMARK    4  A    between atoms: C_9  and  C_10
REMARK    5  A    between atoms: C_12  and  N_13
REMARK    6  A    between atoms: N_13  and  C_14
REMARK    7  A    between atoms: C_19  and  C_20
REMARK                            x       y       z     vdW  Elec       q    Type
REMARK                         _______ _______ _______ _____ _____    ______ ____
ROOT
ATOM      1  C   UNL     1      44.902   5.619  12.578  0.00  0.00    +0.000 A 
ATOM      2  C   UNL     1      45.699   6.573  11.925  0.00  0.00    +0.000 A 
ATOM      3  C   UNL     1      47.007   6.830  12.342  0.00  0.00    +0.000 A 
ATOM      4  C   UNL     1      47.518   6.116  13.432  0.00  0.00    +0.000 A 
ATOM      5  C   UNL     1      46.758   5.127  14.078  0.00  0.00    +0.000 A 
ATOM      6  C   UNL     1      45.452   4.876  13.631  0.00  0.00    +0.000 A 
ENDROOT
BRANCH   5   7
ATOM      7  C   UNL     1      47.318   4.357  15.248  0.00  0.00    +0.000 C 
ATOM      8  F   UNL     1      47.620   3.060  14.957  0.00  0.00    +0.000 F 
ATOM      9  F   UNL     1      48.469   4.907  15.725  0.00  0.00    +0.000 F 
ATOM     10  F   UNL     1      46.460   4.312  16.305  0.00  0.00    +0.000 F 
ENDBRANCH   5   7
BRANCH   3  11
ATOM     11  N   UNL     1      47.832   7.795  11.729  0.00  0.00    +0.000 N 
ATOM     12  H   UNL     1      47.803   7.690  10.714  0.00  0.00    +0.000 HD
BRANCH  11  13
ATOM     13  C   UNL     1      49.101   8.260  12.219  0.00  0.00    +0.000 C 
ATOM     14  C   UNL     1      49.510   9.625  11.619  0.00  0.00    +0.000 C 
ATOM     15  N   UNL     1      50.892   9.115  11.467  0.00  0.00    +0.000 NA
ATOM     16  C   UNL     1      50.358   7.732  11.501  0.00  0.00    +0.000 C 
ATOM     17  H   UNL     1      51.487   9.338  12.265  0.00  0.00    +0.000 HD
ENDBRANCH  11  13
ENDBRANCH   3  11
BRANCH   1  18
ATOM     18  C   UNL     1      43.470   5.402  12.148  0.00  0.00    +0.000 C 
BRANCH  18  19
ATOM     19  C   UNL     1      43.347   4.258  11.142  0.00  0.00    +0.000 C 
BRANCH  19  24
ATOM     20  C   UNL     1      46.535   2.651   7.573  0.00  0.00    +0.000 A 
ATOM     21  C   UNL     1      45.677   1.918   8.382  0.00  0.00    +0.000 A 
ATOM     22  C   UNL     1      44.722   2.590   9.145  0.00  0.00    +0.000 A 
ATOM     23  C   UNL     1      44.657   3.979   9.106  0.00  0.00    +0.000 A 
ATOM     24  N   UNL     1      43.706   4.710   9.803  0.00  0.00    +0.000 N 
ATOM     25  N   UNL     1      45.492   4.701   8.331  0.00  0.00    +0.000 NA
ATOM     26  C   UNL     1      46.403   4.029   7.581  0.00  0.00    +0.000 A 
ATOM     27  H   UNL     1      43.969   5.691   9.719  0.00  0.00    +0.000 HD
BRANCH  20  29
ATOM     28  N   UNL     1      48.311   1.484   6.101  0.00  0.00    +0.000 NA
ATOM     29  C   UNL     1      47.515   2.009   6.756  0.00  0.00    +0.000 C 
ENDBRANCH  20  29
ENDBRANCH  19  24
ENDBRANCH  18  19
ENDBRANCH   1  18
TORSDOF 7
ENDMDL
MODEL 3
REMARK VINA RESULT:    -7.314      2.284      2.878
REMARK INTER + INTRA:         -11.230
REMARK INTER:                 -10.391
REMARK INTRA:                  -0.839
REMARK UNBOUND:                -0.923
REMARK  Name = 
REMARK  7 active torsions:
REMARK  status: ('A' for Active; 'I' for Inactive)
REMARK    1  A    between atoms: C_2  and  C_3
REMARK    2  A    between atoms: N_7  and  C_8
REMARK    3  A    between atoms: C_8  and  C_9
REMARK    4  A    between atoms: C_9  and  C_10
REMARK    5  A    between atoms: C_12  and  N_13
REMARK    6  A    between atoms: N_13  and  C_14
REMARK    7  A    between atoms: C_19  and  C_20
REMARK                            x       y       z     vdW  Elec       q    Type
REMARK                         _______ _______ _______ _____ _____    ______ ____
ROOT
ATOM      1  C   UNL     1      44.175   6.419  12.132  0.00  0.00    +0.000 A 
ATOM      2  C   UNL     1      45.388   6.037  12.725  0.00  0.00    +0.000 A 
ATOM      3  C   UNL     1      46.456   6.931  12.827  0.00  0.00    +0.000 A 
ATOM      4  C   UNL     1      46.298   8.228  12.325  0.00  0.00    +0.000 A 
ATOM      5  C   UNL     1      45.081   8.650  11.763  0.00  0.00    +0.000 A 
ATOM      6  C   UNL     1      44.018   7.738  11.687  0.00  0.00    +0.000 A 
ENDROOT
BRANCH   5   7
ATOM      7  C   UNL     1      44.915  10.051  11.231  0.00  0.00    +0.000 C 
ATOM      8  F   UNL     1      44.211  10.873  12.058  0.00  0.00    +0.000 F 
ATOM      9  F   UNL     1      46.111  10.670  11.024  0.00  0.00    +0.000 F 
ATOM     10  F   UNL     1      44.268  10.083  10.033  0.00  0.00    +0.000 F 
ENDBRANCH   5   7
BRANCH   3  11
ATOM     11  N   UNL     1      47.699   6.580  13.393  0.00  0.00    +0.000 N 
ATOM     12  H   UNL     1      47.738   5.575  13.562  0.00  0.00    +0.000 HD
BRANCH  11  13
ATOM     13  C   UNL     1      48.438   7.351  14.357  0.00  0.00    +0.000 C 
ATOM     14  C   UNL     1      49.930   7.503  13.982  0.00  0.00    +0.000 C 
ATOM     15  N   UNL     1      50.284   7.262  15.400  0.00  0.00    +0.000 NA
ATOM     16  C   UNL     1      48.974   6.593  15.586  0.00  0.00    +0.000 C 
ATOM     17  H   UNL     1      50.378   8.124  15.937  0.00  0.00    +0.000 HD
ENDBRANCH  11  13
ENDBRANCH   3  11
BRANCH   1  18
ATOM     18  C   UNL     1      43.055   5.416  11.977  0.00  0.00    +0.000 C 
BRANCH  18  19
ATOM     19  C   UNL     1      43.467   4.238  11.094  0.00  0.00    +0.000 C 
BRANCH  19  24
ATOM     20  C   UNL     1      46.628   2.678   7.481  0.00  0.00    +0.000 A 
ATOM     21  C   UNL     1      45.793   1.932   8.303  0.00  0.00    +0.000 A 
ATOM     22  C   UNL     1      44.839   2.590   9.079  0.00  0.00    +0.000 A 
ATOM     23  C   UNL     1      44.752   3.978   9.040  0.00  0.00    +0.000 A 
ATOM     24  N   UNL     1      43.800   4.694   9.750  0.00  0.00    +0.000 N 
ATOM     25  N   UNL     1      45.564   4.712   8.253  0.00  0.00    +0.000 NA
ATOM     26  C   UNL     1      46.475   4.053   7.491  0.00  0.00    +0.000 A 
ATOM     27  H   UNL     1      44.046   5.679   9.662  0.00  0.00    +0.000 HD
BRANCH  20  29
ATOM     28  N   UNL     1      48.392   1.539   5.973  0.00  0.00    +0.000 NA
ATOM     29  C   UNL     1      47.606   2.050   6.651  0.00  0.00    +0.000 C 
ENDBRANCH  20  29
ENDBRANCH  19  24
ENDBRANCH  18  19
ENDBRANCH   1  18
TORSDOF 7
ENDMDL
MODEL 4
REMARK VINA RESULT:    -6.941      2.898      7.704
REMARK INTER + INTRA:         -10.705
REMARK INTER:                  -9.626
REMARK INTRA:                  -1.078
REMARK UNBOUND:                -0.923
REMARK  Name = 
REMARK  7 active torsions:
REMARK  status: ('A' for Active; 'I' for Inactive)
REMARK    1  A    between atoms: C_2  and  C_3
REMARK    2  A    between atoms: N_7  and  C_8
REMARK    3  A    between atoms: C_8  and  C_9
REMARK    4  A    between atoms: C_9  and  C_10
REMARK    5  A    between atoms: C_12  and  N_13
REMARK    6  A    between atoms: N_13  and  C_14
REMARK    7  A    between atoms: C_19  and  C_20
REMARK                            x       y       z     vdW  Elec       q    Type
REMARK                         _______ _______ _______ _____ _____    ______ ____
ROOT
ATOM      1  C   UNL     1      45.684   5.716  10.281  0.00  0.00    +0.000 A 
ATOM      2  C   UNL     1      46.021   5.146   9.044  0.00  0.00    +0.000 A 
ATOM      3  C   UNL     1      45.574   3.870   8.691  0.00  0.00    +0.000 A 
ATOM      4  C   UNL     1      44.778   3.161   9.597  0.00  0.00    +0.000 A 
ATOM      5  C   UNL     1      44.392   3.723  10.825  0.00  0.00    +0.000 A 
ATOM      6  C   UNL     1      44.840   5.013  11.151  0.00  0.00    +0.000 A 
ENDROOT
BRANCH   5   7
ATOM      7  C   UNL     1      43.528   2.956  11.794  0.00  0.00    +0.000 C 
ATOM      8  F   UNL     1      42.995   1.816  11.271  0.00  0.00    +0.000 F 
ATOM      9  F   UNL     1      44.216   2.567  12.903  0.00  0.00    +0.000 F 
ATOM     10  F   UNL     1      42.473   3.687  12.248  0.00  0.00    +0.000 F 
ENDBRANCH   5   7
BRANCH   3  11
ATOM     11  N   UNL     1      45.909   3.252   7.468  0.00  0.00    +0.000 N 
ATOM     12  H   UNL     1      45.275   2.475   7.281  0.00  0.00    +0.000 HD
BRANCH  11  13
ATOM     13  C   UNL     1      47.239   3.039   6.963  0.00  0.00    +0.000 C 
ATOM     14  C   UNL     1      47.269   2.826   5.432  0.00  0.00    +0.000 C 
ATOM     15  N   UNL     1      48.254   1.738   5.628  0.00  0.00    +0.000 NA
ATOM     16  C   UNL     1      47.783   1.599   7.027  0.00  0.00    +0.000 C 
ATOM     17  H   UNL     1      49.220   2.060   5.558  0.00  0.00    +0.000 HD
ENDBRANCH  11  13
ENDBRANCH   3  11
BRANCH   1  18
ATOM     18  C   UNL     1      46.229   7.071  10.668  0.00  0.00    +0.000 C 
BRANCH  18  19
ATOM     19  C   UNL     1      46.199   7.284  12.181  0.00  0.00    +0.000 C 
BRANCH  19  24
ATOM     20  C   UNL     1      47.819   4.532  16.090  0.00  0.00    +0.000 A 
ATOM     21  C   UNL     1      46.859   4.225  15.135  0.00  0.00    +0.000 A 
ATOM     22  C   UNL     1      46.731   5.043  14.013  0.00  0.00    +0.000 A 
ATOM     23  C   UNL     1      47.545   6.163  13.876  0.00  0.00    +0.000 A 
ATOM     24  N   UNL     1      47.503   6.995  12.767  0.00  0.00    +0.000 N 
ATOM     25  N   UNL     1      48.473   6.476  14.802  0.00  0.00    +0.000 NA
ATOM     26  C   UNL     1      48.596   5.657  15.880  0.00  0.00    +0.000 A 
ATOM     27  H   UNL     1      48.083   7.804  12.983  0.00  0.00    +0.000 HD
BRANCH  20  29
ATOM     28  N   UNL     1      48.161   3.046  18.178  0.00  0.00    +0.000 NA
ATOM     29  C   UNL     1      48.005   3.714  17.246  0.00  0.00    +0.000 C 
ENDBRANCH  20  29
ENDBRANCH  19  24
ENDBRANCH  18  19
ENDBRANCH   1  18
TORSDOF 7
ENDMDL
MODEL 5
REMARK VINA RESULT:    -6.533      2.207      7.645
REMARK INTER + INTRA:         -10.129
REMARK INTER:                  -9.669
REMARK INTRA:                  -0.460
REMARK UNBOUND:                -0.923
REMARK  Name = 
REMARK  7 active torsions:
REMARK  status: ('A' for Active; 'I' for Inactive)
REMARK    1  A    between atoms: C_2  and  C_3
REMARK    2  A    between atoms: N_7  and  C_8
REMARK    3  A    between atoms: C_8  and  C_9
REMARK    4  A    between atoms: C_9  and  C_10
REMARK    5  A    between atoms: C_12  and  N_13
REMARK    6  A    between atoms: N_13  and  C_14
REMARK    7  A    between atoms: C_19  and  C_20
REMARK                            x       y       z     vdW  Elec       q    Type
REMARK                         _______ _______ _______ _____ _____    ______ ____
ROOT
ATOM      1  C   UNL     1      46.223   4.722  13.028  0.00  0.00    +0.000 A 
ATOM      2  C   UNL     1      45.386   4.350  11.966  0.00  0.00    +0.000 A 
ATOM      3  C   UNL     1      44.745   5.311  11.179  0.00  0.00    +0.000 A 
ATOM      4  C   UNL     1      44.952   6.664  11.469  0.00  0.00    +0.000 A 
ATOM      5  C   UNL     1      45.816   7.066  12.501  0.00  0.00    +0.000 A 
ATOM      6  C   UNL     1      46.461   6.083  13.266  0.00  0.00    +0.000 A 
ENDROOT
BRANCH   5   7
ATOM      7  C   UNL     1      46.040   8.527  12.803  0.00  0.00    +0.000 C 
ATOM      8  F   UNL     1      46.756   9.182  11.846  0.00  0.00    +0.000 F 
ATOM      9  F   UNL     1      44.870   9.214  12.925  0.00  0.00    +0.000 F 
ATOM     10  F   UNL     1      46.711   8.723  13.972  0.00  0.00    +0.000 F 
ENDBRANCH   5   7
BRANCH   3  11
ATOM     11  N   UNL     1      43.878   4.979  10.118  0.00  0.00    +0.000 N 
ATOM     12  H   UNL     1      42.962   4.714  10.481  0.00  0.00    +0.000 HD
BRANCH  11  13
ATOM     13  C   UNL     1      44.241   4.278   8.916  0.00  0.00    +0.000 C 
ATOM     14  C   UNL     1      44.537   2.781   9.163  0.00  0.00    +0.000 C 
ATOM     15  N   UNL     1      45.700   2.887   8.253  0.00  0.00    +0.000 NA
ATOM     16  C   UNL     1      45.720   4.350   8.490  0.00  0.00    +0.000 C 
ATOM     17  H   UNL     1      45.474   2.637   7.289  0.00  0.00    +0.000 HD
ENDBRANCH  11  13
ENDBRANCH   3  11
BRANCH   1  18
ATOM     18  C   UNL     1      46.857   3.666  13.903  0.00  0.00    +0.000 C 
BRANCH  18  19
ATOM     19  C   UNL     1      47.099   4.177  15.324  0.00  0.00    +0.000 C 
BRANCH  19  24
ATOM     20  C   UNL     1      51.383   3.060  17.749  0.00  0.00    +0.000 A 
ATOM     21  C   UNL     1      50.737   4.283  17.619  0.00  0.00    +0.000 A 
ATOM     22  C   UNL     1      49.446   4.317  17.093  0.00  0.00    +0.000 A 
ATOM     23  C   UNL     1      48.833   3.138  16.684  0.00  0.00    +0.000 A 
ATOM     24  N   UNL     1      47.537   3.092  16.193  0.00  0.00    +0.000 N 
ATOM     25  N   UNL     1      49.455   1.947  16.796  0.00  0.00    +0.000 NA
ATOM     26  C   UNL     1      50.705   1.930  17.328  0.00  0.00    +0.000 A 
ATOM     27  H   UNL     1      47.390   2.148  15.837  0.00  0.00    +0.000 HD
BRANCH  20  29
ATOM     28  N   UNL     1      53.763   2.892  18.743  0.00  0.00    +0.000 NA
ATOM     29  C   UNL     1      52.696   2.969  18.302  0.00  0.00    +0.000 C 
ENDBRANCH  20  29
ENDBRANCH  19  24
ENDBRANCH  18  19
ENDBRANCH   1  18
TORSDOF 7
ENDMDL
MODEL 6
REMARK VINA RESULT:    -6.366      2.868      7.256
REMARK INTER + INTRA:          -9.893
REMARK INTER:                  -9.107
REMARK INTRA:                  -0.786
REMARK UNBOUND:                -0.923
REMARK  Name = 
REMARK  7 active torsions:
REMARK  status: ('A' for Active; 'I' for Inactive)
REMARK    1  A    between atoms: C_2  and  C_3
REMARK    2  A    between atoms: N_7  and  C_8
REMARK    3  A    between atoms: C_8  and  C_9
REMARK    4  A    between atoms: C_9  and  C_10
REMARK    5  A    between atoms: C_12  and  N_13
REMARK    6  A    between atoms: N_13  and  C_14
REMARK    7  A    between atoms: C_19  and  C_20
REMARK                            x       y       z     vdW  Elec       q    Type
REMARK                         _______ _______ _______ _____ _____    ______ ____
ROOT
ATOM      1  C   UNL     1      47.907   6.867  13.679  0.00  0.00    +0.000 A 
ATOM      2  C   UNL     1      47.408   5.608  13.311  0.00  0.00    +0.000 A 
ATOM      3  C   UNL     1      46.259   5.486  12.527  0.00  0.00    +0.000 A 
ATOM      4  C   UNL     1      45.604   6.650  12.108  0.00  0.00    +0.000 A 
ATOM      5  C   UNL     1      46.104   7.923  12.426  0.00  0.00    +0.000 A 
ATOM      6  C   UNL     1      47.269   8.020  13.202  0.00  0.00    +0.000 A 
ENDROOT
BRANCH   5   7
ATOM      7  C   UNL     1      45.397   9.173  11.965  0.00  0.00    +0.000 C 
ATOM      8  F   UNL     1      44.562   8.973  10.907  0.00  0.00    +0.000 F 
ATOM      9  F   UNL     1      44.627   9.723  12.946  0.00  0.00    +0.000 F 
ATOM     10  F   UNL     1      46.261  10.152  11.579  0.00  0.00    +0.000 F 
ENDBRANCH   5   7
BRANCH   3  11
ATOM     11  N   UNL     1      45.713   4.240  12.156  0.00  0.00    +0.000 N 
ATOM     12  H   UNL     1      46.414   3.678  11.673  0.00  0.00    +0.000 HD
BRANCH  11  13
ATOM     13  C   UNL     1      44.372   4.009  11.689  0.00  0.00    +0.000 C 
ATOM     14  C   UNL     1      43.539   3.148  12.667  0.00  0.00    +0.000 C 
ATOM     15  N   UNL     1      42.996   2.403  11.508  0.00  0.00    +0.000 NA
ATOM     16  C   UNL     1      44.171   2.833  10.713  0.00  0.00    +0.000 C 
ATOM     17  H   UNL     1      42.114   2.789  11.167  0.00  0.00    +0.000 HD
ENDBRANCH  11  13
ENDBRANCH   3  11
BRANCH   1  18
ATOM     18  C   UNL     1      49.116   6.974  14.578  0.00  0.00    +0.000 C 
BRANCH  18  19
ATOM     19  C   UNL     1      48.719   7.196  16.038  0.00  0.00    +0.000 C 
BRANCH  19  24
ATOM     20  C   UNL     1      50.700   2.764  17.423  0.00  0.00    +0.000 A 
ATOM     21  C   UNL     1      51.191   4.048  17.618  0.00  0.00    +0.000 A 
ATOM     22  C   UNL     1      50.367   5.140  17.349  0.00  0.00    +0.000 A 
ATOM     23  C   UNL     1      49.078   4.933  16.867  0.00  0.00    +0.000 A 
ATOM     24  N   UNL     1      48.189   5.969  16.620  0.00  0.00    +0.000 N 
ATOM     25  N   UNL     1      48.594   3.691  16.665  0.00  0.00    +0.000 NA
ATOM     26  C   UNL     1      49.405   2.639  16.950  0.00  0.00    +0.000 A 
ATOM     27  H   UNL     1      47.386   5.560  16.145  0.00  0.00    +0.000 HD
BRANCH  20  29
ATOM     28  N   UNL     1      52.136   0.678  17.940  0.00  0.00    +0.000 NA
ATOM     29  C   UNL     1      51.496   1.613  17.705  0.00  0.00    +0.000 C 
ENDBRANCH  20  29
ENDBRANCH  19  24
ENDBRANCH  18  19
ENDBRANCH   1  18
TORSDOF 7
ENDMDL
MODEL 7
REMARK VINA RESULT:    -6.259      3.801      5.617
REMARK INTER + INTRA:          -9.743
REMARK INTER:                  -8.767
REMARK INTRA:                  -0.976
REMARK UNBOUND:                -0.923
REMARK  Name = 
REMARK  7 active torsions:
REMARK  status: ('A' for Active; 'I' for Inactive)
REMARK    1  A    between atoms: C_2  and  C_3
REMARK    2  A    between atoms: N_7  and  C_8
REMARK    3  A    between atoms: C_8  and  C_9
REMARK    4  A    between atoms: C_9  and  C_10
REMARK    5  A    between atoms: C_12  and  N_13
REMARK    6  A    between atoms: N_13  and  C_14
REMARK    7  A    between atoms: C_19  and  C_20
REMARK                            x       y       z     vdW  Elec       q    Type
REMARK                         _______ _______ _______ _____ _____    ______ ____
ROOT
ATOM      1  C   UNL     1      45.493   6.438  12.536  0.00  0.00    +0.000 A 
ATOM      2  C   UNL     1      46.258   5.826  13.543  0.00  0.00    +0.000 A 
ATOM      3  C   UNL     1      46.384   4.437  13.611  0.00  0.00    +0.000 A 
ATOM      4  C   UNL     1      45.732   3.654  12.652  0.00  0.00    +0.000 A 
ATOM      5  C   UNL     1      44.994   4.240  11.610  0.00  0.00    +0.000 A 
ATOM      6  C   UNL     1      44.894   5.639  11.553  0.00  0.00    +0.000 A 
ENDROOT
BRANCH   5   7
ATOM      7  C   UNL     1      44.299   3.390  10.576  0.00  0.00    +0.000 C 
ATOM      8  F   UNL     1      43.834   4.097   9.507  0.00  0.00    +0.000 F 
ATOM      9  F   UNL     1      45.119   2.433  10.058  0.00  0.00    +0.000 F 
ATOM     10  F   UNL     1      43.223   2.725  11.081  0.00  0.00    +0.000 F 
ENDBRANCH   5   7
BRANCH   3  11
ATOM     11  N   UNL     1      47.123   3.783  14.618  0.00  0.00    +0.000 N 
ATOM     12  H   UNL     1      47.155   2.779  14.436  0.00  0.00    +0.000 HD
BRANCH  11  13
ATOM     13  C   UNL     1      47.119   4.110  16.019  0.00  0.00    +0.000 C 
ATOM     14  C   UNL     1      48.246   5.096  16.405  0.00  0.00    +0.000 C 
ATOM     15  N   UNL     1      48.496   4.292  17.623  0.00  0.00    +0.000 NA
ATOM     16  C   UNL     1      47.849   3.134  16.961  0.00  0.00    +0.000 C 
ATOM     17  H   UNL     1      47.981   4.633  18.436  0.00  0.00    +0.000 HD
ENDBRANCH  11  13
ENDBRANCH   3  11
BRANCH   1  18
ATOM     18  C   UNL     1      45.320   7.938  12.519  0.00  0.00    +0.000 C 
BRANCH  18  19
ATOM     19  C   UNL     1      46.500   8.653  13.177  0.00  0.00    +0.000 C 
BRANCH  19  24
ATOM     20  C   UNL     1      51.117   8.584  11.138  0.00  0.00    +0.000 A 
ATOM     21  C   UNL     1      50.246   7.530  11.380  0.00  0.00    +0.000 A 
ATOM     22  C   UNL     1      48.929   7.808  11.747  0.00  0.00    +0.000 A 
ATOM     23  C   UNL     1      48.513   9.128  11.888  0.00  0.00    +0.000 A 
ATOM     24  N   UNL     1      47.209   9.478  12.206  0.00  0.00    +0.000 N 
ATOM     25  N   UNL     1      49.353  10.158  11.665  0.00  0.00    +0.000 NA
ATOM     26  C   UNL     1      50.627   9.869  11.291  0.00  0.00    +0.000 A 
ATOM     27  H   UNL     1      47.209  10.480  12.389  0.00  0.00    +0.000 HD
BRANCH  20  29
ATOM     28  N   UNL     1      53.566   8.171  10.422  0.00  0.00    +0.000 NA
ATOM     29  C   UNL     1      52.469   8.353  10.739  0.00  0.00    +0.000 C 
ENDBRANCH  20  29
ENDBRANCH  19  24
ENDBRANCH  18  19
ENDBRANCH   1  18
TORSDOF 7
ENDMDL
MODEL 8
REMARK VINA RESULT:    -6.108      3.997      7.922
REMARK INTER + INTRA:          -9.531
REMARK INTER:                  -8.889
REMARK INTRA:                  -0.642
REMARK UNBOUND:                -0.923
REMARK  Name = 
REMARK  7 active torsions:
REMARK  status: ('A' for Active; 'I' for Inactive)
REMARK    1  A    between atoms: C_2  and  C_3
REMARK    2  A    between atoms: N_7  and  C_8
REMARK    3  A    between atoms: C_8  and  C_9
REMARK    4  A    between atoms: C_9  and  C_10
REMARK    5  A    between atoms: C_12  and  N_13
REMARK    6  A    between atoms: N_13  and  C_14
REMARK    7  A    between atoms: C_19  and  C_20
REMARK                            x       y       z     vdW  Elec       q    Type
REMARK                         _______ _______ _______ _____ _____    ______ ____
ROOT
ATOM      1  C   UNL     1      46.456   4.696  13.262  0.00  0.00    +0.000 A 
ATOM      2  C   UNL     1      47.049   5.950  13.049  0.00  0.00    +0.000 A 
ATOM      3  C   UNL     1      46.453   6.900  12.216  0.00  0.00    +0.000 A 
ATOM      4  C   UNL     1      45.244   6.580  11.588  0.00  0.00    +0.000 A 
ATOM      5  C   UNL     1      44.608   5.349  11.814  0.00  0.00    +0.000 A 
ATOM      6  C   UNL     1      45.218   4.417  12.669  0.00  0.00    +0.000 A 
ENDROOT
BRANCH   5   7
ATOM      7  C   UNL     1      43.301   5.013  11.140  0.00  0.00    +0.000 C 
ATOM      8  F   UNL     1      42.366   6.001  11.233  0.00  0.00    +0.000 F 
ATOM      9  F   UNL     1      43.454   4.772   9.808  0.00  0.00    +0.000 F 
ATOM     10  F   UNL     1      42.717   3.896  11.656  0.00  0.00    +0.000 F 
ENDBRANCH   5   7
BRANCH   3  11
ATOM     11  N   UNL     1      47.028   8.162  11.958  0.00  0.00    +0.000 N 
ATOM     12  H   UNL     1      47.997   8.053  11.658  0.00  0.00    +0.000 HD
BRANCH  11  13
ATOM     13  C   UNL     1      46.793   9.368  12.705  0.00  0.00    +0.000 C 
ATOM     14  C   UNL     1      45.934  10.393  11.929  0.00  0.00    +0.000 C 
ATOM     15  N   UNL     1      46.833  11.469  12.406  0.00  0.00    +0.000 NA
ATOM     16  C   UNL     1      47.886  10.451  12.636  0.00  0.00    +0.000 C 
ATOM     17  H   UNL     1      46.503  11.910  13.266  0.00  0.00    +0.000 HD
ENDBRANCH  11  13
ENDBRANCH   3  11
BRANCH   1  18
ATOM     18  C   UNL     1      47.149   3.663  14.118  0.00  0.00    +0.000 C 
BRANCH  18  19
ATOM     19  C   UNL     1      47.138   4.051  15.597  0.00  0.00    +0.000 C 
BRANCH  19  24
ATOM     20  C   UNL     1      51.559   2.917  17.752  0.00  0.00    +0.000 A 
ATOM     21  C   UNL     1      50.901   4.138  17.681  0.00  0.00    +0.000 A 
ATOM     22  C   UNL     1      49.582   4.174  17.230  0.00  0.00    +0.000 A 
ATOM     23  C   UNL     1      48.952   2.998  16.837  0.00  0.00    +0.000 A 
ATOM     24  N   UNL     1      47.630   2.954  16.421  0.00  0.00    +0.000 N 
ATOM     25  N   UNL     1      49.584   1.809  16.893  0.00  0.00    +0.000 NA
ATOM     26  C   UNL     1      50.863   1.790  17.352  0.00  0.00    +0.000 A 
ATOM     27  H   UNL     1      47.466   2.016  16.058  0.00  0.00    +0.000 HD
BRANCH  20  29
ATOM     28  N   UNL     1      53.988   2.742  18.620  0.00  0.00    +0.000 NA
ATOM     29  C   UNL     1      52.902   2.823  18.228  0.00  0.00    +0.000 C 
ENDBRANCH  20  29
ENDBRANCH  19  24
ENDBRANCH  18  19
ENDBRANCH   1  18
TORSDOF 7
ENDMDL
MODEL 9
REMARK VINA RESULT:    -6.096      3.928      7.092
REMARK INTER + INTRA:          -9.513
REMARK INTER:                  -8.371
REMARK INTRA:                  -1.142
REMARK UNBOUND:                -0.923
REMARK  Name = 
REMARK  7 active torsions:
REMARK  status: ('A' for Active; 'I' for Inactive)
REMARK    1  A    between atoms: C_2  and  C_3
REMARK    2  A    between atoms: N_7  and  C_8
REMARK    3  A    between atoms: C_8  and  C_9
REMARK    4  A    between atoms: C_9  and  C_10
REMARK    5  A    between atoms: C_12  and  N_13
REMARK    6  A    between atoms: N_13  and  C_14
REMARK    7  A    between atoms: C_19  and  C_20
REMARK                            x       y       z     vdW  Elec       q    Type
REMARK                         _______ _______ _______ _____ _____    ______ ____
ROOT
ATOM      1  C   UNL     1      47.036   6.418  12.170  0.00  0.00    +0.000 A 
ATOM      2  C   UNL     1      47.254   5.689  13.350  0.00  0.00    +0.000 A 
ATOM      3  C   UNL     1      46.346   4.718  13.778  0.00  0.00    +0.000 A 
ATOM      4  C   UNL     1      45.203   4.479  13.007  0.00  0.00    +0.000 A 
ATOM      5  C   UNL     1      44.979   5.165  11.802  0.00  0.00    +0.000 A 
ATOM      6  C   UNL     1      45.914   6.124  11.384  0.00  0.00    +0.000 A 
ENDROOT
BRANCH   5   7
ATOM      7  C   UNL     1      43.748   4.897  10.972  0.00  0.00    +0.000 C 
ATOM      8  F   UNL     1      42.867   5.937  10.945  0.00  0.00    +0.000 F 
ATOM      9  F   UNL     1      44.051   4.635   9.670  0.00  0.00    +0.000 F 
ATOM     10  F   UNL     1      43.042   3.820  11.414  0.00  0.00    +0.000 F 
ENDBRANCH   5   7
BRANCH   3  11
ATOM     11  N   UNL     1      46.517   3.981  14.968  0.00  0.00    +0.000 N 
ATOM     12  H   UNL     1      45.609   3.755  15.376  0.00  0.00    +0.000 HD
BRANCH  11  13
ATOM     13  C   UNL     1      47.550   4.181  15.948  0.00  0.00    +0.000 C 
ATOM     14  C   UNL     1      48.155   2.853  16.458  0.00  0.00    +0.000 C 
ATOM     15  N   UNL     1      48.141   3.404  17.832  0.00  0.00    +0.000 NA
ATOM     16  C   UNL     1      47.095   4.365  17.408  0.00  0.00    +0.000 C 
ATOM     17  H   UNL     1      49.021   3.851  18.089  0.00  0.00    +0.000 HD
ENDBRANCH  11  13
ENDBRANCH   3  11
BRANCH   1  18
ATOM     18  C   UNL     1      48.000   7.506  11.759  0.00  0.00    +0.000 C 
BRANCH  18  19
ATOM     19  C   UNL     1      49.279   7.475  12.595  0.00  0.00    +0.000 C 
BRANCH  19  24
ATOM     20  C   UNL     1      49.482   7.272  17.635  0.00  0.00    +0.000 A 
ATOM     21  C   UNL     1      50.249   6.597  16.695  0.00  0.00    +0.000 A 
ATOM     22  C   UNL     1      50.171   6.975  15.355  0.00  0.00    +0.000 A 
ATOM     23  C   UNL     1      49.313   8.002  14.974  0.00  0.00    +0.000 A 
ATOM     24  N   UNL     1      49.217   8.460  13.669  0.00  0.00    +0.000 N 
ATOM     25  N   UNL     1      48.556   8.658  15.877  0.00  0.00    +0.000 NA
ATOM     26  C   UNL     1      48.659   8.287  17.181  0.00  0.00    +0.000 A 
ATOM     27  H   UNL     1      48.426   9.102  13.639  0.00  0.00    +0.000 HD
BRANCH  20  29
ATOM     28  N   UNL     1      49.585   6.661  20.145  0.00  0.00    +0.000 NA
ATOM     29  C   UNL     1      49.543   6.937  19.022  0.00  0.00    +0.000 C 
ENDBRANCH  20  29
ENDBRANCH  19  24
ENDBRANCH  18  19
ENDBRANCH   1  18
TORSDOF 7
ENDMDL
