MODEL 1
REMARK VINA RESULT:    -8.351      0.000      0.000
REMARK INTER + INTRA:         -11.488
REMARK INTER:                 -10.792
REMARK INTRA:                  -0.696
REMARK UNBOUND:                -0.696
REMARK  Name = 
REMARK  6 active torsions:
REMARK  status: ('A' for Active; 'I' for Inactive)
REMARK    1  A    between atoms: C_1  and  N_2
REMARK    2  A    between atoms: C_5  and  C_6
REMARK    3  A    between atoms: C_10  and  C_11
REMARK    4  A    between atoms: C_11  and  C_12
REMARK    5  A    between atoms: C_12  and  N_13
REMARK    6  A    between atoms: C_17  and  C_18
REMARK                            x       y       z     vdW  Elec       q    Type
REMARK                         _______ _______ _______ _____ _____    ______ ____
ROOT
ATOM      1  C   UNL     1      43.597   5.851  12.137  0.00  0.00    +0.000 C 
ENDROOT
BRANCH   1   6
ATOM      2  C   UNL     1      47.378   6.704  12.232  0.00  0.00    +0.000 A 
ATOM      3  C   UNL     1      47.792   5.769  13.191  0.00  0.00    +0.000 A 
ATOM      4  C   UNL     1      46.899   4.840  13.735  0.00  0.00    +0.000 A 
ATOM      5  C   UNL     1      45.554   4.849  13.368  0.00  0.00    +0.000 A 
ATOM      6  C   UNL     1      45.085   5.796  12.458  0.00  0.00    +0.000 A 
ATOM      7  C   UNL     1      46.014   6.699  11.897  0.00  0.00    +0.000 A 
BRANCH   2  12
ATOM      8  C   UNL     1      49.520   9.432  15.363  0.00  0.00    +0.000 C 
ATOM      9  N   UNL     1      49.488   9.304  13.901  0.00  0.00    +0.000 NA
ATOM     10  C   UNL     1      50.025   7.989  13.517  0.00  0.00    +0.000 C 
ATOM     11  C   UNL     1      49.805   7.649  12.042  0.00  0.00    +0.000 C 
ATOM     12  C   UNL     1      48.317   7.764  11.640  0.00  0.00    +0.000 C 
ATOM     13  C   UNL     1      47.929   9.220  11.940  0.00  0.00    +0.000 C 
ATOM     14  C   UNL     1      48.120   9.550  13.422  0.00  0.00    +0.000 C 
ENDBRANCH   2  12
ENDBRANCH   1   6
BRANCH   1  15
ATOM     15  C   UNL     1      43.248   5.165  10.816  0.00  0.00    +0.000 C 
BRANCH  15  16
ATOM     16  N   UNL     1      43.467   3.718  10.808  0.00  0.00    +0.000 N 
ATOM     17  C   UNL     1      44.381   3.386   9.775  0.00  0.00    +0.000 A 
ATOM     18  C   UNL     1      44.714   2.054   9.574  0.00  0.00    +0.000 A 
ATOM     19  C   UNL     1      45.615   1.724   8.558  0.00  0.00    +0.000 A 
ATOM     20  C   UNL     1      46.166   2.735   7.765  0.00  0.00    +0.000 A 
ATOM     21  C   UNL     1      45.788   4.031   8.037  0.00  0.00    +0.000 A 
ATOM     22  N   UNL     1      44.927   4.365   9.018  0.00  0.00    +0.000 NA
ATOM     23  H   UNL     1      42.606   3.202  10.644  0.00  0.00    +0.000 HD
BRANCH  20  24
ATOM     24  C   UNL     1      47.127   2.484   6.644  0.00  0.00    +0.000 C 
ATOM     25  F   UNL     1      46.821   3.168   5.505  0.00  0.00    +0.000 F 
ATOM     26  F   UNL     1      48.401   2.842   6.959  0.00  0.00    +0.000 F 
ATOM     27  F   UNL     1      47.184   1.172   6.286  0.00  0.00    +0.000 F 
ENDBRANCH  20  24
ENDBRANCH  15  16
ENDBRANCH   1  15
TORSDOF 5
ENDMDL
MODEL 2
REMARK VINA RESULT:    -8.316      1.160      1.894
REMARK INTER + INTRA:         -11.443
REMARK INTER:                 -10.971
REMARK INTRA:                  -0.472
REMARK UNBOUND:                -0.696
REMARK  Name = 
REMARK  6 active torsions:
REMARK  status: ('A' for Active; 'I' for Inactive)
REMARK    1  A    between atoms: C_1  and  N_2
REMARK    2  A    between atoms: C_5  and  C_6
REMARK    3  A    between atoms: C_10  and  C_11
REMARK    4  A    between atoms: C_11  and  C_12
REMARK    5  A    between atoms: C_12  and  N_13
REMARK    6  A    between atoms: C_17  and  C_18
REMARK                            x       y       z     vdW  Elec       q    Type
REMARK                         _______ _______ _______ _____ _____    ______ ____
ROOT
ATOM      1  C   UNL     1      43.285   4.834  12.512  0.00  0.00    +0.000 C 
ENDROOT
BRANCH   1   6
ATOM      2  C   UNL     1      46.414   6.994  13.269  0.00  0.00    +0.000 A 
ATOM      3  C   UNL     1      47.326   5.970  13.557  0.00  0.00    +0.000 A 
ATOM      4  C   UNL     1      46.969   4.622  13.438  0.00  0.00    +0.000 A 
ATOM      5  C   UNL     1      45.674   4.261  13.069  0.00  0.00    +0.000 A 
ATOM      6  C   UNL     1      44.717   5.246  12.824  0.00  0.00    +0.000 A 
ATOM      7  C   UNL     1      45.113   6.598  12.918  0.00  0.00    +0.000 A 
BRANCH   2  12
ATOM      8  C   UNL     1      50.767   8.174  12.050  0.00  0.00    +0.000 C 
ATOM      9  N   UNL     1      49.579   8.862  12.571  0.00  0.00    +0.000 NA
ATOM     10  C   UNL     1      48.493   8.769  11.584  0.00  0.00    +0.000 C 
ATOM     11  C   UNL     1      47.138   9.228  12.126  0.00  0.00    +0.000 C 
ATOM     12  C   UNL     1      46.754   8.483  13.425  0.00  0.00    +0.000 C 
ATOM     13  C   UNL     1      47.885   8.793  14.417  0.00  0.00    +0.000 C 
ATOM     14  C   UNL     1      49.235   8.306  13.888  0.00  0.00    +0.000 C 
ENDBRANCH   2  12
ENDBRANCH   1   6
BRANCH   1  15
ATOM     15  C   UNL     1      43.116   4.303  11.089  0.00  0.00    +0.000 C 
BRANCH  15  16
ATOM     16  N   UNL     1      43.905   5.011  10.079  0.00  0.00    +0.000 N 
ATOM     17  C   UNL     1      44.690   4.077   9.356  0.00  0.00    +0.000 A 
ATOM     18  C   UNL     1      45.537   4.540   8.359  0.00  0.00    +0.000 A 
ATOM     19  C   UNL     1      46.311   3.623   7.644  0.00  0.00    +0.000 A 
ATOM     20  C   UNL     1      46.219   2.260   7.939  0.00  0.00    +0.000 A 
ATOM     21  C   UNL     1      45.348   1.884   8.938  0.00  0.00    +0.000 A 
ATOM     22  N   UNL     1      44.591   2.757   9.630  0.00  0.00    +0.000 NA
ATOM     23  H   UNL     1      44.534   5.694  10.496  0.00  0.00    +0.000 HD
BRANCH  20  24
ATOM     24  C   UNL     1      47.017   1.201   7.241  0.00  0.00    +0.000 C 
ATOM     25  F   UNL     1      46.718   1.083   5.915  0.00  0.00    +0.000 F 
ATOM     26  F   UNL     1      48.356   1.434   7.297  0.00  0.00    +0.000 F 
ATOM     27  F   UNL     1      46.828  -0.036   7.775  0.00  0.00    +0.000 F 
ENDBRANCH  20  24
ENDBRANCH  15  16
ENDBRANCH   1  15
TORSDOF 5
ENDMDL
MODEL 3
REMARK VINA RESULT:    -7.605      1.201      2.098
REMARK INTER + INTRA:         -10.524
REMARK INTER:                 -10.510
REMARK INTRA:                  -0.014
REMARK UNBOUND:                -0.696
REMARK  Name = 
REMARK  6 active torsions:
REMARK  status: ('A' for Active; 'I' for Inactive)
REMARK    1  A    between atoms: C_1  and  N_2
REMARK    2  A    between atoms: C_5  and  C_6
REMARK    3  A    between atoms: C_10  and  C_11
REMARK    4  A    between atoms: C_11  and  C_12
REMARK    5  A    between atoms: C_12  and  N_13
REMARK    6  A    between atoms: C_17  and  C_18
REMARK                            x       y       z     vdW  Elec       q    Type
REMARK                         _______ _______ _______ _____ _____    ______ ____
ROOT
ATOM      1  C   UNL     1      43.544   4.780  12.630  0.00  0.00    +0.000 C 
ENDROOT
BRANCH   1   6
ATOM      2  C   UNL     1      46.881   6.749  12.761  0.00  0.00    +0.000 A 
ATOM      3  C   UNL     1      46.474   7.918  12.103  0.00  0.00    +0.000 A 
ATOM      4  C   UNL     1      45.148   8.101  11.697  0.00  0.00    +0.000 A 
ATOM      5  C   UNL     1      44.199   7.100  11.898  0.00  0.00    +0.000 A 
ATOM      6  C   UNL     1      44.570   5.898  12.501  0.00  0.00    +0.000 A 
ATOM      7  C   UNL     1      45.906   5.753  12.932  0.00  0.00    +0.000 A 
BRANCH   2  12
ATOM      8  C   UNL     1      49.100  10.444  14.564  0.00  0.00    +0.000 C 
ATOM      9  N   UNL     1      49.422   9.042  14.272  0.00  0.00    +0.000 NA
ATOM     10  C   UNL     1      48.571   8.167  15.093  0.00  0.00    +0.000 C 
ATOM     11  C   UNL     1      48.642   6.694  14.688  0.00  0.00    +0.000 C 
ATOM     12  C   UNL     1      48.333   6.494  13.187  0.00  0.00    +0.000 C 
ATOM     13  C   UNL     1      49.388   7.328  12.444  0.00  0.00    +0.000 C 
ATOM     14  C   UNL     1      49.296   8.806  12.827  0.00  0.00    +0.000 C 
ENDBRANCH   2  12
ENDBRANCH   1   6
BRANCH   1  15
ATOM     15  C   UNL     1      43.218   4.115  11.293  0.00  0.00    +0.000 C 
BRANCH  15  16
ATOM     16  N   UNL     1      43.745   4.818  10.121  0.00  0.00    +0.000 N 
ATOM     17  C   UNL     1      44.568   3.937   9.374  0.00  0.00    +0.000 A 
ATOM     18  C   UNL     1      45.193   4.409   8.229  0.00  0.00    +0.000 A 
ATOM     19  C   UNL     1      46.003   3.544   7.490  0.00  0.00    +0.000 A 
ATOM     20  C   UNL     1      46.171   2.222   7.912  0.00  0.00    +0.000 A 
ATOM     21  C   UNL     1      45.509   1.833   9.056  0.00  0.00    +0.000 A 
ATOM     22  N   UNL     1      44.719   2.654   9.773  0.00  0.00    +0.000 NA
ATOM     23  H   UNL     1      44.304   5.627  10.381  0.00  0.00    +0.000 HD
BRANCH  20  24
ATOM     24  C   UNL     1      47.030   1.222   7.199  0.00  0.00    +0.000 C 
ATOM     25  F   UNL     1      48.365   1.472   7.319  0.00  0.00    +0.000 F 
ATOM     26  F   UNL     1      46.849  -0.044   7.662  0.00  0.00    +0.000 F 
ATOM     27  F   UNL     1      46.778   1.174   5.863  0.00  0.00    +0.000 F 
ENDBRANCH  20  24
ENDBRANCH  15  16
ENDBRANCH   1  15
TORSDOF 5
ENDMDL
MODEL 4
REMARK VINA RESULT:    -7.339      1.128      1.877
REMARK INTER + INTRA:         -10.180
REMARK INTER:                  -9.528
REMARK INTRA:                  -0.652
REMARK UNBOUND:                -0.696
REMARK  Name = 
REMARK  6 active torsions:
REMARK  status: ('A' for Active; 'I' for Inactive)
REMARK    1  A    between atoms: C_1  and  N_2
REMARK    2  A    between atoms: C_5  and  C_6
REMARK    3  A    between atoms: C_10  and  C_11
REMARK    4  A    between atoms: C_11  and  C_12
REMARK    5  A    between atoms: C_12  and  N_13
REMARK    6  A    between atoms: C_17  and  C_18
REMARK                            x       y       z     vdW  Elec       q    Type
REMARK                         _______ _______ _______ _____ _____    ______ ____
ROOT
ATOM      1  C   UNL     1      44.538   6.276  12.437  0.00  0.00    +0.000 C 
ENDROOT
BRANCH   1   6
ATOM      2  C   UNL     1      47.598   8.607  11.958  0.00  0.00    +0.000 A 
ATOM      3  C   UNL     1      46.927   9.830  11.823  0.00  0.00    +0.000 A 
ATOM      4  C   UNL     1      45.536   9.916  11.958  0.00  0.00    +0.000 A 
ATOM      5  C   UNL     1      44.774   8.772  12.188  0.00  0.00    +0.000 A 
ATOM      6  C   UNL     1      45.394   7.525  12.277  0.00  0.00    +0.000 A 
ATOM      7  C   UNL     1      46.800   7.472  12.172  0.00  0.00    +0.000 A 
BRANCH   2  12
ATOM      8  C   UNL     1      50.103   8.964  15.886  0.00  0.00    +0.000 C 
ATOM      9  N   UNL     1      50.376   8.750  14.460  0.00  0.00    +0.000 NA
ATOM     10  C   UNL     1      49.771   7.478  14.035  0.00  0.00    +0.000 C 
ATOM     11  C   UNL     1      49.775   7.278  12.519  0.00  0.00    +0.000 C 
ATOM     12  C   UNL     1      49.116   8.465  11.779  0.00  0.00    +0.000 C 
ATOM     13  C   UNL     1      49.939   9.699  12.182  0.00  0.00    +0.000 C 
ATOM     14  C   UNL     1      49.908   9.915  13.696  0.00  0.00    +0.000 C 
ENDBRANCH   2  12
ENDBRANCH   1   6
BRANCH   1  15
ATOM     15  C   UNL     1      43.985   5.760  11.109  0.00  0.00    +0.000 C 
BRANCH  15  16
ATOM     16  N   UNL     1      43.831   4.306  11.039  0.00  0.00    +0.000 N 
ATOM     17  C   UNL     1      44.594   3.804   9.954  0.00  0.00    +0.000 A 
ATOM     18  C   UNL     1      44.573   2.442   9.690  0.00  0.00    +0.000 A 
ATOM     19  C   UNL     1      45.324   1.944   8.622  0.00  0.00    +0.000 A 
ATOM     20  C   UNL     1      46.083   2.820   7.841  0.00  0.00    +0.000 A 
ATOM     21  C   UNL     1      46.054   4.156   8.176  0.00  0.00    +0.000 A 
ATOM     22  N   UNL     1      45.341   4.648   9.207  0.00  0.00    +0.000 NA
ATOM     23  H   UNL     1      42.863   4.030  10.896  0.00  0.00    +0.000 HD
BRANCH  20  24
ATOM     24  C   UNL     1      46.909   2.388   6.668  0.00  0.00    +0.000 C 
ATOM     25  F   UNL     1      46.498   2.932   5.487  0.00  0.00    +0.000 F 
ATOM     26  F   UNL     1      48.219   2.732   6.797  0.00  0.00    +0.000 F 
ATOM     27  F   UNL     1      46.891   1.040   6.482  0.00  0.00    +0.000 F 
ENDBRANCH  20  24
ENDBRANCH  15  16
ENDBRANCH   1  15
TORSDOF 5
ENDMDL
MODEL 5
REMARK VINA RESULT:    -6.803      2.127      3.220
REMARK INTER + INTRA:          -9.487
REMARK INTER:                  -8.751
REMARK INTRA:                  -0.736
REMARK UNBOUND:                -0.696
REMARK  Name = 
REMARK  6 active torsions:
REMARK  status: ('A' for Active; 'I' for Inactive)
REMARK    1  A    between atoms: C_1  and  N_2
REMARK    2  A    between atoms: C_5  and  C_6
REMARK    3  A    between atoms: C_10  and  C_11
REMARK    4  A    between atoms: C_11  and  C_12
REMARK    5  A    between atoms: C_12  and  N_13
REMARK    6  A    between atoms: C_17  and  C_18
REMARK                            x       y       z     vdW  Elec       q    Type
REMARK                         _______ _______ _______ _____ _____    ______ ____
ROOT
ATOM      1  C   UNL     1      43.529   5.179  12.887  0.00  0.00    +0.000 C 
ENDROOT
BRANCH   1   6
ATOM      2  C   UNL     1      46.996   4.792  14.576  0.00  0.00    +0.000 A 
ATOM      3  C   UNL     1      47.722   5.711  13.807  0.00  0.00    +0.000 A 
ATOM      4  C   UNL     1      47.100   6.490  12.825  0.00  0.00    +0.000 A 
ATOM      5  C   UNL     1      45.741   6.338  12.553  0.00  0.00    +0.000 A 
ATOM      6  C   UNL     1      44.990   5.397  13.258  0.00  0.00    +0.000 A 
ATOM      7  C   UNL     1      45.634   4.650  14.267  0.00  0.00    +0.000 A 
BRANCH   2  12
ATOM      8  C   UNL     1      48.083   6.919  18.591  0.00  0.00    +0.000 C 
ATOM      9  N   UNL     1      48.203   5.567  18.031  0.00  0.00    +0.000 NA
ATOM     10  C   UNL     1      46.859   5.028  17.776  0.00  0.00    +0.000 C 
ATOM     11  C   UNL     1      46.867   3.734  16.960  0.00  0.00    +0.000 C 
ATOM     12  C   UNL     1      47.648   3.892  15.636  0.00  0.00    +0.000 C 
ATOM     13  C   UNL     1      49.070   4.299  16.052  0.00  0.00    +0.000 C 
ATOM     14  C   UNL     1      49.063   5.609  16.840  0.00  0.00    +0.000 C 
ENDBRANCH   2  12
ENDBRANCH   1   6
BRANCH   1  15
ATOM     15  C   UNL     1      43.340   4.785  11.422  0.00  0.00    +0.000 C 
BRANCH  15  16
ATOM     16  N   UNL     1      43.552   3.363  11.144  0.00  0.00    +0.000 N 
ATOM     17  C   UNL     1      44.394   3.225  10.011  0.00  0.00    +0.000 A 
ATOM     18  C   UNL     1      44.707   1.952   9.556  0.00  0.00    +0.000 A 
ATOM     19  C   UNL     1      45.537   1.812   8.441  0.00  0.00    +0.000 A 
ATOM     20  C   UNL     1      46.039   2.951   7.804  0.00  0.00    +0.000 A 
ATOM     21  C   UNL     1      45.685   4.177   8.325  0.00  0.00    +0.000 A 
ATOM     22  N   UNL     1      44.893   4.326   9.403  0.00  0.00    +0.000 NA
ATOM     23  H   UNL     1      42.680   2.878  10.948  0.00  0.00    +0.000 HD
BRANCH  20  24
ATOM     24  C   UNL     1      46.922   2.908   6.595  0.00  0.00    +0.000 C 
ATOM     25  F   UNL     1      46.780   3.993   5.781  0.00  0.00    +0.000 F 
ATOM     26  F   UNL     1      48.244   2.859   6.916  0.00  0.00    +0.000 F 
ATOM     27  F   UNL     1      46.686   1.822   5.812  0.00  0.00    +0.000 F 
ENDBRANCH  20  24
ENDBRANCH  15  16
ENDBRANCH   1  15
TORSDOF 5
ENDMDL
MODEL 6
REMARK VINA RESULT:    -6.783      1.310      2.486
REMARK INTER + INTRA:          -9.461
REMARK INTER:                  -8.766
REMARK INTRA:                  -0.696
REMARK UNBOUND:                -0.696
REMARK  Name = 
REMARK  6 active torsions:
REMARK  status: ('A' for Active; 'I' for Inactive)
REMARK    1  A    between atoms: C_1  and  N_2
REMARK    2  A    between atoms: C_5  and  C_6
REMARK    3  A    between atoms: C_10  and  C_11
REMARK    4  A    between atoms: C_11  and  C_12
REMARK    5  A    between atoms: C_12  and  N_13
REMARK    6  A    between atoms: C_17  and  C_18
REMARK                            x       y       z     vdW  Elec       q    Type
REMARK                         _______ _______ _______ _____ _____    ______ ____
ROOT
ATOM      1  C   UNL     1      45.108   6.603  12.733  0.00  0.00    +0.000 C 
ENDROOT
BRANCH   1   6
ATOM      2  C   UNL     1      48.787   7.078  13.859  0.00  0.00    +0.000 A 
ATOM      3  C   UNL     1      49.369   7.341  12.612  0.00  0.00    +0.000 A 
ATOM      4  C   UNL     1      48.592   7.440  11.452  0.00  0.00    +0.000 A 
ATOM      5  C   UNL     1      47.214   7.234  11.502  0.00  0.00    +0.000 A 
ATOM      6  C   UNL     1      46.599   6.916  12.712  0.00  0.00    +0.000 A 
ATOM      7  C   UNL     1      47.401   6.857  13.873  0.00  0.00    +0.000 A 
BRANCH   2  12
ATOM      8  C   UNL     1      49.319  10.991  16.356  0.00  0.00    +0.000 C 
ATOM      9  N   UNL     1      49.744   9.589  16.462  0.00  0.00    +0.000 NA
ATOM     10  C   UNL     1      48.557   8.732  16.602  0.00  0.00    +0.000 C 
ATOM     11  C   UNL     1      48.865   7.240  16.464  0.00  0.00    +0.000 C 
ATOM     12  C   UNL     1      49.608   6.924  15.147  0.00  0.00    +0.000 C 
ATOM     13  C   UNL     1      50.899   7.756  15.202  0.00  0.00    +0.000 C 
ATOM     14  C   UNL     1      50.589   9.250  15.308  0.00  0.00    +0.000 C 
ENDBRANCH   2  12
ENDBRANCH   1   6
BRANCH   1  15
ATOM     15  C   UNL     1      44.575   6.160  11.370  0.00  0.00    +0.000 C 
BRANCH  15  16
ATOM     16  N   UNL     1      44.311   4.724  11.261  0.00  0.00    +0.000 N 
ATOM     17  C   UNL     1      44.945   4.215  10.099  0.00  0.00    +0.000 A 
ATOM     18  C   UNL     1      44.803   2.870   9.789  0.00  0.00    +0.000 A 
ATOM     19  C   UNL     1      45.426   2.366   8.645  0.00  0.00    +0.000 A 
ATOM     20  C   UNL     1      46.183   3.218   7.835  0.00  0.00    +0.000 A 
ATOM     21  C   UNL     1      46.279   4.538   8.220  0.00  0.00    +0.000 A 
ATOM     22  N   UNL     1      45.689   5.036   9.323  0.00  0.00    +0.000 NA
ATOM     23  H   UNL     1      43.316   4.523  11.190  0.00  0.00    +0.000 HD
BRANCH  20  24
ATOM     24  C   UNL     1      46.877   2.779   6.583  0.00  0.00    +0.000 C 
ATOM     25  F   UNL     1      46.528   1.523   6.182  0.00  0.00    +0.000 F 
ATOM     26  F   UNL     1      46.608   3.591   5.525  0.00  0.00    +0.000 F 
ATOM     27  F   UNL     1      48.231   2.765   6.711  0.00  0.00    +0.000 F 
ENDBRANCH  20  24
ENDBRANCH  15  16
ENDBRANCH   1  15
TORSDOF 5
ENDMDL
MODEL 7
REMARK VINA RESULT:    -6.500      4.268      5.919
REMARK INTER + INTRA:          -9.096
REMARK INTER:                  -8.633
REMARK INTRA:                  -0.463
REMARK UNBOUND:                -0.696
REMARK  Name = 
REMARK  6 active torsions:
REMARK  status: ('A' for Active; 'I' for Inactive)
REMARK    1  A    between atoms: C_1  and  N_2
REMARK    2  A    between atoms: C_5  and  C_6
REMARK    3  A    between atoms: C_10  and  C_11
REMARK    4  A    between atoms: C_11  and  C_12
REMARK    5  A    between atoms: C_12  and  N_13
REMARK    6  A    between atoms: C_17  and  C_18
REMARK                            x       y       z     vdW  Elec       q    Type
REMARK                         _______ _______ _______ _____ _____    ______ ____
ROOT
ATOM      1  C   UNL     1      47.608   3.842  17.248  0.00  0.00    +0.000 C 
ENDROOT
BRANCH   1   6
ATOM      2  C   UNL     1      51.397   4.306  17.925  0.00  0.00    +0.000 A 
ATOM      3  C   UNL     1      51.827   2.994  17.685  0.00  0.00    +0.000 A 
ATOM      4  C   UNL     1      50.940   2.006  17.244  0.00  0.00    +0.000 A 
ATOM      5  C   UNL     1      49.586   2.292  17.074  0.00  0.00    +0.000 A 
ATOM      6  C   UNL     1      49.103   3.571  17.352  0.00  0.00    +0.000 A 
ATOM      7  C   UNL     1      50.025   4.558  17.761  0.00  0.00    +0.000 A 
BRANCH   2  12
ATOM      8  C   UNL     1      51.855   8.010  15.114  0.00  0.00    +0.000 C 
ATOM      9  N   UNL     1      52.384   7.584  16.415  0.00  0.00    +0.000 NA
ATOM     10  C   UNL     1      51.276   7.467  17.376  0.00  0.00    +0.000 C 
ATOM     11  C   UNL     1      51.676   6.788  18.687  0.00  0.00    +0.000 C 
ATOM     12  C   UNL     1      52.329   5.409  18.445  0.00  0.00    +0.000 C 
ATOM     13  C   UNL     1      53.558   5.692  17.567  0.00  0.00    +0.000 C 
ATOM     14  C   UNL     1      53.154   6.343  16.243  0.00  0.00    +0.000 C 
ENDBRANCH   2  12
ENDBRANCH   1   6
BRANCH   1  15
ATOM     15  C   UNL     1      47.084   3.747  15.815  0.00  0.00    +0.000 C 
BRANCH  15  16
ATOM     16  N   UNL     1      47.132   5.005  15.068  0.00  0.00    +0.000 N 
ATOM     17  C   UNL     1      46.491   4.833  13.815  0.00  0.00    +0.000 A 
ATOM     18  C   UNL     1      46.442   5.902  12.931  0.00  0.00    +0.000 A 
ATOM     19  C   UNL     1      45.810   5.736  11.696  0.00  0.00    +0.000 A 
ATOM     20  C   UNL     1      45.237   4.503  11.371  0.00  0.00    +0.000 A 
ATOM     21  C   UNL     1      45.323   3.497  12.308  0.00  0.00    +0.000 A 
ATOM     22  N   UNL     1      45.922   3.645  13.505  0.00  0.00    +0.000 NA
ATOM     23  H   UNL     1      48.086   5.310  14.893  0.00  0.00    +0.000 HD
BRANCH  20  24
ATOM     24  C   UNL     1      44.552   4.220  10.069  0.00  0.00    +0.000 C 
ATOM     25  F   UNL     1      45.263   4.634   8.982  0.00  0.00    +0.000 F 
ATOM     26  F   UNL     1      44.325   2.892   9.877  0.00  0.00    +0.000 F 
ATOM     27  F   UNL     1      43.338   4.826   9.973  0.00  0.00    +0.000 F 
ENDBRANCH  20  24
ENDBRANCH  15  16
ENDBRANCH   1  15
TORSDOF 5
ENDMDL
MODEL 8
REMARK VINA RESULT:    -6.359      4.108      5.993
REMARK INTER + INTRA:          -8.914
REMARK INTER:                  -8.289
REMARK INTRA:                  -0.624
REMARK UNBOUND:                -0.696
REMARK  Name = 
REMARK  6 active torsions:
REMARK  status: ('A' for Active; 'I' for Inactive)
REMARK    1  A    between atoms: C_1  and  N_2
REMARK    2  A    between atoms: C_5  and  C_6
REMARK    3  A    between atoms: C_10  and  C_11
REMARK    4  A    between atoms: C_11  and  C_12
REMARK    5  A    between atoms: C_12  and  N_13
REMARK    6  A    between atoms: C_17  and  C_18
REMARK                            x       y       z     vdW  Elec       q    Type
REMARK                         _______ _______ _______ _____ _____    ______ ____
ROOT
ATOM      1  C   UNL     1      47.130   3.712  17.261  0.00  0.00    +0.000 C 
ENDROOT
BRANCH   1   6
ATOM      2  C   UNL     1      48.538   6.590  19.444  0.00  0.00    +0.000 A 
ATOM      3  C   UNL     1      49.762   6.013  19.809  0.00  0.00    +0.000 A 
ATOM      4  C   UNL     1      50.159   4.768  19.307  0.00  0.00    +0.000 A 
ATOM      5  C   UNL     1      49.321   4.045  18.460  0.00  0.00    +0.000 A 
ATOM      6  C   UNL     1      48.070   4.555  18.112  0.00  0.00    +0.000 A 
ATOM      7  C   UNL     1      47.709   5.828  18.604  0.00  0.00    +0.000 A 
BRANCH   2  12
ATOM      8  C   UNL     1      50.041  10.363  17.135  0.00  0.00    +0.000 C 
ATOM      9  N   UNL     1      49.197  10.091  18.305  0.00  0.00    +0.000 NA
ATOM     10  C   UNL     1      48.004   9.342  17.880  0.00  0.00    +0.000 C 
ATOM     11  C   UNL     1      47.186   8.788  19.047  0.00  0.00    +0.000 C 
ATOM     12  C   UNL     1      48.050   7.933  20.002  0.00  0.00    +0.000 C 
ATOM     13  C   UNL     1      49.158   8.876  20.496  0.00  0.00    +0.000 C 
ATOM     14  C   UNL     1      49.995   9.405  19.331  0.00  0.00    +0.000 C 
ENDBRANCH   2  12
ENDBRANCH   1   6
BRANCH   1  15
ATOM     15  C   UNL     1      47.453   3.785  15.768  0.00  0.00    +0.000 C 
BRANCH  15  16
ATOM     16  N   UNL     1      47.068   5.043  15.125  0.00  0.00    +0.000 N 
ATOM     17  C   UNL     1      46.396   4.763  13.909  0.00  0.00    +0.000 A 
ATOM     18  C   UNL     1      45.962   5.820  13.121  0.00  0.00    +0.000 A 
ATOM     19  C   UNL     1      45.298   5.548  11.922  0.00  0.00    +0.000 A 
ATOM     20  C   UNL     1      45.080   4.222  11.537  0.00  0.00    +0.000 A 
ATOM     21  C   UNL     1      45.536   3.233  12.380  0.00  0.00    +0.000 A 
ATOM     22  N   UNL     1      46.170   3.481  13.542  0.00  0.00    +0.000 NA
ATOM     23  H   UNL     1      47.875   5.625  14.912  0.00  0.00    +0.000 HD
BRANCH  20  24
ATOM     24  C   UNL     1      44.392   3.827  10.266  0.00  0.00    +0.000 C 
ATOM     25  F   UNL     1      43.772   2.615  10.340  0.00  0.00    +0.000 F 
ATOM     26  F   UNL     1      43.428   4.713   9.897  0.00  0.00    +0.000 F 
ATOM     27  F   UNL     1      45.248   3.743   9.211  0.00  0.00    +0.000 F 
ENDBRANCH  20  24
ENDBRANCH  15  16
ENDBRANCH   1  15
TORSDOF 5
ENDMDL
MODEL 9
REMARK VINA RESULT:    -6.180      5.068      8.720
REMARK INTER + INTRA:          -8.682
REMARK INTER:                  -8.074
REMARK INTRA:                  -0.607
REMARK UNBOUND:                -0.696
REMARK  Name = 
REMARK  6 active torsions:
REMARK  status: ('A' for Active; 'I' for Inactive)
REMARK    1  A    between atoms: C_1  and  N_2
REMARK    2  A    between atoms: C_5  and  C_6
REMARK    3  A    between atoms: C_10  and  C_11
REMARK    4  A    between atoms: C_11  and  C_12
REMARK    5  A    between atoms: C_12  and  N_13
REMARK    6  A    between atoms: C_17  and  C_18
REMARK                            x       y       z     vdW  Elec       q    Type
REMARK                         _______ _______ _______ _____ _____    ______ ____
ROOT
ATOM      1  C   UNL     1      49.159   7.018  12.887  0.00  0.00    +0.000 C 
ENDROOT
BRANCH   1   6
ATOM      2  C   UNL     1      45.358   6.299  12.630  0.00  0.00    +0.000 A 
ATOM      3  C   UNL     1      44.917   7.572  12.247  0.00  0.00    +0.000 A 
ATOM      4  C   UNL     1      45.820   8.613  12.003  0.00  0.00    +0.000 A 
ATOM      5  C   UNL     1      47.190   8.420  12.180  0.00  0.00    +0.000 A 
ATOM      6  C   UNL     1      47.671   7.184  12.612  0.00  0.00    +0.000 A 
ATOM      7  C   UNL     1      46.741   6.142  12.816  0.00  0.00    +0.000 A 
BRANCH   2  12
ATOM      8  C   UNL     1      44.491   3.412   9.060  0.00  0.00    +0.000 C 
ATOM      9  N   UNL     1      44.077   3.531  10.464  0.00  0.00    +0.000 NA
ATOM     10  C   UNL     1      45.252   3.364  11.332  0.00  0.00    +0.000 C 
ATOM     11  C   UNL     1      44.983   3.720  12.795  0.00  0.00    +0.000 C 
ATOM     12  C   UNL     1      44.399   5.143  12.944  0.00  0.00    +0.000 C 
ATOM     13  C   UNL     1      43.099   5.133  12.125  0.00  0.00    +0.000 C 
ATOM     14  C   UNL     1      43.373   4.807  10.656  0.00  0.00    +0.000 C 
ENDBRANCH   2  12
ENDBRANCH   1   6
BRANCH   1  15
ATOM     15  C   UNL     1      49.653   7.897  14.036  0.00  0.00    +0.000 C 
BRANCH  15  16
ATOM     16  N   UNL     1      50.794   7.349  14.772  0.00  0.00    +0.000 N 
ATOM     17  C   UNL     1      50.326   6.664  15.922  0.00  0.00    +0.000 A 
ATOM     18  C   UNL     1      51.249   6.084  16.781  0.00  0.00    +0.000 A 
ATOM     19  C   UNL     1      50.792   5.408  17.915  0.00  0.00    +0.000 A 
ATOM     20  C   UNL     1      49.419   5.323  18.165  0.00  0.00    +0.000 A 
ATOM     21  C   UNL     1      48.571   5.920  17.257  0.00  0.00    +0.000 A 
ATOM     22  N   UNL     1      48.998   6.569  16.157  0.00  0.00    +0.000 NA
ATOM     23  H   UNL     1      51.436   8.077  15.078  0.00  0.00    +0.000 HD
BRANCH  20  24
ATOM     24  C   UNL     1      48.830   4.634  19.358  0.00  0.00    +0.000 C 
ATOM     25  F   UNL     1      48.391   3.371  19.092  0.00  0.00    +0.000 F 
ATOM     26  F   UNL     1      49.720   4.508  20.379  0.00  0.00    +0.000 F 
ATOM     27  F   UNL     1      47.761   5.299  19.872  0.00  0.00    +0.000 F 
ENDBRANCH  20  24
ENDBRANCH  15  16
ENDBRANCH   1  15
TORSDOF 5
ENDMDL
