MODEL 1
REMARK VINA RESULT:    -7.388      0.000      0.000
REMARK INTER + INTRA:         -10.121
REMARK INTER:                  -9.548
REMARK INTRA:                  -0.573
REMARK UNBOUND:                -0.573
REMARK  Name = 
REMARK  6 active torsions:
REMARK  status: ('A' for Active; 'I' for Inactive)
REMARK    1  A    between atoms: C_1  and  C_2
REMARK    2  A    between atoms: C_2  and  N_3
REMARK    3  A    between atoms: N_3  and  C_4
REMARK    4  A    between atoms: N_3  and  C_11
REMARK    5  A    between atoms: C_4  and  C_5
REMARK    6  A    between atoms: C_15  and  C_16
REMARK                            x       y       z     vdW  Elec       q    Type
REMARK                         _______ _______ _______ _____ _____    ______ ____
ROOT
ATOM      1  C   UNL     1      45.358   4.995  11.619  0.00  0.00    +0.000 A 
ATOM      2  C   UNL     1      46.091   6.148  11.302  0.00  0.00    +0.000 A 
ATOM      3  N   UNL     1      47.149   6.644  11.998  0.00  0.00    +0.000 NA
ATOM      4  C   UNL     1      47.501   5.975  13.114  0.00  0.00    +0.000 A 
ATOM      5  C   UNL     1      46.847   4.847  13.569  0.00  0.00    +0.000 A 
ATOM      6  C   UNL     1      45.776   4.360  12.800  0.00  0.00    +0.000 A 
ENDROOT
BRANCH   5   7
ATOM      7  C   UNL     1      47.212   4.142  14.821  0.00  0.00    +0.000 C 
ATOM      8  N   UNL     1      47.127   4.808  16.010  0.00  0.00    +0.000 N 
ATOM      9  O   UNL     1      47.581   2.972  14.807  0.00  0.00    +0.000 OA
ATOM     10  H   UNL     1      46.804   5.755  16.141  0.00  0.00    +0.000 HD
ATOM     11  H   UNL     1      47.364   4.282  16.840  0.00  0.00    +0.000 HD
ENDBRANCH   5   7
BRANCH   1  12
ATOM     12  N   UNL     1      44.304   4.502  10.852  0.00  0.00    +0.000 N 
BRANCH  12  14
ATOM     13  C   UNL     1      42.385   5.439  12.127  0.00  0.00    +0.000 C 
ATOM     14  C   UNL     1      43.038   5.244  10.768  0.00  0.00    +0.000 C 
ENDBRANCH  12  14
BRANCH  12  15
ATOM     15  C   UNL     1      44.327   3.126  10.313  0.00  0.00    +0.000 C 
BRANCH  15  16
ATOM     16  C   UNL     1      45.247   2.921   9.117  0.00  0.00    +0.000 A 
ATOM     17  C   UNL     1      45.537   3.955   8.230  0.00  0.00    +0.000 A 
ATOM     18  C   UNL     1      46.293   3.684   7.093  0.00  0.00    +0.000 A 
ATOM     19  C   UNL     1      46.756   2.394   6.873  0.00  0.00    +0.000 A 
ATOM     20  C   UNL     1      46.457   1.426   7.815  0.00  0.00    +0.000 A 
ATOM     21  N   UNL     1      45.725   1.662   8.926  0.00  0.00    +0.000 NA
ENDBRANCH  15  16
ENDBRANCH  12  15
ENDBRANCH   1  12
TORSDOF 5
ENDMDL
MODEL 2
REMARK VINA RESULT:    -7.301      1.403      1.973
REMARK INTER + INTRA:         -10.008
REMARK INTER:                  -9.354
REMARK INTRA:                  -0.654
REMARK UNBOUND:                -0.573
REMARK  Name = 
REMARK  6 active torsions:
REMARK  status: ('A' for Active; 'I' for Inactive)
REMARK    1  A    between atoms: C_1  and  C_2
REMARK    2  A    between atoms: C_2  and  N_3
REMARK    3  A    between atoms: N_3  and  C_4
REMARK    4  A    between atoms: N_3  and  C_11
REMARK    5  A    between atoms: C_4  and  C_5
REMARK    6  A    between atoms: C_15  and  C_16
REMARK                            x       y       z     vdW  Elec       q    Type
REMARK                         _______ _______ _______ _____ _____    ______ ____
ROOT
ATOM      1  C   UNL     1      45.302   4.337  11.806  0.00  0.00    +0.000 A 
ATOM      2  C   UNL     1      45.574   3.221  12.611  0.00  0.00    +0.000 A 
ATOM      3  N   UNL     1      46.456   3.171  13.644  0.00  0.00    +0.000 NA
ATOM      4  C   UNL     1      47.155   4.296  13.894  0.00  0.00    +0.000 A 
ATOM      5  C   UNL     1      47.020   5.459  13.159  0.00  0.00    +0.000 A 
ATOM      6  C   UNL     1      46.077   5.466  12.119  0.00  0.00    +0.000 A 
ENDROOT
BRANCH   5   7
ATOM      7  C   UNL     1      47.824   6.679  13.411  0.00  0.00    +0.000 C 
ATOM      8  N   UNL     1      47.194   7.814  13.836  0.00  0.00    +0.000 N 
ATOM      9  O   UNL     1      49.039   6.684  13.251  0.00  0.00    +0.000 OA
ATOM     10  H   UNL     1      46.210   7.913  14.033  0.00  0.00    +0.000 HD
ATOM     11  H   UNL     1      47.783   8.616  14.016  0.00  0.00    +0.000 HD
ENDBRANCH   5   7
BRANCH   1  12
ATOM     12  N   UNL     1      44.358   4.352  10.781  0.00  0.00    +0.000 N 
BRANCH  12  14
ATOM     13  C   UNL     1      42.391   5.445  11.837  0.00  0.00    +0.000 C 
ATOM     14  C   UNL     1      43.383   5.447  10.686  0.00  0.00    +0.000 C 
ENDBRANCH  12  14
BRANCH  12  15
ATOM     15  C   UNL     1      44.142   3.168   9.922  0.00  0.00    +0.000 C 
BRANCH  15  16
ATOM     16  C   UNL     1      45.244   2.905   8.905  0.00  0.00    +0.000 A 
ATOM     17  C   UNL     1      45.721   3.909   8.064  0.00  0.00    +0.000 A 
ATOM     18  C   UNL     1      46.649   3.586   7.078  0.00  0.00    +0.000 A 
ATOM     19  C   UNL     1      47.093   2.276   6.961  0.00  0.00    +0.000 A 
ATOM     20  C   UNL     1      46.601   1.340   7.853  0.00  0.00    +0.000 A 
ATOM     21  N   UNL     1      45.700   1.625   8.818  0.00  0.00    +0.000 NA
ENDBRANCH  15  16
ENDBRANCH  12  15
ENDBRANCH   1  12
TORSDOF 5
ENDMDL
MODEL 3
REMARK VINA RESULT:    -6.787      2.101      2.448
REMARK INTER + INTRA:          -9.344
REMARK INTER:                  -8.831
REMARK INTRA:                  -0.513
REMARK UNBOUND:                -0.573
REMARK  Name = 
REMARK  6 active torsions:
REMARK  status: ('A' for Active; 'I' for Inactive)
REMARK    1  A    between atoms: C_1  and  C_2
REMARK    2  A    between atoms: C_2  and  N_3
REMARK    3  A    between atoms: N_3  and  C_4
REMARK    4  A    between atoms: N_3  and  C_11
REMARK    5  A    between atoms: C_4  and  C_5
REMARK    6  A    between atoms: C_15  and  C_16
REMARK                            x       y       z     vdW  Elec       q    Type
REMARK                         _______ _______ _______ _____ _____    ______ ____
ROOT
ATOM      1  C   UNL     1      45.333   5.651  11.587  0.00  0.00    +0.000 A 
ATOM      2  C   UNL     1      44.801   6.938  11.422  0.00  0.00    +0.000 A 
ATOM      3  N   UNL     1      45.421   8.109  11.727  0.00  0.00    +0.000 NA
ATOM      4  C   UNL     1      46.653   8.014  12.267  0.00  0.00    +0.000 A 
ATOM      5  C   UNL     1      47.287   6.813  12.522  0.00  0.00    +0.000 A 
ATOM      6  C   UNL     1      46.614   5.633  12.164  0.00  0.00    +0.000 A 
ENDROOT
BRANCH   5   7
ATOM      7  C   UNL     1      48.623   6.715  13.156  0.00  0.00    +0.000 C 
ATOM      8  N   UNL     1      49.731   7.045  12.428  0.00  0.00    +0.000 N 
ATOM      9  O   UNL     1      48.749   6.350  14.320  0.00  0.00    +0.000 OA
ATOM     10  H   UNL     1      49.741   7.388  11.480  0.00  0.00    +0.000 HD
ATOM     11  H   UNL     1      50.619   6.984  12.907  0.00  0.00    +0.000 HD
ENDBRANCH   5   7
BRANCH   1  12
ATOM     12  N   UNL     1      44.673   4.479  11.222  0.00  0.00    +0.000 N 
BRANCH  12  14
ATOM     13  C   UNL     1      43.392   2.539  12.103  0.00  0.00    +0.000 C 
ATOM     14  C   UNL     1      44.706   3.304  12.103  0.00  0.00    +0.000 C 
ENDBRANCH  12  14
BRANCH  12  15
ATOM     15  C   UNL     1      44.142   4.293   9.854  0.00  0.00    +0.000 C 
BRANCH  15  16
ATOM     16  C   UNL     1      45.092   3.600   8.887  0.00  0.00    +0.000 A 
ATOM     17  C   UNL     1      45.277   2.219   8.904  0.00  0.00    +0.000 A 
ATOM     18  C   UNL     1      46.240   1.652   8.074  0.00  0.00    +0.000 A 
ATOM     19  C   UNL     1      46.985   2.470   7.235  0.00  0.00    +0.000 A 
ATOM     20  C   UNL     1      46.723   3.827   7.248  0.00  0.00    +0.000 A 
ATOM     21  N   UNL     1      45.796   4.404   8.044  0.00  0.00    +0.000 NA
ENDBRANCH  15  16
ENDBRANCH  12  15
ENDBRANCH   1  12
TORSDOF 5
ENDMDL
MODEL 4
REMARK VINA RESULT:    -6.700      2.770      3.757
REMARK INTER + INTRA:          -9.231
REMARK INTER:                  -8.797
REMARK INTRA:                  -0.434
REMARK UNBOUND:                -0.573
REMARK  Name = 
REMARK  6 active torsions:
REMARK  status: ('A' for Active; 'I' for Inactive)
REMARK    1  A    between atoms: C_1  and  C_2
REMARK    2  A    between atoms: C_2  and  N_3
REMARK    3  A    between atoms: N_3  and  C_4
REMARK    4  A    between atoms: N_3  and  C_11
REMARK    5  A    between atoms: C_4  and  C_5
REMARK    6  A    between atoms: C_15  and  C_16
REMARK                            x       y       z     vdW  Elec       q    Type
REMARK                         _______ _______ _______ _____ _____    ______ ____
ROOT
ATOM      1  C   UNL     1      45.210   5.772  11.554  0.00  0.00    +0.000 A 
ATOM      2  C   UNL     1      46.459   5.900  12.181  0.00  0.00    +0.000 A 
ATOM      3  N   UNL     1      47.029   7.059  12.606  0.00  0.00    +0.000 NA
ATOM      4  C   UNL     1      46.337   8.192  12.371  0.00  0.00    +0.000 A 
ATOM      5  C   UNL     1      45.114   8.222  11.730  0.00  0.00    +0.000 A 
ATOM      6  C   UNL     1      44.555   6.995  11.334  0.00  0.00    +0.000 A 
ENDROOT
BRANCH   5   7
ATOM      7  C   UNL     1      44.378   9.475  11.436  0.00  0.00    +0.000 C 
ATOM      8  N   UNL     1      43.596   9.542  10.318  0.00  0.00    +0.000 N 
ATOM      9  O   UNL     1      44.454  10.446  12.182  0.00  0.00    +0.000 OA
ATOM     10  H   UNL     1      43.434   8.796   9.658  0.00  0.00    +0.000 HD
ATOM     11  H   UNL     1      43.096  10.408  10.169  0.00  0.00    +0.000 HD
ENDBRANCH   5   7
BRANCH   1  12
ATOM     12  N   UNL     1      44.648   4.556  11.171  0.00  0.00    +0.000 N 
BRANCH  12  14
ATOM     13  C   UNL     1      43.465   2.632  12.210  0.00  0.00    +0.000 C 
ATOM     14  C   UNL     1      44.781   3.373  12.033  0.00  0.00    +0.000 C 
ENDBRANCH  12  14
BRANCH  12  15
ATOM     15  C   UNL     1      44.129   4.350   9.802  0.00  0.00    +0.000 C 
BRANCH  15  16
ATOM     16  C   UNL     1      45.085   3.637   8.855  0.00  0.00    +0.000 A 
ATOM     17  C   UNL     1      45.251   2.254   8.884  0.00  0.00    +0.000 A 
ATOM     18  C   UNL     1      46.219   1.667   8.074  0.00  0.00    +0.000 A 
ATOM     19  C   UNL     1      46.989   2.469   7.242  0.00  0.00    +0.000 A 
ATOM     20  C   UNL     1      46.745   3.830   7.242  0.00  0.00    +0.000 A 
ATOM     21  N   UNL     1      45.813   4.425   8.018  0.00  0.00    +0.000 NA
ENDBRANCH  15  16
ENDBRANCH  12  15
ENDBRANCH   1  12
TORSDOF 5
ENDMDL
MODEL 5
REMARK VINA RESULT:    -6.207      2.547      5.673
REMARK INTER + INTRA:          -8.594
REMARK INTER:                  -8.247
REMARK INTRA:                  -0.348
REMARK UNBOUND:                -0.573
REMARK  Name = 
REMARK  6 active torsions:
REMARK  status: ('A' for Active; 'I' for Inactive)
REMARK    1  A    between atoms: C_1  and  C_2
REMARK    2  A    between atoms: C_2  and  N_3
REMARK    3  A    between atoms: N_3  and  C_4
REMARK    4  A    between atoms: N_3  and  C_11
REMARK    5  A    between atoms: C_4  and  C_5
REMARK    6  A    between atoms: C_15  and  C_16
REMARK                            x       y       z     vdW  Elec       q    Type
REMARK                         _______ _______ _______ _____ _____    ______ ____
ROOT
ATOM      1  C   UNL     1      45.162   3.650   9.380  0.00  0.00    +0.000 A 
ATOM      2  C   UNL     1      45.617   4.782   8.688  0.00  0.00    +0.000 A 
ATOM      3  N   UNL     1      46.428   4.784   7.597  0.00  0.00    +0.000 NA
ATOM      4  C   UNL     1      46.855   3.582   7.162  0.00  0.00    +0.000 A 
ATOM      5  C   UNL     1      46.519   2.386   7.767  0.00  0.00    +0.000 A 
ATOM      6  C   UNL     1      45.658   2.437   8.876  0.00  0.00    +0.000 A 
ENDROOT
BRANCH   5   7
ATOM      7  C   UNL     1      47.027   1.070   7.310  0.00  0.00    +0.000 C 
ATOM      8  N   UNL     1      46.524  -0.068   7.871  0.00  0.00    +0.000 N 
ATOM      9  O   UNL     1      47.883   0.989   6.436  0.00  0.00    +0.000 OA
ATOM     10  H   UNL     1      45.798  -0.119   8.569  0.00  0.00    +0.000 HD
ATOM     11  H   UNL     1      46.884  -0.943   7.514  0.00  0.00    +0.000 HD
ENDBRANCH   5   7
BRANCH   1  12
ATOM     12  N   UNL     1      44.298   3.696  10.473  0.00  0.00    +0.000 N 
BRANCH  12  14
ATOM     13  C   UNL     1      43.390   2.573  12.497  0.00  0.00    +0.000 C 
ATOM     14  C   UNL     1      43.725   2.458  11.018  0.00  0.00    +0.000 C 
ENDBRANCH  12  14
BRANCH  12  15
ATOM     15  C   UNL     1      43.739   4.978  10.954  0.00  0.00    +0.000 C 
BRANCH  15  16
ATOM     16  C   UNL     1      44.721   5.861  11.712  0.00  0.00    +0.000 A 
ATOM     17  C   UNL     1      44.733   7.245  11.556  0.00  0.00    +0.000 A 
ATOM     18  C   UNL     1      45.725   7.992  12.187  0.00  0.00    +0.000 A 
ATOM     19  C   UNL     1      46.671   7.346  12.970  0.00  0.00    +0.000 A 
ATOM     20  C   UNL     1      46.576   5.973  13.105  0.00  0.00    +0.000 A 
ATOM     21  N   UNL     1      45.626   5.224  12.504  0.00  0.00    +0.000 NA
ENDBRANCH  15  16
ENDBRANCH  12  15
ENDBRANCH   1  12
TORSDOF 5
ENDMDL
MODEL 6
REMARK VINA RESULT:    -6.160      2.418      5.957
REMARK INTER + INTRA:          -8.534
REMARK INTER:                  -8.064
REMARK INTRA:                  -0.470
REMARK UNBOUND:                -0.573
REMARK  Name = 
REMARK  6 active torsions:
REMARK  status: ('A' for Active; 'I' for Inactive)
REMARK    1  A    between atoms: C_1  and  C_2
REMARK    2  A    between atoms: C_2  and  N_3
REMARK    3  A    between atoms: N_3  and  C_4
REMARK    4  A    between atoms: N_3  and  C_11
REMARK    5  A    between atoms: C_4  and  C_5
REMARK    6  A    between atoms: C_15  and  C_16
REMARK                            x       y       z     vdW  Elec       q    Type
REMARK                         _______ _______ _______ _____ _____    ______ ____
ROOT
ATOM      1  C   UNL     1      44.754   4.172   9.935  0.00  0.00    +0.000 A 
ATOM      2  C   UNL     1      44.221   2.896  10.170  0.00  0.00    +0.000 A 
ATOM      3  N   UNL     1      44.507   1.765   9.473  0.00  0.00    +0.000 NA
ATOM      4  C   UNL     1      45.363   1.895   8.439  0.00  0.00    +0.000 A 
ATOM      5  C   UNL     1      45.937   3.097   8.068  0.00  0.00    +0.000 A 
ATOM      6  C   UNL     1      45.628   4.231   8.837  0.00  0.00    +0.000 A 
ENDROOT
BRANCH   5   7
ATOM      7  C   UNL     1      46.843   3.241   6.904  0.00  0.00    +0.000 C 
ATOM      8  N   UNL     1      47.987   2.497   6.854  0.00  0.00    +0.000 N 
ATOM      9  O   UNL     1      46.580   4.010   5.985  0.00  0.00    +0.000 OA
ATOM     10  H   UNL     1      48.283   1.813   7.533  0.00  0.00    +0.000 HD
ATOM     11  H   UNL     1      48.564   2.612   6.032  0.00  0.00    +0.000 HD
ENDBRANCH   5   7
BRANCH   1  12
ATOM     12  N   UNL     1      44.460   5.297  10.704  0.00  0.00    +0.000 N 
BRANCH  12  14
ATOM     13  C   UNL     1      42.699   5.181  12.455  0.00  0.00    +0.000 C 
ATOM     14  C   UNL     1      43.068   5.618  11.046  0.00  0.00    +0.000 C 
ENDBRANCH  12  14
BRANCH  12  15
ATOM     15  C   UNL     1      45.487   6.323  10.983  0.00  0.00    +0.000 C 
BRANCH  15  16
ATOM     16  C   UNL     1      46.339   6.058  12.216  0.00  0.00    +0.000 A 
ATOM     17  C   UNL     1      46.167   4.915  12.995  0.00  0.00    +0.000 A 
ATOM     18  C   UNL     1      46.896   4.779  14.173  0.00  0.00    +0.000 A 
ATOM     19  C   UNL     1      47.792   5.774  14.541  0.00  0.00    +0.000 A 
ATOM     20  C   UNL     1      47.934   6.863  13.701  0.00  0.00    +0.000 A 
ATOM     21  N   UNL     1      47.239   7.022  12.553  0.00  0.00    +0.000 NA
ENDBRANCH  15  16
ENDBRANCH  12  15
ENDBRANCH   1  12
TORSDOF 5
ENDMDL
MODEL 7
REMARK VINA RESULT:    -5.941      2.426      6.476
REMARK INTER + INTRA:          -8.251
REMARK INTER:                  -7.703
REMARK INTRA:                  -0.548
REMARK UNBOUND:                -0.573
REMARK  Name = 
REMARK  6 active torsions:
REMARK  status: ('A' for Active; 'I' for Inactive)
REMARK    1  A    between atoms: C_1  and  C_2
REMARK    2  A    between atoms: C_2  and  N_3
REMARK    3  A    between atoms: N_3  and  C_4
REMARK    4  A    between atoms: N_3  and  C_11
REMARK    5  A    between atoms: C_4  and  C_5
REMARK    6  A    between atoms: C_15  and  C_16
REMARK                            x       y       z     vdW  Elec       q    Type
REMARK                         _______ _______ _______ _____ _____    ______ ____
ROOT
ATOM      1  C   UNL     1      45.330   6.001  12.219  0.00  0.00    +0.000 A 
ATOM      2  C   UNL     1      44.080   5.655  12.754  0.00  0.00    +0.000 A 
ATOM      3  N   UNL     1      43.142   4.870  12.160  0.00  0.00    +0.000 NA
ATOM      4  C   UNL     1      43.436   4.409  10.928  0.00  0.00    +0.000 A 
ATOM      5  C   UNL     1      44.611   4.700  10.262  0.00  0.00    +0.000 A 
ATOM      6  C   UNL     1      45.558   5.494  10.930  0.00  0.00    +0.000 A 
ENDROOT
BRANCH   5   7
ATOM      7  C   UNL     1      44.909   4.226   8.889  0.00  0.00    +0.000 C 
ATOM      8  N   UNL     1      44.245   3.137   8.403  0.00  0.00    +0.000 N 
ATOM      9  O   UNL     1      45.734   4.798   8.185  0.00  0.00    +0.000 OA
ATOM     10  H   UNL     1      43.526   2.614   8.879  0.00  0.00    +0.000 HD
ATOM     11  H   UNL     1      44.464   2.862   7.455  0.00  0.00    +0.000 HD
ENDBRANCH   5   7
BRANCH   1  12
ATOM     12  N   UNL     1      46.277   6.778  12.884  0.00  0.00    +0.000 N 
BRANCH  12  14
ATOM     13  C   UNL     1      47.153   9.082  12.561  0.00  0.00    +0.000 C 
ATOM     14  C   UNL     1      46.036   8.210  13.109  0.00  0.00    +0.000 C 
ENDBRANCH  12  14
BRANCH  12  15
ATOM     15  C   UNL     1      47.636   6.263  13.155  0.00  0.00    +0.000 C 
BRANCH  15  16
ATOM     16  C   UNL     1      47.826   5.653  14.537  0.00  0.00    +0.000 A 
ATOM     17  C   UNL     1      47.089   4.549  14.959  0.00  0.00    +0.000 A 
ATOM     18  C   UNL     1      47.222   4.103  16.271  0.00  0.00    +0.000 A 
ATOM     19  C   UNL     1      48.098   4.756  17.128  0.00  0.00    +0.000 A 
ATOM     20  C   UNL     1      48.821   5.824  16.629  0.00  0.00    +0.000 A 
ATOM     21  N   UNL     1      48.710   6.278  15.362  0.00  0.00    +0.000 NA
ENDBRANCH  15  16
ENDBRANCH  12  15
ENDBRANCH   1  12
TORSDOF 5
ENDMDL
MODEL 8
REMARK VINA RESULT:    -5.663      2.965      5.904
REMARK INTER + INTRA:          -7.892
REMARK INTER:                  -7.296
REMARK INTRA:                  -0.596
REMARK UNBOUND:                -0.573
REMARK  Name = 
REMARK  6 active torsions:
REMARK  status: ('A' for Active; 'I' for Inactive)
REMARK    1  A    between atoms: C_1  and  C_2
REMARK    2  A    between atoms: C_2  and  N_3
REMARK    3  A    between atoms: N_3  and  C_4
REMARK    4  A    between atoms: N_3  and  C_11
REMARK    5  A    between atoms: C_4  and  C_5
REMARK    6  A    between atoms: C_15  and  C_16
REMARK                            x       y       z     vdW  Elec       q    Type
REMARK                         _______ _______ _______ _____ _____    ______ ____
ROOT
ATOM      1  C   UNL     1      45.454   6.246  12.370  0.00  0.00    +0.000 A 
ATOM      2  C   UNL     1      45.772   5.379  13.425  0.00  0.00    +0.000 A 
ATOM      3  N   UNL     1      45.681   4.023  13.406  0.00  0.00    +0.000 NA
ATOM      4  C   UNL     1      45.210   3.467  12.271  0.00  0.00    +0.000 A 
ATOM      5  C   UNL     1      44.821   4.199  11.165  0.00  0.00    +0.000 A 
ATOM      6  C   UNL     1      44.959   5.596  11.227  0.00  0.00    +0.000 A 
ENDROOT
BRANCH   5   7
ATOM      7  C   UNL     1      44.262   3.585   9.937  0.00  0.00    +0.000 C 
ATOM      8  N   UNL     1      44.112   4.353   8.818  0.00  0.00    +0.000 N 
ATOM      9  O   UNL     1      43.942   2.402   9.908  0.00  0.00    +0.000 OA
ATOM     10  H   UNL     1      44.373   5.323   8.721  0.00  0.00    +0.000 HD
ATOM     11  H   UNL     1      43.748   3.888   7.998  0.00  0.00    +0.000 HD
ENDBRANCH   5   7
BRANCH   1  12
ATOM     12  N   UNL     1      45.601   7.631  12.423  0.00  0.00    +0.000 N 
BRANCH  12  14
ATOM     13  C   UNL     1      44.680   9.907  12.038  0.00  0.00    +0.000 C 
ATOM     14  C   UNL     1      44.846   8.493  11.504  0.00  0.00    +0.000 C 
ENDBRANCH  12  14
BRANCH  12  15
ATOM     15  C   UNL     1      46.685   8.256  13.212  0.00  0.00    +0.000 C 
BRANCH  15  16
ATOM     16  C   UNL     1      47.996   8.446  12.463  0.00  0.00    +0.000 A 
ATOM     17  C   UNL     1      48.858   7.381  12.211  0.00  0.00    +0.000 A 
ATOM     18  C   UNL     1      50.094   7.631  11.621  0.00  0.00    +0.000 A 
ATOM     19  C   UNL     1      50.437   8.933  11.281  0.00  0.00    +0.000 A 
ATOM     20  C   UNL     1      49.516   9.934  11.530  0.00  0.00    +0.000 A 
ATOM     21  N   UNL     1      48.311   9.720  12.102  0.00  0.00    +0.000 NA
ENDBRANCH  15  16
ENDBRANCH  12  15
ENDBRANCH   1  12
TORSDOF 5
ENDMDL
MODEL 9
REMARK VINA RESULT:    -5.608      2.931      4.654
REMARK INTER + INTRA:          -7.820
REMARK INTER:                  -7.234
REMARK INTRA:                  -0.586
REMARK UNBOUND:                -0.573
REMARK  Name = 
REMARK  6 active torsions:
REMARK  status: ('A' for Active; 'I' for Inactive)
REMARK    1  A    between atoms: C_1  and  C_2
REMARK    2  A    between atoms: C_2  and  N_3
REMARK    3  A    between atoms: N_3  and  C_4
REMARK    4  A    between atoms: N_3  and  C_11
REMARK    5  A    between atoms: C_4  and  C_5
REMARK    6  A    between atoms: C_15  and  C_16
REMARK                            x       y       z     vdW  Elec       q    Type
REMARK                         _______ _______ _______ _____ _____    ______ ____
ROOT
ATOM      1  C   UNL     1      47.746   5.748  14.732  0.00  0.00    +0.000 A 
ATOM      2  C   UNL     1      48.679   6.652  15.260  0.00  0.00    +0.000 A 
ATOM      3  N   UNL     1      49.284   6.563  16.474  0.00  0.00    +0.000 NA
ATOM      4  C   UNL     1      48.926   5.522  17.251  0.00  0.00    +0.000 A 
ATOM      5  C   UNL     1      47.991   4.575  16.877  0.00  0.00    +0.000 A 
ATOM      6  C   UNL     1      47.414   4.697  15.602  0.00  0.00    +0.000 A 
ENDROOT
BRANCH   5   7
ATOM      7  C   UNL     1      47.569   3.456  17.754  0.00  0.00    +0.000 C 
ATOM      8  N   UNL     1      48.307   3.167  18.866  0.00  0.00    +0.000 N 
ATOM      9  O   UNL     1      46.569   2.794  17.501  0.00  0.00    +0.000 OA
ATOM     10  H   UNL     1      49.124   3.665  19.186  0.00  0.00    +0.000 HD
ATOM     11  H   UNL     1      47.971   2.410  19.446  0.00  0.00    +0.000 HD
ENDBRANCH   5   7
BRANCH   1  12
ATOM     12  N   UNL     1      47.180   5.859  13.463  0.00  0.00    +0.000 N 
BRANCH  12  14
ATOM     13  C   UNL     1      47.909   7.490  11.733  0.00  0.00    +0.000 C 
ATOM     14  C   UNL     1      46.946   7.182  12.868  0.00  0.00    +0.000 C 
ENDBRANCH  12  14
BRANCH  12  15
ATOM     15  C   UNL     1      46.576   4.690  12.788  0.00  0.00    +0.000 C 
BRANCH  15  16
ATOM     16  C   UNL     1      45.118   4.865  12.387  0.00  0.00    +0.000 A 
ATOM     17  C   UNL     1      44.733   4.980  11.053  0.00  0.00    +0.000 A 
ATOM     18  C   UNL     1      43.401   5.250  10.751  0.00  0.00    +0.000 A 
ATOM     19  C   UNL     1      42.480   5.383  11.782  0.00  0.00    +0.000 A 
ATOM     20  C   UNL     1      42.930   5.222  13.079  0.00  0.00    +0.000 A 
ATOM     21  N   UNL     1      44.216   4.961  13.402  0.00  0.00    +0.000 NA
ENDBRANCH  15  16
ENDBRANCH  12  15
ENDBRANCH   1  12
TORSDOF 5
ENDMDL
