MODEL 1
REMARK VINA RESULT:    -8.477      0.000      0.000
REMARK INTER + INTRA:         -11.434
REMARK INTER:                 -11.451
REMARK INTRA:                   0.017
REMARK UNBOUND:                 0.017
REMARK  Name = 
REMARK  7 active torsions:
REMARK  status: ('A' for Active; 'I' for Inactive)
REMARK    1  A    between atoms: N_1  and  C_2
REMARK    2  A    between atoms: C_2  and  C_3
REMARK    3  A    between atoms: C_3  and  C_4
REMARK    4  A    between atoms: C_7  and  C_8
REMARK    5  A    between atoms: C_8  and  N_9
REMARK    6  A    between atoms: C_14  and  C_15
REMARK    7  A    between atoms: C_15  and  O_17
REMARK                            x       y       z     vdW  Elec       q    Type
REMARK                         _______ _______ _______ _____ _____    ______ ____
ROOT
ATOM      1  N   UNL     1      44.428   4.687  10.449  0.00  0.00    +0.000 N 
ATOM      2  C   UNL     1      43.603   3.813  11.106  0.00  0.00    +0.000 A 
ATOM      3  N   UNL     1      43.645   2.615  10.581  0.00  0.00    +0.000 NA
ATOM      4  C   UNL     1      44.563   2.709   9.569  0.00  0.00    +0.000 A 
ATOM      5  C   UNL     1      45.161   1.679   8.843  0.00  0.00    +0.000 A 
ATOM      6  C   UNL     1      46.191   2.022   7.959  0.00  0.00    +0.000 A 
ATOM      7  C   UNL     1      46.453   3.362   7.639  0.00  0.00    +0.000 A 
ATOM      8  C   UNL     1      45.816   4.406   8.321  0.00  0.00    +0.000 A 
ATOM      9  C   UNL     1      44.959   4.029   9.363  0.00  0.00    +0.000 A 
ENDROOT
BRANCH   6  10
ATOM     10  C   UNL     1      47.063   0.966   7.399  0.00  0.00    +0.000 C 
ATOM     11  O   UNL     1      47.990   1.204   6.642  0.00  0.00    +0.000 OA
BRANCH  10  12
ATOM     12  O   UNL     1      46.791  -0.268   7.873  0.00  0.00    +0.000 OA
ATOM     13  H   UNL     1      46.646  -0.957   7.192  0.00  0.00    +0.000 HD
ENDBRANCH  10  12
ENDBRANCH   6  10
BRANCH   1  14
ATOM     14  C   UNL     1      44.903   5.941  11.025  0.00  0.00    +0.000 C 
BRANCH  14  18
ATOM     15  C   UNL     1      47.325   5.307  14.580  0.00  0.00    +0.000 A 
ATOM     16  C   UNL     1      46.302   4.412  14.246  0.00  0.00    +0.000 A 
ATOM     17  C   UNL     1      45.544   4.594  13.082  0.00  0.00    +0.000 A 
ATOM     18  C   UNL     1      45.791   5.677  12.225  0.00  0.00    +0.000 A 
ATOM     19  C   UNL     1      46.838   6.553  12.549  0.00  0.00    +0.000 A 
ATOM     20  C   UNL     1      47.597   6.369  13.710  0.00  0.00    +0.000 A 
BRANCH  15  21
ATOM     21  C   UNL     1      48.117   5.144  15.860  0.00  0.00    +0.000 C 
BRANCH  21  22
ATOM     22  C   UNL     1      47.496   4.120  16.817  0.00  0.00    +0.000 C 
BRANCH  22  23
ATOM     23  N   UNL     1      46.775   4.773  17.911  0.00  0.00    +0.000 NA
ATOM     24  H   UNL     1      47.138   4.435  18.802  0.00  0.00    +0.000 HD
ATOM     25  H   UNL     1      45.791   4.504  17.887  0.00  0.00    +0.000 HD
ENDBRANCH  22  23
ENDBRANCH  21  22
ENDBRANCH  15  21
ENDBRANCH  14  18
ENDBRANCH   1  14
TORSDOF 7
ENDMDL
MODEL 2
REMARK VINA RESULT:    -8.211      1.298      1.481
REMARK INTER + INTRA:         -11.074
REMARK INTER:                 -10.431
REMARK INTRA:                  -0.643
REMARK UNBOUND:                 0.017
REMARK  Name = 
REMARK  7 active torsions:
REMARK  status: ('A' for Active; 'I' for Inactive)
REMARK    1  A    between atoms: N_1  and  C_2
REMARK    2  A    between atoms: C_2  and  C_3
REMARK    3  A    between atoms: C_3  and  C_4
REMARK    4  A    between atoms: C_7  and  C_8
REMARK    5  A    between atoms: C_8  and  N_9
REMARK    6  A    between atoms: C_14  and  C_15
REMARK    7  A    between atoms: C_15  and  O_17
REMARK                            x       y       z     vdW  Elec       q    Type
REMARK                         _______ _______ _______ _____ _____    ______ ____
ROOT
ATOM      1  N   UNL     1      43.892   4.339  10.389  0.00  0.00    +0.000 N 
ATOM      2  C   UNL     1      43.342   3.329  11.134  0.00  0.00    +0.000 A 
ATOM      3  N   UNL     1      43.666   2.149  10.670  0.00  0.00    +0.000 NA
ATOM      4  C   UNL     1      44.489   2.405   9.607  0.00  0.00    +0.000 A 
ATOM      5  C   UNL     1      45.299   1.513   8.903  0.00  0.00    +0.000 A 
ATOM      6  C   UNL     1      46.173   2.047   7.948  0.00  0.00    +0.000 A 
ATOM      7  C   UNL     1      46.075   3.386   7.545  0.00  0.00    +0.000 A 
ATOM      8  C   UNL     1      45.221   4.279   8.206  0.00  0.00    +0.000 A 
ATOM      9  C   UNL     1      44.530   3.766   9.311  0.00  0.00    +0.000 A 
ENDROOT
BRANCH   6  10
ATOM     10  C   UNL     1      47.261   1.209   7.397  0.00  0.00    +0.000 C 
ATOM     11  O   UNL     1      48.166   1.663   6.716  0.00  0.00    +0.000 OA
BRANCH  10  12
ATOM     12  O   UNL     1      47.205  -0.080   7.792  0.00  0.00    +0.000 OA
ATOM     13  H   UNL     1      46.402  -0.331   8.295  0.00  0.00    +0.000 HD
ENDBRANCH  10  12
ENDBRANCH   6  10
BRANCH   1  14
ATOM     14  C   UNL     1      44.057   5.706  10.872  0.00  0.00    +0.000 C 
BRANCH  14  18
ATOM     15  C   UNL     1      47.765   6.323  13.058  0.00  0.00    +0.000 A 
ATOM     16  C   UNL     1      46.758   5.503  13.580  0.00  0.00    +0.000 A 
ATOM     17  C   UNL     1      45.578   5.273  12.861  0.00  0.00    +0.000 A 
ATOM     18  C   UNL     1      45.376   5.860  11.603  0.00  0.00    +0.000 A 
ATOM     19  C   UNL     1      46.401   6.657  11.071  0.00  0.00    +0.000 A 
ATOM     20  C   UNL     1      47.581   6.883  11.788  0.00  0.00    +0.000 A 
BRANCH  15  21
ATOM     21  C   UNL     1      49.023   6.615  13.848  0.00  0.00    +0.000 C 
BRANCH  21  22
ATOM     22  C   UNL     1      48.777   6.657  15.361  0.00  0.00    +0.000 C 
BRANCH  22  23
ATOM     23  N   UNL     1      49.918   6.123  16.106  0.00  0.00    +0.000 NA
ATOM     24  H   UNL     1      49.644   5.968  17.076  0.00  0.00    +0.000 HD
ATOM     25  H   UNL     1      50.668   6.814  16.134  0.00  0.00    +0.000 HD
ENDBRANCH  22  23
ENDBRANCH  21  22
ENDBRANCH  15  21
ENDBRANCH  14  18
ENDBRANCH   1  14
TORSDOF 7
ENDMDL
MODEL 3
REMARK VINA RESULT:    -8.126      3.329      6.826
REMARK INTER + INTRA:         -10.959
REMARK INTER:                 -10.552
REMARK INTRA:                  -0.406
REMARK UNBOUND:                 0.017
REMARK  Name = 
REMARK  7 active torsions:
REMARK  status: ('A' for Active; 'I' for Inactive)
REMARK    1  A    between atoms: N_1  and  C_2
REMARK    2  A    between atoms: C_2  and  C_3
REMARK    3  A    between atoms: C_3  and  C_4
REMARK    4  A    between atoms: C_7  and  C_8
REMARK    5  A    between atoms: C_8  and  N_9
REMARK    6  A    between atoms: C_14  and  C_15
REMARK    7  A    between atoms: C_15  and  O_17
REMARK                            x       y       z     vdW  Elec       q    Type
REMARK                         _______ _______ _______ _____ _____    ______ ____
ROOT
ATOM      1  N   UNL     1      43.584   4.263  12.070  0.00  0.00    +0.000 N 
ATOM      2  C   UNL     1      42.762   5.346  11.903  0.00  0.00    +0.000 A 
ATOM      3  N   UNL     1      43.338   6.458  12.283  0.00  0.00    +0.000 NA
ATOM      4  C   UNL     1      44.596   6.084  12.674  0.00  0.00    +0.000 A 
ATOM      5  C   UNL     1      45.696   6.897  12.945  0.00  0.00    +0.000 A 
ATOM      6  C   UNL     1      46.926   6.268  13.178  0.00  0.00    +0.000 A 
ATOM      7  C   UNL     1      47.003   4.881  13.368  0.00  0.00    +0.000 A 
ATOM      8  C   UNL     1      45.889   4.059  13.156  0.00  0.00    +0.000 A 
ATOM      9  C   UNL     1      44.731   4.698  12.697  0.00  0.00    +0.000 A 
ENDROOT
BRANCH   6  10
ATOM     10  C   UNL     1      48.174   7.062  13.163  0.00  0.00    +0.000 C 
ATOM     11  O   UNL     1      48.209   8.248  13.450  0.00  0.00    +0.000 OA
BRANCH  10  12
ATOM     12  O   UNL     1      49.276   6.333  12.888  0.00  0.00    +0.000 OA
ATOM     13  H   UNL     1      49.837   6.678  12.162  0.00  0.00    +0.000 HD
ENDBRANCH  10  12
ENDBRANCH   6  10
BRANCH   1  14
ATOM     14  C   UNL     1      43.398   2.990  11.380  0.00  0.00    +0.000 C 
BRANCH  14  18
ATOM     15  C   UNL     1      45.780   2.968   7.742  0.00  0.00    +0.000 A 
ATOM     16  C   UNL     1      45.456   1.770   8.390  0.00  0.00    +0.000 A 
ATOM     17  C   UNL     1      44.658   1.771   9.541  0.00  0.00    +0.000 A 
ATOM     18  C   UNL     1      44.167   2.972  10.074  0.00  0.00    +0.000 A 
ATOM     19  C   UNL     1      44.469   4.168   9.404  0.00  0.00    +0.000 A 
ATOM     20  C   UNL     1      45.264   4.165   8.252  0.00  0.00    +0.000 A 
BRANCH  15  21
ATOM     21  C   UNL     1      46.681   2.979   6.526  0.00  0.00    +0.000 C 
BRANCH  21  22
ATOM     22  C   UNL     1      47.859   2.005   6.649  0.00  0.00    +0.000 C 
BRANCH  22  23
ATOM     23  N   UNL     1      48.553   1.835   5.372  0.00  0.00    +0.000 NA
ATOM     24  H   UNL     1      49.552   1.979   5.510  0.00  0.00    +0.000 HD
ATOM     25  H   UNL     1      48.252   2.556   4.716  0.00  0.00    +0.000 HD
ENDBRANCH  22  23
ENDBRANCH  21  22
ENDBRANCH  15  21
ENDBRANCH  14  18
ENDBRANCH   1  14
TORSDOF 7
ENDMDL
MODEL 4
REMARK VINA RESULT:    -7.730      2.104      2.709
REMARK INTER + INTRA:         -10.424
REMARK INTER:                  -9.660
REMARK INTRA:                  -0.764
REMARK UNBOUND:                 0.017
REMARK  Name = 
REMARK  7 active torsions:
REMARK  status: ('A' for Active; 'I' for Inactive)
REMARK    1  A    between atoms: N_1  and  C_2
REMARK    2  A    between atoms: C_2  and  C_3
REMARK    3  A    between atoms: C_3  and  C_4
REMARK    4  A    between atoms: C_7  and  C_8
REMARK    5  A    between atoms: C_8  and  N_9
REMARK    6  A    between atoms: C_14  and  C_15
REMARK    7  A    between atoms: C_15  and  O_17
REMARK                            x       y       z     vdW  Elec       q    Type
REMARK                         _______ _______ _______ _____ _____    ______ ____
ROOT
ATOM      1  N   UNL     1      43.717   4.095  10.562  0.00  0.00    +0.000 N 
ATOM      2  C   UNL     1      43.379   2.923  11.185  0.00  0.00    +0.000 A 
ATOM      3  N   UNL     1      43.899   1.883  10.584  0.00  0.00    +0.000 NA
ATOM      4  C   UNL     1      44.634   2.407   9.554  0.00  0.00    +0.000 A 
ATOM      5  C   UNL     1      45.573   1.766   8.746  0.00  0.00    +0.000 A 
ATOM      6  C   UNL     1      46.310   2.556   7.856  0.00  0.00    +0.000 A 
ATOM      7  C   UNL     1      45.960   3.892   7.614  0.00  0.00    +0.000 A 
ATOM      8  C   UNL     1      44.976   4.531   8.381  0.00  0.00    +0.000 A 
ATOM      9  C   UNL     1      44.419   3.777   9.420  0.00  0.00    +0.000 A 
ENDROOT
BRANCH   6  10
ATOM     10  C   UNL     1      47.517   2.001   7.205  0.00  0.00    +0.000 C 
ATOM     11  O   UNL     1      47.753   0.805   7.156  0.00  0.00    +0.000 OA
BRANCH  10  12
ATOM     12  O   UNL     1      48.282   2.933   6.598  0.00  0.00    +0.000 OA
ATOM     13  H   UNL     1      48.380   3.778   7.085  0.00  0.00    +0.000 HD
ENDBRANCH  10  12
ENDBRANCH   6  10
BRANCH   1  14
ATOM     14  C   UNL     1      43.644   5.405  11.202  0.00  0.00    +0.000 C 
BRANCH  14  18
ATOM     15  C   UNL     1      47.587   6.359  12.769  0.00  0.00    +0.000 A 
ATOM     16  C   UNL     1      47.052   7.080  11.694  0.00  0.00    +0.000 A 
ATOM     17  C   UNL     1      45.768   6.799  11.211  0.00  0.00    +0.000 A 
ATOM     18  C   UNL     1      44.987   5.788  11.791  0.00  0.00    +0.000 A 
ATOM     19  C   UNL     1      45.515   5.089  12.888  0.00  0.00    +0.000 A 
ATOM     20  C   UNL     1      46.797   5.373  13.371  0.00  0.00    +0.000 A 
BRANCH  15  21
ATOM     21  C   UNL     1      48.992   6.624  13.265  0.00  0.00    +0.000 C 
BRANCH  21  22
ATOM     22  C   UNL     1      49.636   7.847  12.601  0.00  0.00    +0.000 C 
BRANCH  22  23
ATOM     23  N   UNL     1      50.941   7.521  12.024  0.00  0.00    +0.000 NA
ATOM     24  H   UNL     1      51.486   8.376  11.921  0.00  0.00    +0.000 HD
ATOM     25  H   UNL     1      50.820   7.148  11.083  0.00  0.00    +0.000 HD
ENDBRANCH  22  23
ENDBRANCH  21  22
ENDBRANCH  15  21
ENDBRANCH  14  18
ENDBRANCH   1  14
TORSDOF 7
ENDMDL
MODEL 5
REMARK VINA RESULT:    -7.700      4.202      7.610
REMARK INTER + INTRA:         -10.383
REMARK INTER:                  -9.820
REMARK INTRA:                  -0.564
REMARK UNBOUND:                 0.017
REMARK  Name = 
REMARK  7 active torsions:
REMARK  status: ('A' for Active; 'I' for Inactive)
REMARK    1  A    between atoms: N_1  and  C_2
REMARK    2  A    between atoms: C_2  and  C_3
REMARK    3  A    between atoms: C_3  and  C_4
REMARK    4  A    between atoms: C_7  and  C_8
REMARK    5  A    between atoms: C_8  and  N_9
REMARK    6  A    between atoms: C_14  and  C_15
REMARK    7  A    between atoms: C_15  and  O_17
REMARK                            x       y       z     vdW  Elec       q    Type
REMARK                         _______ _______ _______ _____ _____    ______ ____
ROOT
ATOM      1  N   UNL     1      46.007   4.786  12.485  0.00  0.00    +0.000 N 
ATOM      2  C   UNL     1      46.330   3.823  13.405  0.00  0.00    +0.000 A 
ATOM      3  N   UNL     1      47.209   4.253  14.274  0.00  0.00    +0.000 NA
ATOM      4  C   UNL     1      47.434   5.558  13.925  0.00  0.00    +0.000 A 
ATOM      5  C   UNL     1      48.099   6.547  14.652  0.00  0.00    +0.000 A 
ATOM      6  C   UNL     1      48.064   7.854  14.151  0.00  0.00    +0.000 A 
ATOM      7  C   UNL     1      47.588   8.121  12.859  0.00  0.00    +0.000 A 
ATOM      8  C   UNL     1      46.970   7.122  12.096  0.00  0.00    +0.000 A 
ATOM      9  C   UNL     1      46.813   5.878  12.720  0.00  0.00    +0.000 A 
ENDROOT
BRANCH   6  10
ATOM     10  C   UNL     1      48.474   8.984  15.013  0.00  0.00    +0.000 C 
ATOM     11  O   UNL     1      49.468   9.658  14.795  0.00  0.00    +0.000 OA
BRANCH  10  12
ATOM     12  O   UNL     1      47.601   9.251  16.007  0.00  0.00    +0.000 OA
ATOM     13  H   UNL     1      46.801   9.751  15.740  0.00  0.00    +0.000 HD
ENDBRANCH  10  12
ENDBRANCH   6  10
BRANCH   1  14
ATOM     14  C   UNL     1      44.796   4.756  11.671  0.00  0.00    +0.000 C 
BRANCH  14  18
ATOM     15  C   UNL     1      45.858   3.193   7.755  0.00  0.00    +0.000 A 
ATOM     16  C   UNL     1      45.269   2.364   8.718  0.00  0.00    +0.000 A 
ATOM     17  C   UNL     1      44.893   2.874   9.967  0.00  0.00    +0.000 A 
ATOM     18  C   UNL     1      45.098   4.225  10.283  0.00  0.00    +0.000 A 
ATOM     19  C   UNL     1      45.660   5.058   9.304  0.00  0.00    +0.000 A 
ATOM     20  C   UNL     1      46.033   4.549   8.055  0.00  0.00    +0.000 A 
BRANCH  15  21
ATOM     21  C   UNL     1      46.311   2.639   6.421  0.00  0.00    +0.000 C 
BRANCH  21  22
ATOM     22  C   UNL     1      47.414   1.583   6.558  0.00  0.00    +0.000 C 
BRANCH  22  23
ATOM     23  N   UNL     1      48.534   1.855   5.657  0.00  0.00    +0.000 NA
ATOM     24  H   UNL     1      48.642   2.864   5.549  0.00  0.00    +0.000 HD
ATOM     25  H   UNL     1      48.326   1.493   4.726  0.00  0.00    +0.000 HD
ENDBRANCH  22  23
ENDBRANCH  21  22
ENDBRANCH  15  21
ENDBRANCH  14  18
ENDBRANCH   1  14
TORSDOF 7
ENDMDL
MODEL 6
REMARK VINA RESULT:    -6.638      3.668      5.678
REMARK INTER + INTRA:          -8.949
REMARK INTER:                  -8.470
REMARK INTRA:                  -0.478
REMARK UNBOUND:                 0.017
REMARK  Name = 
REMARK  7 active torsions:
REMARK  status: ('A' for Active; 'I' for Inactive)
REMARK    1  A    between atoms: N_1  and  C_2
REMARK    2  A    between atoms: C_2  and  C_3
REMARK    3  A    between atoms: C_3  and  C_4
REMARK    4  A    between atoms: C_7  and  C_8
REMARK    5  A    between atoms: C_8  and  N_9
REMARK    6  A    between atoms: C_14  and  C_15
REMARK    7  A    between atoms: C_15  and  O_17
REMARK                            x       y       z     vdW  Elec       q    Type
REMARK                         _______ _______ _______ _____ _____    ______ ____
ROOT
ATOM      1  N   UNL     1      47.273   4.958  14.802  0.00  0.00    +0.000 N 
ATOM      2  C   UNL     1      47.820   6.195  14.581  0.00  0.00    +0.000 A 
ATOM      3  N   UNL     1      47.545   6.644  13.383  0.00  0.00    +0.000 NA
ATOM      4  C   UNL     1      46.756   5.676  12.821  0.00  0.00    +0.000 A 
ATOM      5  C   UNL     1      45.996   5.748  11.653  0.00  0.00    +0.000 A 
ATOM      6  C   UNL     1      45.145   4.674  11.366  0.00  0.00    +0.000 A 
ATOM      7  C   UNL     1      45.224   3.475  12.089  0.00  0.00    +0.000 A 
ATOM      8  C   UNL     1      46.029   3.371  13.231  0.00  0.00    +0.000 A 
ATOM      9  C   UNL     1      46.692   4.541  13.625  0.00  0.00    +0.000 A 
ENDROOT
BRANCH   6  10
ATOM     10  C   UNL     1      44.100   4.819  10.329  0.00  0.00    +0.000 C 
ATOM     11  O   UNL     1      44.022   4.083   9.359  0.00  0.00    +0.000 OA
BRANCH  10  12
ATOM     12  O   UNL     1      43.194   5.782  10.604  0.00  0.00    +0.000 OA
ATOM     13  H   UNL     1      42.641   6.066   9.847  0.00  0.00    +0.000 HD
ENDBRANCH  10  12
ENDBRANCH   6  10
BRANCH   1  14
ATOM     14  C   UNL     1      47.056   4.393  16.130  0.00  0.00    +0.000 C 
BRANCH  14  18
ATOM     15  C   UNL     1      50.837   2.757  17.520  0.00  0.00    +0.000 A 
ATOM     16  C   UNL     1      50.485   4.082  17.807  0.00  0.00    +0.000 A 
ATOM     17  C   UNL     1      49.251   4.600  17.392  0.00  0.00    +0.000 A 
ATOM     18  C   UNL     1      48.342   3.806  16.678  0.00  0.00    +0.000 A 
ATOM     19  C   UNL     1      48.687   2.471  16.420  0.00  0.00    +0.000 A 
ATOM     20  C   UNL     1      49.918   1.953  16.838  0.00  0.00    +0.000 A 
BRANCH  15  21
ATOM     21  C   UNL     1      52.187   2.204  17.924  0.00  0.00    +0.000 C 
BRANCH  21  22
ATOM     22  C   UNL     1      52.473   0.827  17.312  0.00  0.00    +0.000 C 
BRANCH  22  23
ATOM     23  N   UNL     1      52.874  -0.142  18.332  0.00  0.00    +0.000 NA
ATOM     24  H   UNL     1      52.309  -0.002  19.170  0.00  0.00    +0.000 HD
ATOM     25  H   UNL     1      53.839   0.029  18.613  0.00  0.00    +0.000 HD
ENDBRANCH  22  23
ENDBRANCH  21  22
ENDBRANCH  15  21
ENDBRANCH  14  18
ENDBRANCH   1  14
TORSDOF 7
ENDMDL
MODEL 7
REMARK VINA RESULT:    -6.350      4.465      7.969
REMARK INTER + INTRA:          -8.561
REMARK INTER:                  -7.989
REMARK INTRA:                  -0.571
REMARK UNBOUND:                 0.017
REMARK  Name = 
REMARK  7 active torsions:
REMARK  status: ('A' for Active; 'I' for Inactive)
REMARK    1  A    between atoms: N_1  and  C_2
REMARK    2  A    between atoms: C_2  and  C_3
REMARK    3  A    between atoms: C_3  and  C_4
REMARK    4  A    between atoms: C_7  and  C_8
REMARK    5  A    between atoms: C_8  and  N_9
REMARK    6  A    between atoms: C_14  and  C_15
REMARK    7  A    between atoms: C_15  and  O_17
REMARK                            x       y       z     vdW  Elec       q    Type
REMARK                         _______ _______ _______ _____ _____    ______ ____
ROOT
ATOM      1  N   UNL     1      46.451   5.359  13.701  0.00  0.00    +0.000 N 
ATOM      2  C   UNL     1      46.975   4.451  14.584  0.00  0.00    +0.000 A 
ATOM      3  N   UNL     1      47.976   4.951  15.261  0.00  0.00    +0.000 NA
ATOM      4  C   UNL     1      48.079   6.246  14.827  0.00  0.00    +0.000 A 
ATOM      5  C   UNL     1      48.822   7.289  15.381  0.00  0.00    +0.000 A 
ATOM      6  C   UNL     1      48.642   8.569  14.843  0.00  0.00    +0.000 A 
ATOM      7  C   UNL     1      47.931   8.760  13.650  0.00  0.00    +0.000 A 
ATOM      8  C   UNL     1      47.228   7.706  13.052  0.00  0.00    +0.000 A 
ATOM      9  C   UNL     1      47.239   6.488  13.743  0.00  0.00    +0.000 A 
ENDROOT
BRANCH   6  10
ATOM     10  C   UNL     1      49.152   9.752  15.572  0.00  0.00    +0.000 C 
ATOM     11  O   UNL     1      49.004  10.894  15.168  0.00  0.00    +0.000 OA
BRANCH  10  12
ATOM     12  O   UNL     1      49.715   9.454  16.762  0.00  0.00    +0.000 OA
ATOM     13  H   UNL     1      49.554   8.543  17.086  0.00  0.00    +0.000 HD
ENDBRANCH  10  12
ENDBRANCH   6  10
BRANCH   1  14
ATOM     14  C   UNL     1      45.116   5.249  13.122  0.00  0.00    +0.000 C 
BRANCH  14  18
ATOM     15  C   UNL     1      45.124   3.770   9.032  0.00  0.00    +0.000 A 
ATOM     16  C   UNL     1      45.518   5.083   9.316  0.00  0.00    +0.000 A 
ATOM     17  C   UNL     1      45.551   5.551  10.637  0.00  0.00    +0.000 A 
ATOM     18  C   UNL     1      45.190   4.716  11.704  0.00  0.00    +0.000 A 
ATOM     19  C   UNL     1      44.825   3.391  11.417  0.00  0.00    +0.000 A 
ATOM     20  C   UNL     1      44.795   2.925  10.098  0.00  0.00    +0.000 A 
BRANCH  15  21
ATOM     21  C   UNL     1      45.040   3.272   7.605  0.00  0.00    +0.000 C 
BRANCH  21  22
ATOM     22  C   UNL     1      46.413   2.944   7.008  0.00  0.00    +0.000 C 
BRANCH  22  23
ATOM     23  N   UNL     1      46.879   4.006   6.115  0.00  0.00    +0.000 NA
ATOM     24  H   UNL     1      47.694   3.677   5.597  0.00  0.00    +0.000 HD
ATOM     25  H   UNL     1      47.199   4.804   6.664  0.00  0.00    +0.000 HD
ENDBRANCH  22  23
ENDBRANCH  21  22
ENDBRANCH  15  21
ENDBRANCH  14  18
ENDBRANCH   1  14
TORSDOF 7
ENDMDL
MODEL 8
REMARK VINA RESULT:    -6.326      3.555      6.890
REMARK INTER + INTRA:          -8.528
REMARK INTER:                  -8.170
REMARK INTRA:                  -0.357
REMARK UNBOUND:                 0.017
REMARK  Name = 
REMARK  7 active torsions:
REMARK  status: ('A' for Active; 'I' for Inactive)
REMARK    1  A    between atoms: N_1  and  C_2
REMARK    2  A    between atoms: C_2  and  C_3
REMARK    3  A    between atoms: C_3  and  C_4
REMARK    4  A    between atoms: C_7  and  C_8
REMARK    5  A    between atoms: C_8  and  N_9
REMARK    6  A    between atoms: C_14  and  C_15
REMARK    7  A    between atoms: C_15  and  O_17
REMARK                            x       y       z     vdW  Elec       q    Type
REMARK                         _______ _______ _______ _____ _____    ______ ____
ROOT
ATOM      1  N   UNL     1      45.451   7.154  12.800  0.00  0.00    +0.000 N 
ATOM      2  C   UNL     1      44.929   8.364  12.423  0.00  0.00    +0.000 A 
ATOM      3  N   UNL     1      45.866   9.233  12.142  0.00  0.00    +0.000 NA
ATOM      4  C   UNL     1      47.039   8.546  12.306  0.00  0.00    +0.000 A 
ATOM      5  C   UNL     1      48.325   8.922  11.915  0.00  0.00    +0.000 A 
ATOM      6  C   UNL     1      49.348   7.976  12.055  0.00  0.00    +0.000 A 
ATOM      7  C   UNL     1      49.142   6.790  12.773  0.00  0.00    +0.000 A 
ATOM      8  C   UNL     1      47.865   6.429  13.223  0.00  0.00    +0.000 A 
ATOM      9  C   UNL     1      46.820   7.289  12.864  0.00  0.00    +0.000 A 
ENDROOT
BRANCH   6  10
ATOM     10  C   UNL     1      50.648   8.193  11.384  0.00  0.00    +0.000 C 
ATOM     11  O   UNL     1      51.169   9.292  11.288  0.00  0.00    +0.000 OA
BRANCH  10  12
ATOM     12  O   UNL     1      51.239   7.053  10.968  0.00  0.00    +0.000 OA
ATOM     13  H   UNL     1      50.666   6.445  10.456  0.00  0.00    +0.000 HD
ENDBRANCH  10  12
ENDBRANCH   6  10
BRANCH   1  14
ATOM     14  C   UNL     1      44.699   5.904  12.775  0.00  0.00    +0.000 C 
BRANCH  14  18
ATOM     15  C   UNL     1      45.285   3.769   9.032  0.00  0.00    +0.000 A 
ATOM     16  C   UNL     1      45.701   5.099   9.167  0.00  0.00    +0.000 A 
ATOM     17  C   UNL     1      45.547   5.777  10.383  0.00  0.00    +0.000 A 
ATOM     18  C   UNL     1      44.971   5.142  11.493  0.00  0.00    +0.000 A 
ATOM     19  C   UNL     1      44.583   3.799  11.361  0.00  0.00    +0.000 A 
ATOM     20  C   UNL     1      44.740   3.121  10.147  0.00  0.00    +0.000 A 
BRANCH  15  21
ATOM     21  C   UNL     1      45.404   3.044   7.709  0.00  0.00    +0.000 C 
BRANCH  21  22
ATOM     22  C   UNL     1      46.798   2.445   7.482  0.00  0.00    +0.000 C 
BRANCH  22  23
ATOM     23  N   UNL     1      46.806   1.000   7.711  0.00  0.00    +0.000 NA
ATOM     24  H   UNL     1      45.971   0.738   8.235  0.00  0.00    +0.000 HD
ATOM     25  H   UNL     1      47.599   0.747   8.301  0.00  0.00    +0.000 HD
ENDBRANCH  22  23
ENDBRANCH  21  22
ENDBRANCH  15  21
ENDBRANCH  14  18
ENDBRANCH   1  14
TORSDOF 7
ENDMDL
MODEL 9
REMARK VINA RESULT:    -6.045      3.430      4.733
REMARK INTER + INTRA:          -8.148
REMARK INTER:                  -7.555
REMARK INTRA:                  -0.593
REMARK UNBOUND:                 0.017
REMARK  Name = 
REMARK  7 active torsions:
REMARK  status: ('A' for Active; 'I' for Inactive)
REMARK    1  A    between atoms: N_1  and  C_2
REMARK    2  A    between atoms: C_2  and  C_3
REMARK    3  A    between atoms: C_3  and  C_4
REMARK    4  A    between atoms: C_7  and  C_8
REMARK    5  A    between atoms: C_8  and  N_9
REMARK    6  A    between atoms: C_14  and  C_15
REMARK    7  A    between atoms: C_15  and  O_17
REMARK                            x       y       z     vdW  Elec       q    Type
REMARK                         _______ _______ _______ _____ _____    ______ ____
ROOT
ATOM      1  N   UNL     1      45.717   6.014  13.191  0.00  0.00    +0.000 N 
ATOM      2  C   UNL     1      46.333   5.085  13.988  0.00  0.00    +0.000 A 
ATOM      3  N   UNL     1      46.157   3.867  13.542  0.00  0.00    +0.000 NA
ATOM      4  C   UNL     1      45.431   4.019  12.391  0.00  0.00    +0.000 A 
ATOM      5  C   UNL     1      45.170   3.072  11.400  0.00  0.00    +0.000 A 
ATOM      6  C   UNL     1      44.530   3.512  10.235  0.00  0.00    +0.000 A 
ATOM      7  C   UNL     1      43.963   4.792  10.161  0.00  0.00    +0.000 A 
ATOM      8  C   UNL     1      44.169   5.734  11.177  0.00  0.00    +0.000 A 
ATOM      9  C   UNL     1      45.010   5.336  12.224  0.00  0.00    +0.000 A 
ENDROOT
BRANCH   6  10
ATOM     10  C   UNL     1      44.503   2.644   9.037  0.00  0.00    +0.000 C 
ATOM     11  O   UNL     1      44.641   1.433   9.093  0.00  0.00    +0.000 OA
BRANCH  10  12
ATOM     12  O   UNL     1      44.226   3.306   7.894  0.00  0.00    +0.000 OA
ATOM     13  H   UNL     1      44.184   2.752   7.087  0.00  0.00    +0.000 HD
ENDBRANCH  10  12
ENDBRANCH   6  10
BRANCH   1  14
ATOM     14  C   UNL     1      46.062   7.432  13.185  0.00  0.00    +0.000 C 
BRANCH  14  18
ATOM     15  C   UNL     1      50.285   8.169  12.455  0.00  0.00    +0.000 A 
ATOM     16  C   UNL     1      49.740   8.350  13.731  0.00  0.00    +0.000 A 
ATOM     17  C   UNL     1      48.388   8.078  13.978  0.00  0.00    +0.000 A 
ATOM     18  C   UNL     1      47.549   7.620  12.952  0.00  0.00    +0.000 A 
ATOM     19  C   UNL     1      48.107   7.411  11.681  0.00  0.00    +0.000 A 
ATOM     20  C   UNL     1      49.458   7.680  11.437  0.00  0.00    +0.000 A 
BRANCH  15  21
ATOM     21  C   UNL     1      51.733   8.505  12.169  0.00  0.00    +0.000 C 
BRANCH  21  22
ATOM     22  C   UNL     1      52.051   8.539  10.669  0.00  0.00    +0.000 C 
BRANCH  22  23
ATOM     23  N   UNL     1      53.448   8.899  10.424  0.00  0.00    +0.000 NA
ATOM     24  H   UNL     1      53.485   9.797   9.942  0.00  0.00    +0.000 HD
ATOM     25  H   UNL     1      53.875   8.223   9.790  0.00  0.00    +0.000 HD
ENDBRANCH  22  23
ENDBRANCH  21  22
ENDBRANCH  15  21
ENDBRANCH  14  18
ENDBRANCH   1  14
TORSDOF 7
ENDMDL
