MODEL 1
REMARK VINA RESULT:    -8.825      0.000      0.000
REMARK INTER + INTRA:         -10.946
REMARK INTER:                 -10.372
REMARK INTRA:                  -0.573
REMARK UNBOUND:                -0.573
REMARK  Name = 
REMARK  3 active torsions:
REMARK  status: ('A' for Active; 'I' for Inactive)
REMARK    1  A    between atoms: C_2  and  C_4
REMARK    2  A    between atoms: N_8  and  C_9
REMARK    3  A    between atoms: C_9  and  C_10
REMARK                            x       y       z     vdW  Elec       q    Type
REMARK                         _______ _______ _______ _____ _____    ______ ____
ROOT
ATOM      1  C   UNL     1      46.593   2.718   7.445  0.00  0.00    +0.000 A 
ATOM      2  C   UNL     1      46.350   4.066   7.697  0.00  0.00    +0.000 A 
ATOM      3  C   UNL     1      45.480   4.419   8.733  0.00  0.00    +0.000 A 
ATOM      4  C   UNL     1      44.863   3.425   9.483  0.00  0.00    +0.000 A 
ATOM      5  N   UNL     1      43.901   3.683  10.462  0.00  0.00    +0.000 N 
ATOM      6  N   UNL     1      45.091   2.117   9.244  0.00  0.00    +0.000 NA
ATOM      7  C   UNL     1      45.940   1.789   8.235  0.00  0.00    +0.000 A 
ATOM      8  H   UNL     1      43.684   2.774  10.870  0.00  0.00    +0.000 HD
ENDROOT
BRANCH   1  10
ATOM      9  N   UNL     1      47.732   3.105   5.331  0.00  0.00    +0.000 N 
ATOM     10  C   UNL     1      47.476   2.243   6.360  0.00  0.00    +0.000 C 
ATOM     11  O   UNL     1      47.983   1.129   6.392  0.00  0.00    +0.000 OA
ATOM     12  H   UNL     1      48.416   2.799   4.649  0.00  0.00    +0.000 HD
ATOM     13  H   UNL     1      47.536   4.094   5.383  0.00  0.00    +0.000 HD
ENDBRANCH   1  10
BRANCH   5  14
ATOM     14  C   UNL     1      43.940   4.819  11.396  0.00  0.00    +0.000 C 
ATOM     15  C   UNL     1      42.652   5.042  12.183  0.00  0.00    +0.000 C 
ATOM     16  C   UNL     1      43.102   6.068  11.198  0.00  0.00    +0.000 C 
BRANCH  14  17
ATOM     17  C   UNL     1      45.261   4.933  12.148  0.00  0.00    +0.000 A 
ATOM     18  C   UNL     1      46.027   6.108  12.117  0.00  0.00    +0.000 A 
ATOM     19  C   UNL     1      47.192   6.191  12.866  0.00  0.00    +0.000 A 
ATOM     20  N   UNL     1      47.652   5.196  13.645  0.00  0.00    +0.000 NA
ATOM     21  C   UNL     1      46.910   4.072  13.673  0.00  0.00    +0.000 A 
ATOM     22  F   UNL     1      47.334   3.070  14.457  0.00  0.00    +0.000 F 
ATOM     23  C   UNL     1      45.739   3.894  12.954  0.00  0.00    +0.000 A 
ENDBRANCH  14  17
ENDBRANCH   5  14
TORSDOF 3
ENDMDL
MODEL 2
REMARK VINA RESULT:    -6.646      3.291      6.219
REMARK INTER + INTRA:          -8.384
REMARK INTER:                  -8.129
REMARK INTRA:                  -0.255
REMARK UNBOUND:                -0.573
REMARK  Name = 
REMARK  3 active torsions:
REMARK  status: ('A' for Active; 'I' for Inactive)
REMARK    1  A    between atoms: C_2  and  C_4
REMARK    2  A    between atoms: N_8  and  C_9
REMARK    3  A    between atoms: C_9  and  C_10
REMARK                            x       y       z     vdW  Elec       q    Type
REMARK                         _______ _______ _______ _____ _____    ______ ____
ROOT
ATOM      1  C   UNL     1      48.149   6.603  13.888  0.00  0.00    +0.000 A 
ATOM      2  C   UNL     1      47.362   5.509  14.240  0.00  0.00    +0.000 A 
ATOM      3  C   UNL     1      46.318   5.120  13.394  0.00  0.00    +0.000 A 
ATOM      4  C   UNL     1      46.075   5.836  12.228  0.00  0.00    +0.000 A 
ATOM      5  N   UNL     1      44.992   5.586  11.382  0.00  0.00    +0.000 N 
ATOM      6  N   UNL     1      46.831   6.898  11.881  0.00  0.00    +0.000 NA
ATOM      7  C   UNL     1      47.842   7.263  12.711  0.00  0.00    +0.000 A 
ATOM      8  H   UNL     1      45.114   6.222  10.595  0.00  0.00    +0.000 HD
ENDROOT
BRANCH   1  10
ATOM      9  N   UNL     1      49.568   8.433  14.629  0.00  0.00    +0.000 N 
ATOM     10  C   UNL     1      49.258   7.106  14.725  0.00  0.00    +0.000 C 
ATOM     11  O   UNL     1      49.860   6.370  15.497  0.00  0.00    +0.000 OA
ATOM     12  H   UNL     1      50.262   8.780  15.281  0.00  0.00    +0.000 HD
ATOM     13  H   UNL     1      48.954   9.110  14.199  0.00  0.00    +0.000 HD
ENDBRANCH   1  10
BRANCH   5  14
ATOM     14  C   UNL     1      44.474   4.248  11.058  0.00  0.00    +0.000 C 
ATOM     15  C   UNL     1      42.979   4.065  11.307  0.00  0.00    +0.000 C 
ATOM     16  C   UNL     1      43.963   3.291  12.118  0.00  0.00    +0.000 C 
BRANCH  14  17
ATOM     17  C   UNL     1      45.055   3.674   9.771  0.00  0.00    +0.000 A 
ATOM     18  C   UNL     1      45.564   4.503   8.759  0.00  0.00    +0.000 A 
ATOM     19  C   UNL     1      46.141   3.938   7.631  0.00  0.00    +0.000 A 
ATOM     20  N   UNL     1      46.252   2.613   7.433  0.00  0.00    +0.000 NA
ATOM     21  C   UNL     1      45.764   1.823   8.409  0.00  0.00    +0.000 A 
ATOM     22  F   UNL     1      45.880   0.496   8.247  0.00  0.00    +0.000 F 
ATOM     23  C   UNL     1      45.165   2.294   9.566  0.00  0.00    +0.000 A 
ENDBRANCH  14  17
ENDBRANCH   5  14
TORSDOF 3
ENDMDL
