MODEL 1
REMARK VINA RESULT:    -8.067      0.000      0.000
REMARK INTER + INTRA:         -12.171
REMARK INTER:                 -11.368
REMARK INTRA:                  -0.803
REMARK UNBOUND:                -0.803
REMARK  Name = 
REMARK  7 active torsions:
REMARK  status: ('A' for Active; 'I' for Inactive)
REMARK    1  A    between atoms: C_2  and  C_3
REMARK    2  A    between atoms: C_8  and  C_9
REMARK    3  A    between atoms: N_11  and  C_12
REMARK    4  A    between atoms: C_12  and  C_13
REMARK    5  A    between atoms: C_16  and  C_17
REMARK    6  A    between atoms: C_17  and  N_18
REMARK    7  A    between atoms: C_19  and  C_21
REMARK                            x       y       z     vdW  Elec       q    Type
REMARK                         _______ _______ _______ _____ _____    ______ ____
ROOT
ATOM      1  C   UNL     1      47.137   7.777  12.901  0.00  0.00    +0.000 C 
ATOM      2  C   UNL     1      48.253   7.098  12.573  0.00  0.00    +0.000 C 
ATOM      3  C   UNL     1      49.578   7.286  13.255  0.00  0.00    +0.000 C 
ATOM      4  C   UNL     1      49.466   7.980  14.625  0.00  0.00    +0.000 C 
ATOM      5  C   UNL     1      48.548   9.206  14.475  0.00  0.00    +0.000 C 
ATOM      6  C   UNL     1      47.141   8.829  13.987  0.00  0.00    +0.000 C 
ENDROOT
BRANCH   1   7
ATOM      7  C   UNL     1      45.809   7.469  12.260  0.00  0.00    +0.000 C 
BRANCH   7  10
ATOM      8  C   UNL     1      44.825   5.677  10.923  0.00  0.00    +0.000 C 
ATOM      9  O   UNL     1      43.689   6.077  11.164  0.00  0.00    +0.000 OA
ATOM     10  N   UNL     1      45.949   6.318  11.397  0.00  0.00    +0.000 N 
ATOM     11  H   UNL     1      46.886   6.034  11.150  0.00  0.00    +0.000 HD
BRANCH   8  17
ATOM     12  C   UNL     1      44.539   3.181  10.355  0.00  0.00    +0.000 A 
ATOM     13  C   UNL     1      44.700   2.147   9.415  0.00  0.00    +0.000 A 
ATOM     14  C   UNL     1      45.296   2.389   8.178  0.00  0.00    +0.000 A 
ATOM     15  C   UNL     1      45.736   3.668   7.863  0.00  0.00    +0.000 A 
ATOM     16  C   UNL     1      45.577   4.705   8.789  0.00  0.00    +0.000 A 
ATOM     17  C   UNL     1      44.987   4.476  10.047  0.00  0.00    +0.000 A 
BRANCH  12  19
ATOM     18  N   UNL     1      43.402   2.626  12.615  0.00  0.00    +0.000 NA
ATOM     19  C   UNL     1      43.898   2.850  11.589  0.00  0.00    +0.000 C 
ENDBRANCH  12  19
ENDBRANCH   8  17
ENDBRANCH   7  10
ENDBRANCH   1   7
BRANCH   4  20
ATOM     20  C   UNL     1      48.955   7.035  15.731  0.00  0.00    +0.000 C 
BRANCH  20  21
ATOM     21  N   UNL     1      50.022   6.283  16.359  0.00  0.00    +0.000 N 
ATOM     22  C   UNL     1      49.765   5.327  17.316  0.00  0.00    +0.000 C 
ATOM     23  O   UNL     1      48.624   5.049  17.675  0.00  0.00    +0.000 OA
ATOM     24  H   UNL     1      50.964   6.656  16.287  0.00  0.00    +0.000 HD
BRANCH  22  25
ATOM     25  C   UNL     1      50.921   4.599  17.848  0.00  0.00    +0.000 A 
ATOM     26  C   UNL     1      51.881   5.284  18.581  0.00  0.00    +0.000 A 
ATOM     27  S   UNL     1      53.148   4.295  19.146  0.00  0.00    +0.000 S 
ATOM     28  C   UNL     1      52.482   2.922  18.393  0.00  0.00    +0.000 A 
ATOM     29  N   UNL     1      53.108   1.717  18.458  0.00  0.00    +0.000 NA
ATOM     30  C   UNL     1      52.514   0.772  17.809  0.00  0.00    +0.000 A 
ATOM     31  N   UNL     1      51.342   0.921  17.111  0.00  0.00    +0.000 N 
ATOM     32  C   UNL     1      50.647   2.106  17.062  0.00  0.00    +0.000 A 
ATOM     33  O   UNL     1      49.558   2.186  16.502  0.00  0.00    +0.000 OA
ATOM     34  C   UNL     1      51.293   3.210  17.744  0.00  0.00    +0.000 A 
ATOM     35  H   UNL     1      50.920   0.134  16.642  0.00  0.00    +0.000 HD
ENDBRANCH  22  25
ENDBRANCH  20  21
ENDBRANCH   4  20
TORSDOF 7
ENDMDL
MODEL 2
REMARK VINA RESULT:    -7.921      3.418      8.239
REMARK INTER + INTRA:         -11.965
REMARK INTER:                 -10.262
REMARK INTRA:                  -1.703
REMARK UNBOUND:                -0.803
REMARK  Name = 
REMARK  7 active torsions:
REMARK  status: ('A' for Active; 'I' for Inactive)
REMARK    1  A    between atoms: C_2  and  C_3
REMARK    2  A    between atoms: C_8  and  C_9
REMARK    3  A    between atoms: N_11  and  C_12
REMARK    4  A    between atoms: C_12  and  C_13
REMARK    5  A    between atoms: C_16  and  C_17
REMARK    6  A    between atoms: C_17  and  N_18
REMARK    7  A    between atoms: C_19  and  C_21
REMARK                            x       y       z     vdW  Elec       q    Type
REMARK                         _______ _______ _______ _____ _____    ______ ____
ROOT
ATOM      1  C   UNL     1      49.631   8.358  13.785  0.00  0.00    +0.000 C 
ATOM      2  C   UNL     1      49.096   9.583  13.614  0.00  0.00    +0.000 C 
ATOM      3  C   UNL     1      48.060   9.906  12.575  0.00  0.00    +0.000 C 
ATOM      4  C   UNL     1      47.342   8.660  12.021  0.00  0.00    +0.000 C 
ATOM      5  C   UNL     1      48.404   7.600  11.681  0.00  0.00    +0.000 C 
ATOM      6  C   UNL     1      49.241   7.194  12.904  0.00  0.00    +0.000 C 
ENDROOT
BRANCH   1   7
ATOM      7  C   UNL     1      50.583   8.065  14.915  0.00  0.00    +0.000 C 
BRANCH   7  10
ATOM      8  C   UNL     1      49.174   6.865  16.511  0.00  0.00    +0.000 C 
ATOM      9  O   UNL     1      48.551   7.889  16.780  0.00  0.00    +0.000 OA
ATOM     10  N   UNL     1      50.184   6.841  15.573  0.00  0.00    +0.000 N 
ATOM     11  H   UNL     1      50.657   5.991  15.299  0.00  0.00    +0.000 HD
BRANCH   8  17
ATOM     12  C   UNL     1      48.044   4.553  16.618  0.00  0.00    +0.000 A 
ATOM     13  C   UNL     1      47.799   3.379  17.354  0.00  0.00    +0.000 A 
ATOM     14  C   UNL     1      48.290   3.231  18.650  0.00  0.00    +0.000 A 
ATOM     15  C   UNL     1      49.034   4.252  19.227  0.00  0.00    +0.000 A 
ATOM     16  C   UNL     1      49.285   5.422  18.503  0.00  0.00    +0.000 A 
ATOM     17  C   UNL     1      48.789   5.594  17.197  0.00  0.00    +0.000 A 
BRANCH  12  19
ATOM     18  N   UNL     1      47.111   4.606  14.202  0.00  0.00    +0.000 NA
ATOM     19  C   UNL     1      47.522   4.613  15.288  0.00  0.00    +0.000 C 
ENDBRANCH  12  19
ENDBRANCH   8  17
ENDBRANCH   7  10
ENDBRANCH   1   7
BRANCH   4  20
ATOM     20  C   UNL     1      46.288   8.099  12.997  0.00  0.00    +0.000 C 
BRANCH  20  21
ATOM     21  N   UNL     1      45.854   6.763  12.638  0.00  0.00    +0.000 N 
ATOM     22  C   UNL     1      44.789   6.555  11.791  0.00  0.00    +0.000 C 
ATOM     23  O   UNL     1      44.165   7.481  11.281  0.00  0.00    +0.000 OA
ATOM     24  H   UNL     1      46.163   5.995  13.227  0.00  0.00    +0.000 HD
BRANCH  22  25
ATOM     25  C   UNL     1      44.469   5.161  11.466  0.00  0.00    +0.000 A 
ATOM     26  C   UNL     1      43.713   4.408  12.354  0.00  0.00    +0.000 A 
ATOM     27  S   UNL     1      43.411   2.818  11.822  0.00  0.00    +0.000 S 
ATOM     28  C   UNL     1      44.318   3.064  10.404  0.00  0.00    +0.000 A 
ATOM     29  N   UNL     1      44.492   2.061   9.504  0.00  0.00    +0.000 NA
ATOM     30  C   UNL     1      45.235   2.373   8.495  0.00  0.00    +0.000 A 
ATOM     31  N   UNL     1      45.808   3.604   8.298  0.00  0.00    +0.000 N 
ATOM     32  C   UNL     1      45.616   4.663   9.154  0.00  0.00    +0.000 A 
ATOM     33  O   UNL     1      46.070   5.776   8.906  0.00  0.00    +0.000 OA
ATOM     34  C   UNL     1      44.819   4.352  10.324  0.00  0.00    +0.000 A 
ATOM     35  H   UNL     1      46.362   3.787   7.475  0.00  0.00    +0.000 HD
ENDBRANCH  22  25
ENDBRANCH  20  21
ENDBRANCH   4  20
TORSDOF 7
ENDMDL
MODEL 3
REMARK VINA RESULT:    -7.735      3.259      9.577
REMARK INTER + INTRA:         -11.703
REMARK INTER:                 -10.450
REMARK INTRA:                  -1.253
REMARK UNBOUND:                -0.803
REMARK  Name = 
REMARK  7 active torsions:
REMARK  status: ('A' for Active; 'I' for Inactive)
REMARK    1  A    between atoms: C_2  and  C_3
REMARK    2  A    between atoms: C_8  and  C_9
REMARK    3  A    between atoms: N_11  and  C_12
REMARK    4  A    between atoms: C_12  and  C_13
REMARK    5  A    between atoms: C_16  and  C_17
REMARK    6  A    between atoms: C_17  and  N_18
REMARK    7  A    between atoms: C_19  and  C_21
REMARK                            x       y       z     vdW  Elec       q    Type
REMARK                         _______ _______ _______ _____ _____    ______ ____
ROOT
ATOM      1  C   UNL     1      49.475   4.863  19.273  0.00  0.00    +0.000 C 
ATOM      2  C   UNL     1      49.192   3.592  18.925  0.00  0.00    +0.000 C 
ATOM      3  C   UNL     1      47.937   3.181  18.209  0.00  0.00    +0.000 C 
ATOM      4  C   UNL     1      47.214   4.355  17.521  0.00  0.00    +0.000 C 
ATOM      5  C   UNL     1      47.129   5.524  18.518  0.00  0.00    +0.000 C 
ATOM      6  C   UNL     1      48.514   5.995  18.989  0.00  0.00    +0.000 C 
ENDROOT
BRANCH   1   7
ATOM      7  C   UNL     1      50.798   5.235  19.888  0.00  0.00    +0.000 C 
BRANCH   7  10
ATOM      8  C   UNL     1      52.628   4.029  18.808  0.00  0.00    +0.000 C 
ATOM      9  O   UNL     1      52.769   4.922  17.976  0.00  0.00    +0.000 OA
ATOM     10  N   UNL     1      51.696   4.103  19.819  0.00  0.00    +0.000 N 
ATOM     11  H   UNL     1      51.617   3.405  20.545  0.00  0.00    +0.000 HD
BRANCH   8  17
ATOM     12  C   UNL     1      53.224   1.618  18.124  0.00  0.00    +0.000 A 
ATOM     13  C   UNL     1      54.191   0.598  18.076  0.00  0.00    +0.000 A 
ATOM     14  C   UNL     1      55.458   0.784  18.629  0.00  0.00    +0.000 A 
ATOM     15  C   UNL     1      55.775   1.993  19.234  0.00  0.00    +0.000 A 
ATOM     16  C   UNL     1      54.821   3.016  19.284  0.00  0.00    +0.000 A 
ATOM     17  C   UNL     1      53.534   2.842  18.740  0.00  0.00    +0.000 A 
BRANCH  12  19
ATOM     18  N   UNL     1      50.929   1.189  17.003  0.00  0.00    +0.000 NA
ATOM     19  C   UNL     1      51.959   1.351  17.513  0.00  0.00    +0.000 C 
ENDBRANCH  12  19
ENDBRANCH   8  17
ENDBRANCH   7  10
ENDBRANCH   1   7
BRANCH   4  20
ATOM     20  C   UNL     1      47.899   4.791  16.211  0.00  0.00    +0.000 C 
BRANCH  20  21
ATOM     21  N   UNL     1      46.951   5.064  15.150  0.00  0.00    +0.000 N 
ATOM     22  C   UNL     1      47.327   5.715  13.997  0.00  0.00    +0.000 C 
ATOM     23  O   UNL     1      48.482   6.080  13.796  0.00  0.00    +0.000 OA
ATOM     24  H   UNL     1      45.963   5.019  15.381  0.00  0.00    +0.000 HD
BRANCH  22  25
ATOM     25  C   UNL     1      46.291   5.896  12.974  0.00  0.00    +0.000 A 
ATOM     26  C   UNL     1      45.987   7.176  12.530  0.00  0.00    +0.000 A 
ATOM     27  S   UNL     1      44.780   7.216  11.329  0.00  0.00    +0.000 S 
ATOM     28  C   UNL     1      44.588   5.527  11.391  0.00  0.00    +0.000 A 
ATOM     29  N   UNL     1      43.662   4.900  10.617  0.00  0.00    +0.000 NA
ATOM     30  C   UNL     1      43.596   3.623  10.795  0.00  0.00    +0.000 A 
ATOM     31  N   UNL     1      44.382   2.914  11.667  0.00  0.00    +0.000 N 
ATOM     32  C   UNL     1      45.366   3.497  12.430  0.00  0.00    +0.000 A 
ATOM     33  O   UNL     1      46.110   2.824  13.136  0.00  0.00    +0.000 OA
ATOM     34  C   UNL     1      45.455   4.937  12.295  0.00  0.00    +0.000 A 
ATOM     35  H   UNL     1      44.292   1.911  11.742  0.00  0.00    +0.000 HD
ENDBRANCH  22  25
ENDBRANCH  20  21
ENDBRANCH   4  20
TORSDOF 7
ENDMDL
MODEL 4
REMARK VINA RESULT:    -7.538      2.069      2.430
REMARK INTER + INTRA:         -11.425
REMARK INTER:                 -10.168
REMARK INTRA:                  -1.257
REMARK UNBOUND:                -0.803
REMARK  Name = 
REMARK  7 active torsions:
REMARK  status: ('A' for Active; 'I' for Inactive)
REMARK    1  A    between atoms: C_2  and  C_3
REMARK    2  A    between atoms: C_8  and  C_9
REMARK    3  A    between atoms: N_11  and  C_12
REMARK    4  A    between atoms: C_12  and  C_13
REMARK    5  A    between atoms: C_16  and  C_17
REMARK    6  A    between atoms: C_17  and  N_18
REMARK    7  A    between atoms: C_19  and  C_21
REMARK                            x       y       z     vdW  Elec       q    Type
REMARK                         _______ _______ _______ _____ _____    ______ ____
ROOT
ATOM      1  C   UNL     1      47.161   8.112  12.185  0.00  0.00    +0.000 C 
ATOM      2  C   UNL     1      48.246   7.331  12.354  0.00  0.00    +0.000 C 
ATOM      3  C   UNL     1      49.599   7.852  12.747  0.00  0.00    +0.000 C 
ATOM      4  C   UNL     1      49.554   9.264  13.362  0.00  0.00    +0.000 C 
ATOM      5  C   UNL     1      48.665  10.152  12.474  0.00  0.00    +0.000 C 
ATOM      6  C   UNL     1      47.232   9.612  12.352  0.00  0.00    +0.000 C 
ENDROOT
BRANCH   1   7
ATOM      7  C   UNL     1      45.804   7.524  11.901  0.00  0.00    +0.000 C 
BRANCH   7  10
ATOM      8  C   UNL     1      44.844   5.603  10.736  0.00  0.00    +0.000 C 
ATOM      9  O   UNL     1      43.707   5.931  11.064  0.00  0.00    +0.000 OA
ATOM     10  N   UNL     1      45.953   6.346  11.077  0.00  0.00    +0.000 N 
ATOM     11  H   UNL     1      46.884   6.119  10.757  0.00  0.00    +0.000 HD
BRANCH   8  17
ATOM     12  C   UNL     1      44.577   3.089  10.246  0.00  0.00    +0.000 A 
ATOM     13  C   UNL     1      44.750   2.026   9.340  0.00  0.00    +0.000 A 
ATOM     14  C   UNL     1      45.352   2.233   8.099  0.00  0.00    +0.000 A 
ATOM     15  C   UNL     1      45.786   3.504   7.747  0.00  0.00    +0.000 A 
ATOM     16  C   UNL     1      45.615   4.569   8.639  0.00  0.00    +0.000 A 
ATOM     17  C   UNL     1      45.019   4.376   9.900  0.00  0.00    +0.000 A 
BRANCH  12  19
ATOM     18  N   UNL     1      43.424   2.602  12.513  0.00  0.00    +0.000 NA
ATOM     19  C   UNL     1      43.931   2.793  11.486  0.00  0.00    +0.000 C 
ENDBRANCH  12  19
ENDBRANCH   8  17
ENDBRANCH   7  10
ENDBRANCH   1   7
BRANCH   4  20
ATOM     20  C   UNL     1      49.056   9.262  14.821  0.00  0.00    +0.000 C 
BRANCH  20  21
ATOM     21  N   UNL     1      49.295   7.998  15.489  0.00  0.00    +0.000 N 
ATOM     22  C   UNL     1      48.840   7.762  16.767  0.00  0.00    +0.000 C 
ATOM     23  O   UNL     1      48.197   8.594  17.400  0.00  0.00    +0.000 OA
ATOM     24  H   UNL     1      50.026   7.401  15.116  0.00  0.00    +0.000 HD
BRANCH  22  25
ATOM     25  C   UNL     1      49.102   6.430  17.324  0.00  0.00    +0.000 A 
ATOM     26  C   UNL     1      49.936   6.303  18.427  0.00  0.00    +0.000 A 
ATOM     27  S   UNL     1      50.122   4.697  18.965  0.00  0.00    +0.000 S 
ATOM     28  C   UNL     1      49.130   4.108  17.714  0.00  0.00    +0.000 A 
ATOM     29  N   UNL     1      48.899   2.775  17.574  0.00  0.00    +0.000 NA
ATOM     30  C   UNL     1      48.163   2.465  16.560  0.00  0.00    +0.000 A 
ATOM     31  N   UNL     1      47.625   3.370  15.680  0.00  0.00    +0.000 N 
ATOM     32  C   UNL     1      47.788   4.729  15.812  0.00  0.00    +0.000 A 
ATOM     33  O   UNL     1      47.224   5.516  15.059  0.00  0.00    +0.000 OA
ATOM     34  C   UNL     1      48.640   5.127  16.915  0.00  0.00    +0.000 A 
ATOM     35  H   UNL     1      47.041   3.060  14.918  0.00  0.00    +0.000 HD
ENDBRANCH  22  25
ENDBRANCH  20  21
ENDBRANCH   4  20
TORSDOF 7
ENDMDL
MODEL 5
REMARK VINA RESULT:    -7.526      3.379      7.853
REMARK INTER + INTRA:         -11.409
REMARK INTER:                 -10.128
REMARK INTRA:                  -1.281
REMARK UNBOUND:                -0.803
REMARK  Name = 
REMARK  7 active torsions:
REMARK  status: ('A' for Active; 'I' for Inactive)
REMARK    1  A    between atoms: C_2  and  C_3
REMARK    2  A    between atoms: C_8  and  C_9
REMARK    3  A    between atoms: N_11  and  C_12
REMARK    4  A    between atoms: C_12  and  C_13
REMARK    5  A    between atoms: C_16  and  C_17
REMARK    6  A    between atoms: C_17  and  N_18
REMARK    7  A    between atoms: C_19  and  C_21
REMARK                            x       y       z     vdW  Elec       q    Type
REMARK                         _______ _______ _______ _____ _____    ______ ____
ROOT
ATOM      1  C   UNL     1      49.541   8.616  15.484  0.00  0.00    +0.000 C 
ATOM      2  C   UNL     1      48.383   9.034  14.936  0.00  0.00    +0.000 C 
ATOM      3  C   UNL     1      48.263   9.568  13.537  0.00  0.00    +0.000 C 
ATOM      4  C   UNL     1      49.459   9.200  12.639  0.00  0.00    +0.000 C 
ATOM      5  C   UNL     1      50.756   9.486  13.415  0.00  0.00    +0.000 C 
ATOM      6  C   UNL     1      50.845   8.684  14.723  0.00  0.00    +0.000 C 
ENDROOT
BRANCH   1   7
ATOM      7  C   UNL     1      49.584   7.985  16.850  0.00  0.00    +0.000 C 
BRANCH   7  10
ATOM      8  C   UNL     1      49.766   5.738  17.793  0.00  0.00    +0.000 C 
ATOM      9  O   UNL     1      49.269   6.108  18.854  0.00  0.00    +0.000 OA
ATOM     10  N   UNL     1      49.938   6.589  16.723  0.00  0.00    +0.000 N 
ATOM     11  H   UNL     1      50.285   6.278  15.827  0.00  0.00    +0.000 HD
BRANCH   8  17
ATOM     12  C   UNL     1      49.299   3.264  17.250  0.00  0.00    +0.000 A 
ATOM     13  C   UNL     1      49.807   1.962  17.096  0.00  0.00    +0.000 A 
ATOM     14  C   UNL     1      51.153   1.685  17.332  0.00  0.00    +0.000 A 
ATOM     15  C   UNL     1      52.009   2.706  17.721  0.00  0.00    +0.000 A 
ATOM     16  C   UNL     1      51.515   4.006  17.875  0.00  0.00    +0.000 A 
ATOM     17  C   UNL     1      50.156   4.302  17.651  0.00  0.00    +0.000 A 
BRANCH  12  19
ATOM     18  N   UNL     1      46.773   3.590  16.778  0.00  0.00    +0.000 NA
ATOM     19  C   UNL     1      47.912   3.464  16.966  0.00  0.00    +0.000 C 
ENDBRANCH  12  19
ENDBRANCH   8  17
ENDBRANCH   7  10
ENDBRANCH   1   7
BRANCH   4  20
ATOM     20  C   UNL     1      49.411   7.736  12.156  0.00  0.00    +0.000 C 
BRANCH  20  21
ATOM     21  N   UNL     1      48.069   7.302  11.825  0.00  0.00    +0.000 N 
ATOM     22  C   UNL     1      47.390   6.397  12.610  0.00  0.00    +0.000 C 
ATOM     23  O   UNL     1      47.873   5.925  13.636  0.00  0.00    +0.000 OA
ATOM     24  H   UNL     1      47.746   7.458  10.875  0.00  0.00    +0.000 HD
BRANCH  22  25
ATOM     25  C   UNL     1      46.021   6.066  12.201  0.00  0.00    +0.000 A 
ATOM     26  C   UNL     1      45.201   7.064  11.692  0.00  0.00    +0.000 A 
ATOM     27  S   UNL     1      43.651   6.517  11.244  0.00  0.00    +0.000 S 
ATOM     28  C   UNL     1      44.006   4.933  11.756  0.00  0.00    +0.000 A 
ATOM     29  N   UNL     1      43.071   3.949  11.679  0.00  0.00    +0.000 NA
ATOM     30  C   UNL     1      43.460   2.807  12.139  0.00  0.00    +0.000 A 
ATOM     31  N   UNL     1      44.706   2.557  12.656  0.00  0.00    +0.000 N 
ATOM     32  C   UNL     1      45.700   3.507  12.704  0.00  0.00    +0.000 A 
ATOM     33  O   UNL     1      46.830   3.230  13.092  0.00  0.00    +0.000 OA
ATOM     34  C   UNL     1      45.300   4.818  12.234  0.00  0.00    +0.000 A 
ATOM     35  H   UNL     1      44.953   1.634  12.980  0.00  0.00    +0.000 HD
ENDBRANCH  22  25
ENDBRANCH  20  21
ENDBRANCH   4  20
TORSDOF 7
ENDMDL
MODEL 6
REMARK VINA RESULT:    -7.078      2.073      2.646
REMARK INTER + INTRA:         -10.776
REMARK INTER:                  -9.581
REMARK INTRA:                  -1.195
REMARK UNBOUND:                -0.803
REMARK  Name = 
REMARK  7 active torsions:
REMARK  status: ('A' for Active; 'I' for Inactive)
REMARK    1  A    between atoms: C_2  and  C_3
REMARK    2  A    between atoms: C_8  and  C_9
REMARK    3  A    between atoms: N_11  and  C_12
REMARK    4  A    between atoms: C_12  and  C_13
REMARK    5  A    between atoms: C_16  and  C_17
REMARK    6  A    between atoms: C_17  and  N_18
REMARK    7  A    between atoms: C_19  and  C_21
REMARK                            x       y       z     vdW  Elec       q    Type
REMARK                         _______ _______ _______ _____ _____    ______ ____
ROOT
ATOM      1  C   UNL     1      47.819   7.937  12.331  0.00  0.00    +0.000 C 
ATOM      2  C   UNL     1      48.967   7.237  12.235  0.00  0.00    +0.000 C 
ATOM      3  C   UNL     1      50.325   7.868  12.116  0.00  0.00    +0.000 C 
ATOM      4  C   UNL     1      50.351   9.346  12.548  0.00  0.00    +0.000 C 
ATOM      5  C   UNL     1      49.158  10.064  11.893  0.00  0.00    +0.000 C 
ATOM      6  C   UNL     1      47.809   9.448  12.295  0.00  0.00    +0.000 C 
ENDROOT
BRANCH   1   7
ATOM      7  C   UNL     1      46.497   7.254  12.562  0.00  0.00    +0.000 C 
BRANCH   7  10
ATOM      8  C   UNL     1      45.240   5.842  11.014  0.00  0.00    +0.000 C 
ATOM      9  O   UNL     1      44.281   6.609  11.042  0.00  0.00    +0.000 OA
ATOM     10  N   UNL     1      46.403   6.089  11.712  0.00  0.00    +0.000 N 
ATOM     11  H   UNL     1      47.219   5.498  11.643  0.00  0.00    +0.000 HD
BRANCH   8  17
ATOM     12  C   UNL     1      44.593   3.394  10.545  0.00  0.00    +0.000 A 
ATOM     13  C   UNL     1      44.516   2.338   9.618  0.00  0.00    +0.000 A 
ATOM     14  C   UNL     1      44.987   2.493   8.315  0.00  0.00    +0.000 A 
ATOM     15  C   UNL     1      45.536   3.706   7.920  0.00  0.00    +0.000 A 
ATOM     16  C   UNL     1      45.614   4.763   8.832  0.00  0.00    +0.000 A 
ATOM     17  C   UNL     1      45.153   4.621  10.155  0.00  0.00    +0.000 A 
BRANCH  12  19
ATOM     18  N   UNL     1      43.630   2.909  12.900  0.00  0.00    +0.000 NA
ATOM     19  C   UNL     1      44.067   3.156  11.853  0.00  0.00    +0.000 C 
ENDBRANCH  12  19
ENDBRANCH   8  17
ENDBRANCH   7  10
ENDBRANCH   1   7
BRANCH   4  20
ATOM     20  C   UNL     1      50.330   9.519  14.080  0.00  0.00    +0.000 C 
BRANCH  20  21
ATOM     21  N   UNL     1      50.444   8.257  14.784  0.00  0.00    +0.000 N 
ATOM     22  C   UNL     1      49.597   7.930  15.819  0.00  0.00    +0.000 C 
ATOM     23  O   UNL     1      48.694   8.675  16.188  0.00  0.00    +0.000 OA
ATOM     24  H   UNL     1      51.316   7.745  14.691  0.00  0.00    +0.000 HD
BRANCH  22  25
ATOM     25  C   UNL     1      49.779   6.608  16.427  0.00  0.00    +0.000 A 
ATOM     26  C   UNL     1      48.668   5.820  16.692  0.00  0.00    +0.000 A 
ATOM     27  S   UNL     1      49.047   4.307  17.377  0.00  0.00    +0.000 S 
ATOM     28  C   UNL     1      50.710   4.669  17.386  0.00  0.00    +0.000 A 
ATOM     29  N   UNL     1      51.614   3.788  17.890  0.00  0.00    +0.000 NA
ATOM     30  C   UNL     1      52.835   4.207  17.870  0.00  0.00    +0.000 A 
ATOM     31  N   UNL     1      53.235   5.424  17.380  0.00  0.00    +0.000 N 
ATOM     32  C   UNL     1      52.363   6.325  16.813  0.00  0.00    +0.000 A 
ATOM     33  O   UNL     1      52.763   7.367  16.304  0.00  0.00    +0.000 OA
ATOM     34  C   UNL     1      50.973   5.916  16.845  0.00  0.00    +0.000 A 
ATOM     35  H   UNL     1      54.211   5.682  17.376  0.00  0.00    +0.000 HD
ENDBRANCH  22  25
ENDBRANCH  20  21
ENDBRANCH   4  20
TORSDOF 7
ENDMDL
MODEL 7
REMARK VINA RESULT:    -6.946      3.597      8.296
REMARK INTER + INTRA:         -10.591
REMARK INTER:                  -9.490
REMARK INTRA:                  -1.101
REMARK UNBOUND:                -0.803
REMARK  Name = 
REMARK  7 active torsions:
REMARK  status: ('A' for Active; 'I' for Inactive)
REMARK    1  A    between atoms: C_2  and  C_3
REMARK    2  A    between atoms: C_8  and  C_9
REMARK    3  A    between atoms: N_11  and  C_12
REMARK    4  A    between atoms: C_12  and  C_13
REMARK    5  A    between atoms: C_16  and  C_17
REMARK    6  A    between atoms: C_17  and  N_18
REMARK    7  A    between atoms: C_19  and  C_21
REMARK                            x       y       z     vdW  Elec       q    Type
REMARK                         _______ _______ _______ _____ _____    ______ ____
ROOT
ATOM      1  C   UNL     1      50.034   5.768  17.726  0.00  0.00    +0.000 C 
ATOM      2  C   UNL     1      50.159   4.549  18.287  0.00  0.00    +0.000 C 
ATOM      3  C   UNL     1      48.997   3.653  18.608  0.00  0.00    +0.000 C 
ATOM      4  C   UNL     1      47.706   4.035  17.860  0.00  0.00    +0.000 C 
ATOM      5  C   UNL     1      47.504   5.555  17.985  0.00  0.00    +0.000 C 
ATOM      6  C   UNL     1      48.679   6.353  17.398  0.00  0.00    +0.000 C 
ENDROOT
BRANCH   1   7
ATOM      7  C   UNL     1      51.238   6.578  17.323  0.00  0.00    +0.000 C 
BRANCH   7  10
ATOM      8  C   UNL     1      51.073   7.965  15.318  0.00  0.00    +0.000 C 
ATOM      9  O   UNL     1      50.939   8.982  15.994  0.00  0.00    +0.000 OA
ATOM     10  N   UNL     1      51.259   6.722  15.884  0.00  0.00    +0.000 N 
ATOM     11  H   UNL     1      51.435   5.892  15.337  0.00  0.00    +0.000 HD
BRANCH   8  17
ATOM     12  C   UNL     1      52.187   8.458  13.049  0.00  0.00    +0.000 A 
ATOM     13  C   UNL     1      52.075   8.483  11.647  0.00  0.00    +0.000 A 
ATOM     14  C   UNL     1      50.877   8.146  11.017  0.00  0.00    +0.000 A 
ATOM     15  C   UNL     1      49.778   7.777  11.780  0.00  0.00    +0.000 A 
ATOM     16  C   UNL     1      49.879   7.746  13.176  0.00  0.00    +0.000 A 
ATOM     17  C   UNL     1      51.077   8.093  13.828  0.00  0.00    +0.000 A 
BRANCH  12  19
ATOM     18  N   UNL     1      54.469   9.123  14.079  0.00  0.00    +0.000 NA
ATOM     19  C   UNL     1      53.458   8.797  13.610  0.00  0.00    +0.000 C 
ENDBRANCH  12  19
ENDBRANCH   8  17
ENDBRANCH   7  10
ENDBRANCH   1   7
BRANCH   4  20
ATOM     20  C   UNL     1      47.724   3.596  16.381  0.00  0.00    +0.000 C 
BRANCH  20  21
ATOM     21  N   UNL     1      47.020   4.523  15.517  0.00  0.00    +0.000 N 
ATOM     22  C   UNL     1      46.822   4.254  14.182  0.00  0.00    +0.000 C 
ATOM     23  O   UNL     1      47.210   3.214  13.657  0.00  0.00    +0.000 OA
ATOM     24  H   UNL     1      46.920   5.481  15.839  0.00  0.00    +0.000 HD
BRANCH  22  25
ATOM     25  C   UNL     1      46.057   5.245  13.416  0.00  0.00    +0.000 A 
ATOM     26  C   UNL     1      46.551   6.536  13.287  0.00  0.00    +0.000 A 
ATOM     27  S   UNL     1      45.559   7.559  12.353  0.00  0.00    +0.000 S 
ATOM     28  C   UNL     1      44.411   6.324  12.125  0.00  0.00    +0.000 A 
ATOM     29  N   UNL     1      43.268   6.554  11.425  0.00  0.00    +0.000 NA
ATOM     30  C   UNL     1      42.468   5.542  11.364  0.00  0.00    +0.000 A 
ATOM     31  N   UNL     1      42.714   4.317  11.929  0.00  0.00    +0.000 N 
ATOM     32  C   UNL     1      43.878   4.023  12.600  0.00  0.00    +0.000 A 
ATOM     33  O   UNL     1      44.107   2.892  13.019  0.00  0.00    +0.000 OA
ATOM     34  C   UNL     1      44.794   5.138  12.729  0.00  0.00    +0.000 A 
ATOM     35  H   UNL     1      42.054   3.561  11.826  0.00  0.00    +0.000 HD
ENDBRANCH  22  25
ENDBRANCH  20  21
ENDBRANCH   4  20
TORSDOF 7
ENDMDL
MODEL 8
REMARK VINA RESULT:    -6.827      3.561      6.853
REMARK INTER + INTRA:         -10.424
REMARK INTER:                  -8.296
REMARK INTRA:                  -2.128
REMARK UNBOUND:                -0.803
REMARK  Name = 
REMARK  7 active torsions:
REMARK  status: ('A' for Active; 'I' for Inactive)
REMARK    1  A    between atoms: C_2  and  C_3
REMARK    2  A    between atoms: C_8  and  C_9
REMARK    3  A    between atoms: N_11  and  C_12
REMARK    4  A    between atoms: C_12  and  C_13
REMARK    5  A    between atoms: C_16  and  C_17
REMARK    6  A    between atoms: C_17  and  N_18
REMARK    7  A    between atoms: C_19  and  C_21
REMARK                            x       y       z     vdW  Elec       q    Type
REMARK                         _______ _______ _______ _____ _____    ______ ____
ROOT
ATOM      1  C   UNL     1      46.497   5.777  13.279  0.00  0.00    +0.000 C 
ATOM      2  C   UNL     1      47.660   6.187  12.734  0.00  0.00    +0.000 C 
ATOM      3  C   UNL     1      47.780   7.354  11.797  0.00  0.00    +0.000 C 
ATOM      4  C   UNL     1      46.569   8.305  11.848  0.00  0.00    +0.000 C 
ATOM      5  C   UNL     1      45.285   7.459  11.791  0.00  0.00    +0.000 C 
ATOM      6  C   UNL     1      45.188   6.460  12.955  0.00  0.00    +0.000 C 
ENDROOT
BRANCH   1   7
ATOM      7  C   UNL     1      46.451   4.671  14.300  0.00  0.00    +0.000 C 
BRANCH   7  10
ATOM      8  C   UNL     1      47.383   4.288  16.526  0.00  0.00    +0.000 C 
ATOM      9  O   UNL     1      46.466   3.523  16.813  0.00  0.00    +0.000 OA
ATOM     10  N   UNL     1      47.483   4.888  15.289  0.00  0.00    +0.000 N 
ATOM     11  H   UNL     1      48.267   5.466  15.022  0.00  0.00    +0.000 HD
BRANCH   8  17
ATOM     12  C   UNL     1      49.592   3.747  17.733  0.00  0.00    +0.000 A 
ATOM     13  C   UNL     1      50.553   4.128  18.688  0.00  0.00    +0.000 A 
ATOM     14  C   UNL     1      50.388   5.284  19.449  0.00  0.00    +0.000 A 
ATOM     15  C   UNL     1      49.263   6.077  19.263  0.00  0.00    +0.000 A 
ATOM     16  C   UNL     1      48.303   5.709  18.314  0.00  0.00    +0.000 A 
ATOM     17  C   UNL     1      48.448   4.539  17.544  0.00  0.00    +0.000 A 
BRANCH  12  19
ATOM     18  N   UNL     1      50.048   1.622  16.324  0.00  0.00    +0.000 NA
ATOM     19  C   UNL     1      49.852   2.559  16.982  0.00  0.00    +0.000 C 
ENDBRANCH  12  19
ENDBRANCH   8  17
ENDBRANCH   7  10
ENDBRANCH   1   7
BRANCH   4  20
ATOM     20  C   UNL     1      46.580   9.216  13.092  0.00  0.00    +0.000 C 
BRANCH  20  21
ATOM     21  N   UNL     1      47.922   9.550  13.526  0.00  0.00    +0.000 N 
ATOM     22  C   UNL     1      48.337   9.327  14.820  0.00  0.00    +0.000 C 
ATOM     23  O   UNL     1      47.606   8.820  15.666  0.00  0.00    +0.000 OA
ATOM     24  H   UNL     1      48.454  10.194  12.950  0.00  0.00    +0.000 HD
BRANCH  22  25
ATOM     25  C   UNL     1      49.730   9.664  15.131  0.00  0.00    +0.000 A 
ATOM     26  C   UNL     1      50.115  10.997  15.185  0.00  0.00    +0.000 A 
ATOM     27  S   UNL     1      51.757  11.221  15.579  0.00  0.00    +0.000 S 
ATOM     28  C   UNL     1      52.024   9.542  15.647  0.00  0.00    +0.000 A 
ATOM     29  N   UNL     1      53.261   9.042  15.910  0.00  0.00    +0.000 NA
ATOM     30  C   UNL     1      53.329   7.753  15.892  0.00  0.00    +0.000 A 
ATOM     31  N   UNL     1      52.269   6.918  15.648  0.00  0.00    +0.000 N 
ATOM     32  C   UNL     1      50.991   7.377  15.430  0.00  0.00    +0.000 A 
ATOM     33  O   UNL     1      50.047   6.603  15.301  0.00  0.00    +0.000 OA
ATOM     34  C   UNL     1      50.868   8.821  15.403  0.00  0.00    +0.000 A 
ATOM     35  H   UNL     1      52.388   5.916  15.669  0.00  0.00    +0.000 HD
ENDBRANCH  22  25
ENDBRANCH  20  21
ENDBRANCH   4  20
TORSDOF 7
ENDMDL
MODEL 9
REMARK VINA RESULT:    -6.679      5.055      8.132
REMARK INTER + INTRA:         -10.215
REMARK INTER:                  -9.256
REMARK INTRA:                  -0.959
REMARK UNBOUND:                -0.803
REMARK  Name = 
REMARK  7 active torsions:
REMARK  status: ('A' for Active; 'I' for Inactive)
REMARK    1  A    between atoms: C_2  and  C_3
REMARK    2  A    between atoms: C_8  and  C_9
REMARK    3  A    between atoms: N_11  and  C_12
REMARK    4  A    between atoms: C_12  and  C_13
REMARK    5  A    between atoms: C_16  and  C_17
REMARK    6  A    between atoms: C_17  and  N_18
REMARK    7  A    between atoms: C_19  and  C_21
REMARK                            x       y       z     vdW  Elec       q    Type
REMARK                         _______ _______ _______ _____ _____    ______ ____
ROOT
ATOM      1  C   UNL     1      51.031   9.174  13.065  0.00  0.00    +0.000 C 
ATOM      2  C   UNL     1      50.724   9.939  14.132  0.00  0.00    +0.000 C 
ATOM      3  C   UNL     1      49.358  10.509  14.388  0.00  0.00    +0.000 C 
ATOM      4  C   UNL     1      48.243   9.805  13.590  0.00  0.00    +0.000 C 
ATOM      5  C   UNL     1      48.707   9.662  12.130  0.00  0.00    +0.000 C 
ATOM      6  C   UNL     1      50.005   8.849  12.003  0.00  0.00    +0.000 C 
ENDROOT
BRANCH   1   7
ATOM      7  C   UNL     1      52.386   8.535  12.917  0.00  0.00    +0.000 C 
BRANCH   7  10
ATOM      8  C   UNL     1      53.411   7.909  10.789  0.00  0.00    +0.000 C 
ATOM      9  O   UNL     1      54.333   8.702  10.962  0.00  0.00    +0.000 OA
ATOM     10  N   UNL     1      52.409   7.729  11.717  0.00  0.00    +0.000 N 
ATOM     11  H   UNL     1      51.684   7.033  11.613  0.00  0.00    +0.000 HD
BRANCH   8  17
ATOM     12  C   UNL     1      53.939   5.785   9.430  0.00  0.00    +0.000 A 
ATOM     13  C   UNL     1      53.817   5.087   8.215  0.00  0.00    +0.000 A 
ATOM     14  C   UNL     1      53.171   5.660   7.121  0.00  0.00    +0.000 A 
ATOM     15  C   UNL     1      52.636   6.937   7.228  0.00  0.00    +0.000 A 
ATOM     16  C   UNL     1      52.749   7.640   8.433  0.00  0.00    +0.000 A 
ATOM     17  C   UNL     1      53.407   7.080   9.545  0.00  0.00    +0.000 A 
BRANCH  12  19
ATOM     18  N   UNL     1      55.181   4.583  11.360  0.00  0.00    +0.000 NA
ATOM     19  C   UNL     1      54.597   5.114  10.508  0.00  0.00    +0.000 C 
ENDBRANCH  12  19
ENDBRANCH   8  17
ENDBRANCH   7  10
ENDBRANCH   1   7
BRANCH   4  20
ATOM     20  C   UNL     1      47.859   8.436  14.187  0.00  0.00    +0.000 C 
BRANCH  20  21
ATOM     21  N   UNL     1      46.688   7.862  13.554  0.00  0.00    +0.000 N 
ATOM     22  C   UNL     1      46.767   6.712  12.801  0.00  0.00    +0.000 C 
ATOM     23  O   UNL     1      47.822   6.103  12.641  0.00  0.00    +0.000 OA
ATOM     24  H   UNL     1      45.874   8.458  13.444  0.00  0.00    +0.000 HD
BRANCH  22  25
ATOM     25  C   UNL     1      45.510   6.199  12.247  0.00  0.00    +0.000 A 
ATOM     26  C   UNL     1      44.623   7.078  11.641  0.00  0.00    +0.000 A 
ATOM     27  S   UNL     1      43.221   6.326  11.030  0.00  0.00    +0.000 S 
ATOM     28  C   UNL     1      43.729   4.804  11.594  0.00  0.00    +0.000 A 
ATOM     29  N   UNL     1      42.952   3.701  11.425  0.00  0.00    +0.000 NA
ATOM     30  C   UNL     1      43.440   2.621  11.937  0.00  0.00    +0.000 A 
ATOM     31  N   UNL     1      44.643   2.541  12.590  0.00  0.00    +0.000 N 
ATOM     32  C   UNL     1      45.487   3.617  12.738  0.00  0.00    +0.000 A 
ATOM     33  O   UNL     1      46.595   3.496  13.251  0.00  0.00    +0.000 OA
ATOM     34  C   UNL     1      44.966   4.864  12.214  0.00  0.00    +0.000 A 
ATOM     35  H   UNL     1      44.976   1.659  12.949  0.00  0.00    +0.000 HD
ENDBRANCH  22  25
ENDBRANCH  20  21
ENDBRANCH   4  20
TORSDOF 7
ENDMDL
