MODEL 1
REMARK VINA RESULT:    -8.288      0.000      0.000
REMARK INTER + INTRA:         -13.667
REMARK INTER:                 -12.165
REMARK INTRA:                  -1.503
REMARK UNBOUND:                -1.503
REMARK  Name = 
REMARK  9 active torsions:
REMARK  status: ('A' for Active; 'I' for Inactive)
REMARK    1  A    between atoms: C_1  and  O_2
REMARK    2  A    between atoms: O_2  and  C_3
REMARK    3  A    between atoms: C_10  and  C_11
REMARK    4  A    between atoms: N_13  and  C_14
REMARK    5  A    between atoms: C_14  and  C_15
REMARK    6  A    between atoms: C_18  and  C_19
REMARK    7  A    between atoms: C_19  and  N_20
REMARK    8  A    between atoms: N_20  and  C_21
REMARK    9  A    between atoms: C_21  and  C_22
REMARK                            x       y       z     vdW  Elec       q    Type
REMARK                         _______ _______ _______ _____ _____    ______ ____
ROOT
ATOM      1  C   UNL     1      47.221   7.943  13.389  0.00  0.00    +0.000 C 
ENDROOT
BRANCH   1   2
ATOM      2  C   UNL     1      46.293   7.137  12.514  0.00  0.00    +0.000 A 
ATOM      3  C   UNL     1      44.969   6.892  12.904  0.00  0.00    +0.000 A 
ATOM      4  C   UNL     1      44.117   6.119  12.102  0.00  0.00    +0.000 A 
ATOM      5  C   UNL     1      44.564   5.577  10.888  0.00  0.00    +0.000 A 
ATOM      6  C   UNL     1      45.892   5.816  10.506  0.00  0.00    +0.000 A 
ATOM      7  C   UNL     1      46.747   6.580  11.312  0.00  0.00    +0.000 A 
BRANCH   5   8
ATOM      8  C   UNL     1      43.653   4.728  10.021  0.00  0.00    +0.000 C 
BRANCH   8   9
ATOM      9  N   UNL     1      44.331   4.267   8.806  0.00  0.00    +0.000 NA
ATOM     10  H   UNL     1      45.253   4.702   8.767  0.00  0.00    +0.000 HD
BRANCH   9  11
ATOM     11  C   UNL     1      44.501   2.812   8.792  0.00  0.00    +0.000 C 
BRANCH  11  12
ATOM     12  C   UNL     1      45.719   2.409   7.989  0.00  0.00    +0.000 A 
ATOM     13  C   UNL     1      46.257   1.123   8.100  0.00  0.00    +0.000 A 
ATOM     14  C   UNL     1      47.379   0.797   7.348  0.00  0.00    +0.000 A 
ATOM     15  N   UNL     1      47.991   1.650   6.502  0.00  0.00    +0.000 NA
ATOM     16  C   UNL     1      47.455   2.886   6.402  0.00  0.00    +0.000 A 
ATOM     17  C   UNL     1      46.334   3.304   7.105  0.00  0.00    +0.000 A 
ENDBRANCH  11  12
ENDBRANCH   9  11
ENDBRANCH   8   9
ENDBRANCH   5   8
ENDBRANCH   1   2
BRANCH   1  20
ATOM     18  C   UNL     1      48.873   6.820  14.835  0.00  0.00    +0.000 C 
ATOM     19  O   UNL     1      49.783   7.073  14.052  0.00  0.00    +0.000 OA
ATOM     20  N   UNL     1      47.585   7.213  14.580  0.00  0.00    +0.000 N 
ATOM     21  H   UNL     1      46.842   6.955  15.212  0.00  0.00    +0.000 HD
BRANCH  18  29
ATOM     22  C   UNL     1      47.289   4.182  16.382  0.00  0.00    +0.000 A 
ATOM     23  N   UNL     1      46.880   3.176  17.179  0.00  0.00    +0.000 NA
ATOM     24  C   UNL     1      47.563   2.945  18.302  0.00  0.00    +0.000 A 
ATOM     25  N   UNL     1      48.632   3.605  18.736  0.00  0.00    +0.000 NA
ATOM     26  C   UNL     1      49.016   4.591  17.906  0.00  0.00    +0.000 A 
ATOM     27  S   UNL     1      50.363   5.544  18.305  0.00  0.00    +0.000 S 
ATOM     28  C   UNL     1      50.189   6.469  16.888  0.00  0.00    +0.000 A 
ATOM     29  C   UNL     1      49.122   6.080  16.087  0.00  0.00    +0.000 A 
ATOM     30  C   UNL     1      48.418   4.955  16.703  0.00  0.00    +0.000 A 
BRANCH  22  32
ATOM     31  C   UNL     1      47.071   3.609  14.138  0.00  0.00    +0.000 C 
ATOM     32  O   UNL     1      46.582   4.402  15.218  0.00  0.00    +0.000 OA
ENDBRANCH  22  32
ENDBRANCH  18  29
ENDBRANCH   1  20
TORSDOF 8
ENDMDL
MODEL 2
REMARK VINA RESULT:    -7.754      1.606      2.027
REMARK INTER + INTRA:         -12.883
REMARK INTER:                 -11.567
REMARK INTRA:                  -1.315
REMARK UNBOUND:                -1.503
REMARK  Name = 
REMARK  9 active torsions:
REMARK  status: ('A' for Active; 'I' for Inactive)
REMARK    1  A    between atoms: C_1  and  O_2
REMARK    2  A    between atoms: O_2  and  C_3
REMARK    3  A    between atoms: C_10  and  C_11
REMARK    4  A    between atoms: N_13  and  C_14
REMARK    5  A    between atoms: C_14  and  C_15
REMARK    6  A    between atoms: C_18  and  C_19
REMARK    7  A    between atoms: C_19  and  N_20
REMARK    8  A    between atoms: N_20  and  C_21
REMARK    9  A    between atoms: C_21  and  C_22
REMARK                            x       y       z     vdW  Elec       q    Type
REMARK                         _______ _______ _______ _____ _____    ______ ____
ROOT
ATOM      1  C   UNL     1      48.034   6.770  13.229  0.00  0.00    +0.000 C 
ENDROOT
BRANCH   1   2
ATOM      2  C   UNL     1      46.878   5.980  12.666  0.00  0.00    +0.000 A 
ATOM      3  C   UNL     1      46.380   4.856  13.340  0.00  0.00    +0.000 A 
ATOM      4  C   UNL     1      45.324   4.107  12.799  0.00  0.00    +0.000 A 
ATOM      5  C   UNL     1      44.735   4.467  11.578  0.00  0.00    +0.000 A 
ATOM      6  C   UNL     1      45.244   5.585  10.902  0.00  0.00    +0.000 A 
ATOM      7  C   UNL     1      46.305   6.328  11.436  0.00  0.00    +0.000 A 
BRANCH   5   8
ATOM      8  C   UNL     1      43.602   3.654  10.980  0.00  0.00    +0.000 C 
BRANCH   8   9
ATOM      9  N   UNL     1      43.815   3.386   9.555  0.00  0.00    +0.000 NA
ATOM     10  H   UNL     1      44.363   4.152   9.163  0.00  0.00    +0.000 HD
BRANCH   9  11
ATOM     11  C   UNL     1      44.539   2.133   9.335  0.00  0.00    +0.000 C 
BRANCH  11  12
ATOM     12  C   UNL     1      45.630   2.303   8.300  0.00  0.00    +0.000 A 
ATOM     13  C   UNL     1      45.902   3.557   7.744  0.00  0.00    +0.000 A 
ATOM     14  C   UNL     1      46.909   3.665   6.793  0.00  0.00    +0.000 A 
ATOM     15  N   UNL     1      47.656   2.626   6.366  0.00  0.00    +0.000 NA
ATOM     16  C   UNL     1      47.385   1.424   6.918  0.00  0.00    +0.000 A 
ATOM     17  C   UNL     1      46.404   1.216   7.878  0.00  0.00    +0.000 A 
ENDBRANCH  11  12
ENDBRANCH   9  11
ENDBRANCH   8   9
ENDBRANCH   5   8
ENDBRANCH   1   2
BRANCH   1  20
ATOM     18  C   UNL     1      49.044   6.889  15.475  0.00  0.00    +0.000 C 
ATOM     19  O   UNL     1      50.175   6.786  15.010  0.00  0.00    +0.000 OA
ATOM     20  N   UNL     1      47.940   6.888  14.665  0.00  0.00    +0.000 N 
ATOM     21  H   UNL     1      47.016   6.925  15.068  0.00  0.00    +0.000 HD
BRANCH  18  29
ATOM     22  C   UNL     1      48.867   4.613  18.053  0.00  0.00    +0.000 A 
ATOM     23  N   UNL     1      48.764   3.955  19.224  0.00  0.00    +0.000 NA
ATOM     24  C   UNL     1      48.532   4.668  20.328  0.00  0.00    +0.000 A 
ATOM     25  N   UNL     1      48.390   5.988  20.412  0.00  0.00    +0.000 NA
ATOM     26  C   UNL     1      48.514   6.607  19.225  0.00  0.00    +0.000 A 
ATOM     27  S   UNL     1      48.357   8.294  19.141  0.00  0.00    +0.000 S 
ATOM     28  C   UNL     1      48.610   8.284  17.459  0.00  0.00    +0.000 A 
ATOM     29  C   UNL     1      48.821   7.017  16.928  0.00  0.00    +0.000 A 
ATOM     30  C   UNL     1      48.759   6.013  17.990  0.00  0.00    +0.000 A 
BRANCH  22  32
ATOM     31  C   UNL     1      47.924   3.329  16.359  0.00  0.00    +0.000 C 
ATOM     32  O   UNL     1      49.119   3.865  16.921  0.00  0.00    +0.000 OA
ENDBRANCH  22  32
ENDBRANCH  18  29
ENDBRANCH   1  20
TORSDOF 8
ENDMDL
MODEL 3
REMARK VINA RESULT:    -7.505      2.015      3.470
REMARK INTER + INTRA:         -12.518
REMARK INTER:                 -11.328
REMARK INTRA:                  -1.190
REMARK UNBOUND:                -1.503
REMARK  Name = 
REMARK  9 active torsions:
REMARK  status: ('A' for Active; 'I' for Inactive)
REMARK    1  A    between atoms: C_1  and  O_2
REMARK    2  A    between atoms: O_2  and  C_3
REMARK    3  A    between atoms: C_10  and  C_11
REMARK    4  A    between atoms: N_13  and  C_14
REMARK    5  A    between atoms: C_14  and  C_15
REMARK    6  A    between atoms: C_18  and  C_19
REMARK    7  A    between atoms: C_19  and  N_20
REMARK    8  A    between atoms: N_20  and  C_21
REMARK    9  A    between atoms: C_21  and  C_22
REMARK                            x       y       z     vdW  Elec       q    Type
REMARK                         _______ _______ _______ _____ _____    ______ ____
ROOT
ATOM      1  C   UNL     1      47.166   3.684  15.031  0.00  0.00    +0.000 C 
ENDROOT
BRANCH   1   2
ATOM      2  C   UNL     1      46.579   4.175  13.730  0.00  0.00    +0.000 A 
ATOM      3  C   UNL     1      46.730   5.510  13.331  0.00  0.00    +0.000 A 
ATOM      4  C   UNL     1      46.158   5.969  12.135  0.00  0.00    +0.000 A 
ATOM      5  C   UNL     1      45.427   5.105  11.306  0.00  0.00    +0.000 A 
ATOM      6  C   UNL     1      45.269   3.773  11.714  0.00  0.00    +0.000 A 
ATOM      7  C   UNL     1      45.832   3.315  12.914  0.00  0.00    +0.000 A 
BRANCH   5   8
ATOM      8  C   UNL     1      44.794   5.598  10.018  0.00  0.00    +0.000 C 
BRANCH   8   9
ATOM      9  N   UNL     1      45.501   5.097   8.837  0.00  0.00    +0.000 NA
ATOM     10  H   UNL     1      46.464   4.889   9.101  0.00  0.00    +0.000 HD
BRANCH   9  11
ATOM     11  C   UNL     1      44.890   3.875   8.309  0.00  0.00    +0.000 C 
BRANCH  11  12
ATOM     12  C   UNL     1      45.935   2.930   7.758  0.00  0.00    +0.000 A 
ATOM     13  C   UNL     1      46.872   3.367   6.815  0.00  0.00    +0.000 A 
ATOM     14  C   UNL     1      47.810   2.464   6.332  0.00  0.00    +0.000 A 
ATOM     15  N   UNL     1      47.882   1.175   6.720  0.00  0.00    +0.000 NA
ATOM     16  C   UNL     1      46.975   0.770   7.635  0.00  0.00    +0.000 A 
ATOM     17  C   UNL     1      46.003   1.598   8.181  0.00  0.00    +0.000 A 
ENDBRANCH  11  12
ENDBRANCH   9  11
ENDBRANCH   8   9
ENDBRANCH   5   8
ENDBRANCH   1   2
BRANCH   1  20
ATOM     18  C   UNL     1      47.711   4.604  17.253  0.00  0.00    +0.000 C 
ATOM     19  O   UNL     1      47.670   3.489  17.763  0.00  0.00    +0.000 OA
ATOM     20  N   UNL     1      47.473   4.783  15.915  0.00  0.00    +0.000 N 
ATOM     21  H   UNL     1      47.463   5.712  15.523  0.00  0.00    +0.000 HD
BRANCH  18  29
ATOM     22  C   UNL     1      49.722   7.351  16.737  0.00  0.00    +0.000 A 
ATOM     23  N   UNL     1      50.407   8.510  16.789  0.00  0.00    +0.000 NA
ATOM     24  C   UNL     1      50.282   9.267  17.881  0.00  0.00    +0.000 A 
ATOM     25  N   UNL     1      49.539   9.006  18.952  0.00  0.00    +0.000 NA
ATOM     26  C   UNL     1      48.861   7.849  18.855  0.00  0.00    +0.000 A 
ATOM     27  S   UNL     1      47.863   7.353  20.134  0.00  0.00    +0.000 S 
ATOM     28  C   UNL     1      47.425   5.933  19.308  0.00  0.00    +0.000 A 
ATOM     29  C   UNL     1      48.015   5.803  18.055  0.00  0.00    +0.000 A 
ATOM     30  C   UNL     1      48.879   6.954  17.789  0.00  0.00    +0.000 A 
BRANCH  22  32
ATOM     31  C   UNL     1      49.791   7.376  14.412  0.00  0.00    +0.000 C 
ATOM     32  O   UNL     1      49.850   6.584  15.597  0.00  0.00    +0.000 OA
ENDBRANCH  22  32
ENDBRANCH  18  29
ENDBRANCH   1  20
TORSDOF 8
ENDMDL
MODEL 4
REMARK VINA RESULT:    -7.468      2.220      2.915
REMARK INTER + INTRA:         -12.463
REMARK INTER:                 -11.439
REMARK INTRA:                  -1.024
REMARK UNBOUND:                -1.503
REMARK  Name = 
REMARK  9 active torsions:
REMARK  status: ('A' for Active; 'I' for Inactive)
REMARK    1  A    between atoms: C_1  and  O_2
REMARK    2  A    between atoms: O_2  and  C_3
REMARK    3  A    between atoms: C_10  and  C_11
REMARK    4  A    between atoms: N_13  and  C_14
REMARK    5  A    between atoms: C_14  and  C_15
REMARK    6  A    between atoms: C_18  and  C_19
REMARK    7  A    between atoms: C_19  and  N_20
REMARK    8  A    between atoms: N_20  and  C_21
REMARK    9  A    between atoms: C_21  and  C_22
REMARK                            x       y       z     vdW  Elec       q    Type
REMARK                         _______ _______ _______ _____ _____    ______ ____
ROOT
ATOM      1  C   UNL     1      47.969   6.755  13.665  0.00  0.00    +0.000 C 
ENDROOT
BRANCH   1   2
ATOM      2  C   UNL     1      46.844   6.160  12.853  0.00  0.00    +0.000 A 
ATOM      3  C   UNL     1      46.254   4.943  13.223  0.00  0.00    +0.000 A 
ATOM      4  C   UNL     1      45.229   4.380  12.450  0.00  0.00    +0.000 A 
ATOM      5  C   UNL     1      44.763   5.020  11.292  0.00  0.00    +0.000 A 
ATOM      6  C   UNL     1      45.363   6.231  10.919  0.00  0.00    +0.000 A 
ATOM      7  C   UNL     1      46.395   6.791  11.686  0.00  0.00    +0.000 A 
BRANCH   5   8
ATOM      8  C   UNL     1      43.664   4.410  10.443  0.00  0.00    +0.000 C 
BRANCH   8   9
ATOM      9  N   UNL     1      44.158   3.993   9.128  0.00  0.00    +0.000 NA
ATOM     10  H   UNL     1      44.995   4.534   8.912  0.00  0.00    +0.000 HD
BRANCH   9  11
ATOM     11  C   UNL     1      44.503   2.570   9.098  0.00  0.00    +0.000 C 
BRANCH  11  12
ATOM     12  C   UNL     1      45.732   2.319   8.252  0.00  0.00    +0.000 A 
ATOM     13  C   UNL     1      46.395   3.376   7.619  0.00  0.00    +0.000 A 
ATOM     14  C   UNL     1      47.516   3.099   6.847  0.00  0.00    +0.000 A 
ATOM     15  N   UNL     1      48.018   1.860   6.667  0.00  0.00    +0.000 NA
ATOM     16  C   UNL     1      47.371   0.852   7.290  0.00  0.00    +0.000 A 
ATOM     17  C   UNL     1      46.247   1.028   8.086  0.00  0.00    +0.000 A 
ENDBRANCH  11  12
ENDBRANCH   9  11
ENDBRANCH   8   9
ENDBRANCH   5   8
ENDBRANCH   1   2
BRANCH   1  20
ATOM     18  C   UNL     1      48.946   6.348  15.892  0.00  0.00    +0.000 C 
ATOM     19  O   UNL     1      50.072   6.620  15.486  0.00  0.00    +0.000 OA
ATOM     20  N   UNL     1      47.860   6.389  15.058  0.00  0.00    +0.000 N 
ATOM     21  H   UNL     1      46.950   6.115  15.397  0.00  0.00    +0.000 HD
BRANCH  18  29
ATOM     22  C   UNL     1      47.901   8.076  18.682  0.00  0.00    +0.000 A 
ATOM     23  N   UNL     1      47.510   8.497  19.900  0.00  0.00    +0.000 NA
ATOM     24  C   UNL     1      47.493   7.609  20.897  0.00  0.00    +0.000 A 
ATOM     25  N   UNL     1      47.820   6.323  20.826  0.00  0.00    +0.000 NA
ATOM     26  C   UNL     1      48.190   5.940  19.591  0.00  0.00    +0.000 A 
ATOM     27  S   UNL     1      48.648   4.329  19.316  0.00  0.00    +0.000 S 
ATOM     28  C   UNL     1      48.949   4.644  17.672  0.00  0.00    +0.000 A 
ATOM     29  C   UNL     1      48.710   5.961  17.296  0.00  0.00    +0.000 A 
ATOM     30  C   UNL     1      48.258   6.736  18.451  0.00  0.00    +0.000 A 
BRANCH  22  32
ATOM     31  C   UNL     1      47.821  10.338  18.146  0.00  0.00    +0.000 C 
ATOM     32  O   UNL     1      47.903   9.001  17.657  0.00  0.00    +0.000 OA
ENDBRANCH  22  32
ENDBRANCH  18  29
ENDBRANCH   1  20
TORSDOF 8
ENDMDL
MODEL 5
REMARK VINA RESULT:    -7.356      2.556      3.526
REMARK INTER + INTRA:         -12.300
REMARK INTER:                 -11.196
REMARK INTRA:                  -1.104
REMARK UNBOUND:                -1.503
REMARK  Name = 
REMARK  9 active torsions:
REMARK  status: ('A' for Active; 'I' for Inactive)
REMARK    1  A    between atoms: C_1  and  O_2
REMARK    2  A    between atoms: O_2  and  C_3
REMARK    3  A    between atoms: C_10  and  C_11
REMARK    4  A    between atoms: N_13  and  C_14
REMARK    5  A    between atoms: C_14  and  C_15
REMARK    6  A    between atoms: C_18  and  C_19
REMARK    7  A    between atoms: C_19  and  N_20
REMARK    8  A    between atoms: N_20  and  C_21
REMARK    9  A    between atoms: C_21  and  C_22
REMARK                            x       y       z     vdW  Elec       q    Type
REMARK                         _______ _______ _______ _____ _____    ______ ____
ROOT
ATOM      1  C   UNL     1      47.186   4.337  14.885  0.00  0.00    +0.000 C 
ENDROOT
BRANCH   1   2
ATOM      2  C   UNL     1      46.276   4.398  13.682  0.00  0.00    +0.000 A 
ATOM      3  C   UNL     1      45.979   3.243  12.945  0.00  0.00    +0.000 A 
ATOM      4  C   UNL     1      45.156   3.310  11.811  0.00  0.00    +0.000 A 
ATOM      5  C   UNL     1      44.604   4.528  11.390  0.00  0.00    +0.000 A 
ATOM      6  C   UNL     1      44.911   5.683  12.125  0.00  0.00    +0.000 A 
ATOM      7  C   UNL     1      45.742   5.620  13.252  0.00  0.00    +0.000 A 
BRANCH   5   8
ATOM      8  C   UNL     1      43.723   4.610  10.157  0.00  0.00    +0.000 C 
BRANCH   8   9
ATOM      9  N   UNL     1      44.158   3.678   9.113  0.00  0.00    +0.000 NA
ATOM     10  H   UNL     1      43.369   3.498   8.493  0.00  0.00    +0.000 HD
BRANCH   9  11
ATOM     11  C   UNL     1      45.262   4.221   8.319  0.00  0.00    +0.000 C 
BRANCH  11  12
ATOM     12  C   UNL     1      46.104   3.115   7.719  0.00  0.00    +0.000 A 
ATOM     13  C   UNL     1      46.926   3.359   6.614  0.00  0.00    +0.000 A 
ATOM     14  C   UNL     1      47.677   2.314   6.092  0.00  0.00    +0.000 A 
ATOM     15  N   UNL     1      47.669   1.060   6.590  0.00  0.00    +0.000 NA
ATOM     16  C   UNL     1      46.875   0.843   7.660  0.00  0.00    +0.000 A 
ATOM     17  C   UNL     1      46.093   1.823   8.256  0.00  0.00    +0.000 A 
ENDBRANCH  11  12
ENDBRANCH   9  11
ENDBRANCH   8   9
ENDBRANCH   5   8
ENDBRANCH   1   2
BRANCH   1  20
ATOM     18  C   UNL     1      48.608   5.893  16.164  0.00  0.00    +0.000 C 
ATOM     19  O   UNL     1      49.331   4.976  16.542  0.00  0.00    +0.000 OA
ATOM     20  N   UNL     1      47.532   5.659  15.349  0.00  0.00    +0.000 N 
ATOM     21  H   UNL     1      46.921   6.419  15.088  0.00  0.00    +0.000 HD
BRANCH  18  29
ATOM     22  C   UNL     1      47.728   7.751  18.927  0.00  0.00    +0.000 A 
ATOM     23  N   UNL     1      47.536   8.683  19.880  0.00  0.00    +0.000 NA
ATOM     24  C   UNL     1      48.050   9.899  19.684  0.00  0.00    +0.000 A 
ATOM     25  N   UNL     1      48.752  10.309  18.631  0.00  0.00    +0.000 NA
ATOM     26  C   UNL     1      48.932   9.346  17.711  0.00  0.00    +0.000 A 
ATOM     27  S   UNL     1      49.802   9.693  16.296  0.00  0.00    +0.000 S 
ATOM     28  C   UNL     1      49.586   8.109  15.716  0.00  0.00    +0.000 A 
ATOM     29  C   UNL     1      48.862   7.287  16.571  0.00  0.00    +0.000 A 
ATOM     30  C   UNL     1      48.468   8.034  17.766  0.00  0.00    +0.000 A 
BRANCH  22  32
ATOM     31  C   UNL     1      48.097   5.664  19.885  0.00  0.00    +0.000 C 
ATOM     32  O   UNL     1      47.202   6.494  19.148  0.00  0.00    +0.000 OA
ENDBRANCH  22  32
ENDBRANCH  18  29
ENDBRANCH   1  20
TORSDOF 8
ENDMDL
MODEL 6
REMARK VINA RESULT:    -6.773      3.325      7.665
REMARK INTER + INTRA:         -11.444
REMARK INTER:                  -9.789
REMARK INTRA:                  -1.654
REMARK UNBOUND:                -1.503
REMARK  Name = 
REMARK  9 active torsions:
REMARK  status: ('A' for Active; 'I' for Inactive)
REMARK    1  A    between atoms: C_1  and  O_2
REMARK    2  A    between atoms: O_2  and  C_3
REMARK    3  A    between atoms: C_10  and  C_11
REMARK    4  A    between atoms: N_13  and  C_14
REMARK    5  A    between atoms: C_14  and  C_15
REMARK    6  A    between atoms: C_18  and  C_19
REMARK    7  A    between atoms: C_19  and  N_20
REMARK    8  A    between atoms: N_20  and  C_21
REMARK    9  A    between atoms: C_21  and  C_22
REMARK                            x       y       z     vdW  Elec       q    Type
REMARK                         _______ _______ _______ _____ _____    ______ ____
ROOT
ATOM      1  C   UNL     1      48.384   8.116  11.875  0.00  0.00    +0.000 C 
ENDROOT
BRANCH   1   2
ATOM      2  C   UNL     1      48.550   7.983  13.370  0.00  0.00    +0.000 A 
ATOM      3  C   UNL     1      47.987   8.925  14.243  0.00  0.00    +0.000 A 
ATOM      4  C   UNL     1      48.168   8.813  15.629  0.00  0.00    +0.000 A 
ATOM      5  C   UNL     1      48.910   7.756  16.177  0.00  0.00    +0.000 A 
ATOM      6  C   UNL     1      49.480   6.823  15.300  0.00  0.00    +0.000 A 
ATOM      7  C   UNL     1      49.308   6.939  13.914  0.00  0.00    +0.000 A 
BRANCH   5   8
ATOM      8  C   UNL     1      49.122   7.637  17.676  0.00  0.00    +0.000 C 
BRANCH   8   9
ATOM      9  N   UNL     1      49.972   6.493  18.016  0.00  0.00    +0.000 NA
ATOM     10  H   UNL     1      50.684   6.807  18.676  0.00  0.00    +0.000 HD
BRANCH   9  11
ATOM     11  C   UNL     1      49.209   5.407  18.635  0.00  0.00    +0.000 C 
BRANCH  11  12
ATOM     12  C   UNL     1      49.283   4.142  17.808  0.00  0.00    +0.000 A 
ATOM     13  C   UNL     1      48.192   3.720  17.042  0.00  0.00    +0.000 A 
ATOM     14  C   UNL     1      48.302   2.550  16.303  0.00  0.00    +0.000 A 
ATOM     15  N   UNL     1      49.411   1.782  16.271  0.00  0.00    +0.000 NA
ATOM     16  C   UNL     1      50.458   2.206  17.011  0.00  0.00    +0.000 A 
ATOM     17  C   UNL     1      50.447   3.364  17.777  0.00  0.00    +0.000 A 
ENDBRANCH  11  12
ENDBRANCH   9  11
ENDBRANCH   8   9
ENDBRANCH   5   8
ENDBRANCH   1   2
BRANCH   1  20
ATOM     18  C   UNL     1      46.285   6.947  11.320  0.00  0.00    +0.000 C 
ATOM     19  O   UNL     1      45.612   7.860  11.787  0.00  0.00    +0.000 OA
ATOM     20  N   UNL     1      47.654   6.998  11.327  0.00  0.00    +0.000 N 
ATOM     21  H   UNL     1      48.192   6.216  10.983  0.00  0.00    +0.000 HD
BRANCH  18  29
ATOM     22  C   UNL     1      44.513   4.308  12.646  0.00  0.00    +0.000 A 
ATOM     23  N   UNL     1      43.798   3.194  12.892  0.00  0.00    +0.000 NA
ATOM     24  C   UNL     1      43.483   2.408  11.861  0.00  0.00    +0.000 A 
ATOM     25  N   UNL     1      43.799   2.601  10.584  0.00  0.00    +0.000 NA
ATOM     26  C   UNL     1      44.500   3.730  10.379  0.00  0.00    +0.000 A 
ATOM     27  S   UNL     1      44.993   4.136   8.807  0.00  0.00    +0.000 S 
ATOM     28  C   UNL     1      45.755   5.553   9.359  0.00  0.00    +0.000 A 
ATOM     29  C   UNL     1      45.653   5.752  10.731  0.00  0.00    +0.000 A 
ATOM     30  C   UNL     1      44.901   4.654  11.340  0.00  0.00    +0.000 A 
BRANCH  22  32
ATOM     31  C   UNL     1      46.143   4.887  14.202  0.00  0.00    +0.000 C 
ATOM     32  O   UNL     1      44.821   5.120  13.720  0.00  0.00    +0.000 OA
ENDBRANCH  22  32
ENDBRANCH  18  29
ENDBRANCH   1  20
TORSDOF 8
ENDMDL
MODEL 7
REMARK VINA RESULT:    -6.699      4.532      9.189
REMARK INTER + INTRA:         -11.335
REMARK INTER:                 -10.330
REMARK INTRA:                  -1.005
REMARK UNBOUND:                -1.503
REMARK  Name = 
REMARK  9 active torsions:
REMARK  status: ('A' for Active; 'I' for Inactive)
REMARK    1  A    between atoms: C_1  and  O_2
REMARK    2  A    between atoms: O_2  and  C_3
REMARK    3  A    between atoms: C_10  and  C_11
REMARK    4  A    between atoms: N_13  and  C_14
REMARK    5  A    between atoms: C_14  and  C_15
REMARK    6  A    between atoms: C_18  and  C_19
REMARK    7  A    between atoms: C_19  and  N_20
REMARK    8  A    between atoms: N_20  and  C_21
REMARK    9  A    between atoms: C_21  and  C_22
REMARK                            x       y       z     vdW  Elec       q    Type
REMARK                         _______ _______ _______ _____ _____    ______ ____
ROOT
ATOM      1  C   UNL     1      47.191   3.348  16.790  0.00  0.00    +0.000 C 
ENDROOT
BRANCH   1   2
ATOM      2  C   UNL     1      48.668   3.339  17.100  0.00  0.00    +0.000 A 
ATOM      3  C   UNL     1      49.421   2.162  16.986  0.00  0.00    +0.000 A 
ATOM      4  C   UNL     1      50.787   2.152  17.302  0.00  0.00    +0.000 A 
ATOM      5  C   UNL     1      51.436   3.317  17.734  0.00  0.00    +0.000 A 
ATOM      6  C   UNL     1      50.678   4.491  17.857  0.00  0.00    +0.000 A 
ATOM      7  C   UNL     1      49.311   4.500  17.551  0.00  0.00    +0.000 A 
BRANCH   5   8
ATOM      8  C   UNL     1      52.912   3.311  18.091  0.00  0.00    +0.000 C 
BRANCH   8   9
ATOM      9  N   UNL     1      53.253   2.195  18.976  0.00  0.00    +0.000 NA
ATOM     10  H   UNL     1      52.648   1.406  18.748  0.00  0.00    +0.000 HD
BRANCH   9  11
ATOM     11  C   UNL     1      54.647   1.775  18.816  0.00  0.00    +0.000 C 
BRANCH  11  12
ATOM     12  C   UNL     1      54.740   0.420  18.149  0.00  0.00    +0.000 A 
ATOM     13  C   UNL     1      54.695  -0.757  18.904  0.00  0.00    +0.000 A 
ATOM     14  C   UNL     1      54.789  -1.978  18.250  0.00  0.00    +0.000 A 
ATOM     15  N   UNL     1      54.921  -2.109  16.915  0.00  0.00    +0.000 NA
ATOM     16  C   UNL     1      54.956  -0.964  16.199  0.00  0.00    +0.000 A 
ATOM     17  C   UNL     1      54.863   0.303  16.759  0.00  0.00    +0.000 A 
ENDBRANCH  11  12
ENDBRANCH   9  11
ENDBRANCH   8   9
ENDBRANCH   5   8
ENDBRANCH   1   2
BRANCH   1  20
ATOM     18  C   UNL     1      46.896   4.221  14.503  0.00  0.00    +0.000 C 
ATOM     19  O   UNL     1      47.225   3.145  14.013  0.00  0.00    +0.000 OA
ATOM     20  N   UNL     1      46.856   4.400  15.861  0.00  0.00    +0.000 N 
ATOM     21  H   UNL     1      46.630   5.306  16.245  0.00  0.00    +0.000 HD
BRANCH  18  29
ATOM     22  C   UNL     1      44.089   5.017  12.673  0.00  0.00    +0.000 A 
ATOM     23  N   UNL     1      43.134   5.569  11.900  0.00  0.00    +0.000 NA
ATOM     24  C   UNL     1      43.392   6.747  11.327  0.00  0.00    +0.000 A 
ATOM     25  N   UNL     1      44.508   7.461  11.436  0.00  0.00    +0.000 NA
ATOM     26  C   UNL     1      45.429   6.882  12.227  0.00  0.00    +0.000 A 
ATOM     27  S   UNL     1      46.920   7.652  12.476  0.00  0.00    +0.000 S 
ATOM     28  C   UNL     1      47.459   6.391  13.482  0.00  0.00    +0.000 A 
ATOM     29  C   UNL     1      46.531   5.371  13.655  0.00  0.00    +0.000 A 
ATOM     30  C   UNL     1      45.315   5.667  12.897  0.00  0.00    +0.000 A 
BRANCH  22  32
ATOM     31  C   UNL     1      43.552   2.784  12.308  0.00  0.00    +0.000 C 
ATOM     32  O   UNL     1      43.806   3.805  13.270  0.00  0.00    +0.000 OA
ENDBRANCH  22  32
ENDBRANCH  18  29
ENDBRANCH   1  20
TORSDOF 8
ENDMDL
MODEL 8
REMARK VINA RESULT:    -6.672      2.912      4.743
REMARK INTER + INTRA:         -11.295
REMARK INTER:                 -10.116
REMARK INTRA:                  -1.179
REMARK UNBOUND:                -1.503
REMARK  Name = 
REMARK  9 active torsions:
REMARK  status: ('A' for Active; 'I' for Inactive)
REMARK    1  A    between atoms: C_1  and  O_2
REMARK    2  A    between atoms: O_2  and  C_3
REMARK    3  A    between atoms: C_10  and  C_11
REMARK    4  A    between atoms: N_13  and  C_14
REMARK    5  A    between atoms: C_14  and  C_15
REMARK    6  A    between atoms: C_18  and  C_19
REMARK    7  A    between atoms: C_19  and  N_20
REMARK    8  A    between atoms: N_20  and  C_21
REMARK    9  A    between atoms: C_21  and  C_22
REMARK                            x       y       z     vdW  Elec       q    Type
REMARK                         _______ _______ _______ _____ _____    ______ ____
ROOT
ATOM      1  C   UNL     1      47.788   6.003  14.621  0.00  0.00    +0.000 C 
ENDROOT
BRANCH   1   2
ATOM      2  C   UNL     1      46.928   5.622  13.440  0.00  0.00    +0.000 A 
ATOM      3  C   UNL     1      46.856   6.445  12.307  0.00  0.00    +0.000 A 
ATOM      4  C   UNL     1      46.034   6.101  11.224  0.00  0.00    +0.000 A 
ATOM      5  C   UNL     1      45.270   4.925  11.242  0.00  0.00    +0.000 A 
ATOM      6  C   UNL     1      45.337   4.110  12.381  0.00  0.00    +0.000 A 
ATOM      7  C   UNL     1      46.150   4.457  13.468  0.00  0.00    +0.000 A 
BRANCH   5   8
ATOM      8  C   UNL     1      44.368   4.554  10.079  0.00  0.00    +0.000 C 
BRANCH   8   9
ATOM      9  N   UNL     1      45.045   4.718   8.790  0.00  0.00    +0.000 NA
ATOM     10  H   UNL     1      46.051   4.650   8.944  0.00  0.00    +0.000 HD
BRANCH   9  11
ATOM     11  C   UNL     1      44.649   3.688   7.828  0.00  0.00    +0.000 C 
BRANCH  11  12
ATOM     12  C   UNL     1      45.838   2.864   7.383  0.00  0.00    +0.000 A 
ATOM     13  C   UNL     1      46.627   3.269   6.301  0.00  0.00    +0.000 A 
ATOM     14  C   UNL     1      47.706   2.479   5.925  0.00  0.00    +0.000 A 
ATOM     15  N   UNL     1      48.051   1.332   6.544  0.00  0.00    +0.000 NA
ATOM     16  C   UNL     1      47.283   0.959   7.590  0.00  0.00    +0.000 A 
ATOM     17  C   UNL     1      46.190   1.682   8.046  0.00  0.00    +0.000 A 
ENDBRANCH  11  12
ENDBRANCH   9  11
ENDBRANCH   8   9
ENDBRANCH   5   8
ENDBRANCH   1   2
BRANCH   1  20
ATOM     18  C   UNL     1      49.705   7.514  14.963  0.00  0.00    +0.000 C 
ATOM     19  O   UNL     1      49.279   7.864  16.059  0.00  0.00    +0.000 OA
ATOM     20  N   UNL     1      49.029   6.604  14.194  0.00  0.00    +0.000 N 
ATOM     21  H   UNL     1      49.369   6.366  13.274  0.00  0.00    +0.000 HD
BRANCH  18  29
ATOM     22  C   UNL     1      50.557   8.970  11.959  0.00  0.00    +0.000 A 
ATOM     23  N   UNL     1      51.147   9.566  10.906  0.00  0.00    +0.000 NA
ATOM     24  C   UNL     1      52.447   9.853  10.992  0.00  0.00    +0.000 A 
ATOM     25  N   UNL     1      53.250   9.616  12.025  0.00  0.00    +0.000 NA
ATOM     26  C   UNL     1      52.620   9.034  13.060  0.00  0.00    +0.000 A 
ATOM     27  S   UNL     1      53.493   8.653  14.465  0.00  0.00    +0.000 S 
ATOM     28  C   UNL     1      52.108   8.001  15.208  0.00  0.00    +0.000 A 
ATOM     29  C   UNL     1      50.964   8.059  14.420  0.00  0.00    +0.000 A 
ATOM     30  C   UNL     1      51.276   8.676  13.130  0.00  0.00    +0.000 A 
BRANCH  22  32
ATOM     31  C   UNL     1      48.415   9.874  11.889  0.00  0.00    +0.000 C 
ATOM     32  O   UNL     1      49.209   8.690  11.862  0.00  0.00    +0.000 OA
ENDBRANCH  22  32
ENDBRANCH  18  29
ENDBRANCH   1  20
TORSDOF 8
ENDMDL
MODEL 9
REMARK VINA RESULT:    -6.465      2.774      3.326
REMARK INTER + INTRA:         -10.992
REMARK INTER:                  -9.851
REMARK INTRA:                  -1.141
REMARK UNBOUND:                -1.503
REMARK  Name = 
REMARK  9 active torsions:
REMARK  status: ('A' for Active; 'I' for Inactive)
REMARK    1  A    between atoms: C_1  and  O_2
REMARK    2  A    between atoms: O_2  and  C_3
REMARK    3  A    between atoms: C_10  and  C_11
REMARK    4  A    between atoms: N_13  and  C_14
REMARK    5  A    between atoms: C_14  and  C_15
REMARK    6  A    between atoms: C_18  and  C_19
REMARK    7  A    between atoms: C_19  and  N_20
REMARK    8  A    between atoms: N_20  and  C_21
REMARK    9  A    between atoms: C_21  and  C_22
REMARK                            x       y       z     vdW  Elec       q    Type
REMARK                         _______ _______ _______ _____ _____    ______ ____
ROOT
ATOM      1  C   UNL     1      48.045   8.932  14.067  0.00  0.00    +0.000 C 
ENDROOT
BRANCH   1   2
ATOM      2  C   UNL     1      47.103   8.062  13.270  0.00  0.00    +0.000 A 
ATOM      3  C   UNL     1      47.499   6.793  12.824  0.00  0.00    +0.000 A 
ATOM      4  C   UNL     1      46.631   5.999  12.060  0.00  0.00    +0.000 A 
ATOM      5  C   UNL     1      45.345   6.450  11.729  0.00  0.00    +0.000 A 
ATOM      6  C   UNL     1      44.956   7.723  12.169  0.00  0.00    +0.000 A 
ATOM      7  C   UNL     1      45.826   8.522  12.924  0.00  0.00    +0.000 A 
BRANCH   5   8
ATOM      8  C   UNL     1      44.405   5.602  10.892  0.00  0.00    +0.000 C 
BRANCH   8   9
ATOM      9  N   UNL     1      44.814   4.196  10.867  0.00  0.00    +0.000 NA
ATOM     10  H   UNL     1      44.504   3.755  11.733  0.00  0.00    +0.000 HD
BRANCH   9  11
ATOM     11  C   UNL     1      44.225   3.473   9.738  0.00  0.00    +0.000 C 
BRANCH  11  12
ATOM     12  C   UNL     1      45.288   3.017   8.762  0.00  0.00    +0.000 A 
ATOM     13  C   UNL     1      45.924   3.931   7.915  0.00  0.00    +0.000 A 
ATOM     14  C   UNL     1      46.890   3.468   7.031  0.00  0.00    +0.000 A 
ATOM     15  N   UNL     1      47.263   2.176   6.935  0.00  0.00    +0.000 NA
ATOM     16  C   UNL     1      46.645   1.307   7.763  0.00  0.00    +0.000 A 
ATOM     17  C   UNL     1      45.673   1.673   8.684  0.00  0.00    +0.000 A 
ENDBRANCH  11  12
ENDBRANCH   9  11
ENDBRANCH   8   9
ENDBRANCH   5   8
ENDBRANCH   1   2
BRANCH   1  20
ATOM     18  C   UNL     1      48.288   9.742  16.382  0.00  0.00    +0.000 C 
ATOM     19  O   UNL     1      49.037  10.646  16.025  0.00  0.00    +0.000 OA
ATOM     20  N   UNL     1      47.760   8.857  15.480  0.00  0.00    +0.000 N 
ATOM     21  H   UNL     1      47.185   8.091  15.798  0.00  0.00    +0.000 HD
BRANCH  18  29
ATOM     22  C   UNL     1      48.129   7.003  18.464  0.00  0.00    +0.000 A 
ATOM     23  N   UNL     1      47.994   6.124  19.476  0.00  0.00    +0.000 NA
ATOM     24  C   UNL     1      47.588   6.586  20.660  0.00  0.00    +0.000 A 
ATOM     25  N   UNL     1      47.296   7.846  20.968  0.00  0.00    +0.000 NA
ATOM     26  C   UNL     1      47.457   8.692  19.936  0.00  0.00    +0.000 A 
ATOM     27  S   UNL     1      47.124  10.342  20.147  0.00  0.00    +0.000 S 
ATOM     28  C   UNL     1      47.527  10.681  18.530  0.00  0.00    +0.000 A 
ATOM     29  C   UNL     1      47.922   9.566  17.801  0.00  0.00    +0.000 A 
ATOM     30  C   UNL     1      47.875   8.373  18.647  0.00  0.00    +0.000 A 
BRANCH  22  32
ATOM     31  C   UNL     1      49.985   6.427  17.184  0.00  0.00    +0.000 C 
ATOM     32  O   UNL     1      48.563   6.515  17.248  0.00  0.00    +0.000 OA
ENDBRANCH  22  32
ENDBRANCH  18  29
ENDBRANCH   1  20
TORSDOF 8
ENDMDL
