MODEL 1
REMARK VINA RESULT:    -7.067      0.000      0.000
REMARK INTER + INTRA:         -11.111
REMARK INTER:                 -10.166
REMARK INTRA:                  -0.945
REMARK UNBOUND:                -0.945
REMARK  Name = 
REMARK  8 active torsions:
REMARK  status: ('A' for Active; 'I' for Inactive)
REMARK    1  A    between atoms: N_1  and  C_2
REMARK    2  A    between atoms: C_2  and  C_3
REMARK    3  A    between atoms: C_3  and  C_4
REMARK    4  A    between atoms: C_4  and  C_5
REMARK    5  A    between atoms: C_5  and  C_6
REMARK    6  A    between atoms: C_5  and  C_13
REMARK    7  A    between atoms: C_6  and  C_7
REMARK    8  A    between atoms: C_17  and  C_18
REMARK                            x       y       z     vdW  Elec       q    Type
REMARK                         _______ _______ _______ _____ _____    ______ ____
ROOT
ATOM      1  C   UNL     1      44.867   3.867  11.303  0.00  0.00    +0.000 C 
ENDROOT
BRANCH   1   2
ATOM      2  C   UNL     1      45.827   4.628  12.237  0.00  0.00    +0.000 A 
ATOM      3  C   UNL     1      46.361   5.876  11.896  0.00  0.00    +0.000 A 
ATOM      4  C   UNL     1      47.170   6.554  12.796  0.00  0.00    +0.000 A 
ATOM      5  N   UNL     1      47.539   6.066  13.995  0.00  0.00    +0.000 NA
ATOM      6  C   UNL     1      47.083   4.830  14.321  0.00  0.00    +0.000 A 
ATOM      7  C   UNL     1      46.252   4.093  13.463  0.00  0.00    +0.000 A 
BRANCH   6   8
ATOM      8  C   UNL     1      47.459   4.212  15.660  0.00  0.00    +0.000 C 
ATOM      9  F   UNL     1      46.461   4.211  16.588  0.00  0.00    +0.000 F 
ATOM     10  F   UNL     1      47.854   2.909  15.541  0.00  0.00    +0.000 F 
ATOM     11  F   UNL     1      48.514   4.852  16.250  0.00  0.00    +0.000 F 
ENDBRANCH   6   8
ENDBRANCH   1   2
BRANCH   1  12
ATOM     12  C   UNL     1      43.442   3.718  11.910  0.00  0.00    +0.000 C 
BRANCH  12  13
ATOM     13  C   UNL     1      42.900   4.931  12.674  0.00  0.00    +0.000 C 
BRANCH  13  14
ATOM     14  C   UNL     1      42.139   5.856  11.717  0.00  0.00    +0.000 C 
BRANCH  14  15
ATOM     15  N   UNL     1      42.970   6.988  11.334  0.00  0.00    +0.000 NA
ATOM     16  H   UNL     1      43.005   7.653  12.107  0.00  0.00    +0.000 HD
ATOM     17  H   UNL     1      42.542   7.486  10.553  0.00  0.00    +0.000 HD
ENDBRANCH  14  15
ENDBRANCH  13  14
ENDBRANCH  12  13
ENDBRANCH   1  12
BRANCH   1  18
ATOM     18  C   UNL     1      44.823   4.382   9.831  0.00  0.00    +0.000 C 
BRANCH  18  19
ATOM     19  C   UNL     1      45.519   3.536   8.785  0.00  0.00    +0.000 A 
ATOM     20  C   UNL     1      45.613   2.154   8.921  0.00  0.00    +0.000 A 
ATOM     21  C   UNL     1      46.321   1.423   7.968  0.00  0.00    +0.000 A 
ATOM     22  C   UNL     1      46.911   2.082   6.902  0.00  0.00    +0.000 A 
ATOM     23  C   UNL     1      46.769   3.453   6.832  0.00  0.00    +0.000 A 
ATOM     24  N   UNL     1      46.102   4.189   7.749  0.00  0.00    +0.000 NA
ENDBRANCH  18  19
ENDBRANCH   1  18
TORSDOF 8
ENDMDL
MODEL 2
REMARK VINA RESULT:    -6.974      2.092      2.701
REMARK INTER + INTRA:         -10.977
REMARK INTER:                  -9.981
REMARK INTRA:                  -0.996
REMARK UNBOUND:                -0.945
REMARK  Name = 
REMARK  8 active torsions:
REMARK  status: ('A' for Active; 'I' for Inactive)
REMARK    1  A    between atoms: N_1  and  C_2
REMARK    2  A    between atoms: C_2  and  C_3
REMARK    3  A    between atoms: C_3  and  C_4
REMARK    4  A    between atoms: C_4  and  C_5
REMARK    5  A    between atoms: C_5  and  C_6
REMARK    6  A    between atoms: C_5  and  C_13
REMARK    7  A    between atoms: C_6  and  C_7
REMARK    8  A    between atoms: C_17  and  C_18
REMARK                            x       y       z     vdW  Elec       q    Type
REMARK                         _______ _______ _______ _____ _____    ______ ____
ROOT
ATOM      1  C   UNL     1      44.755   3.793  11.169  0.00  0.00    +0.000 C 
ENDROOT
BRANCH   1   2
ATOM      2  C   UNL     1      45.780   4.502  12.074  0.00  0.00    +0.000 A 
ATOM      3  C   UNL     1      46.204   3.953  13.289  0.00  0.00    +0.000 A 
ATOM      4  C   UNL     1      47.177   4.596  14.040  0.00  0.00    +0.000 A 
ATOM      5  N   UNL     1      47.732   5.776  13.705  0.00  0.00    +0.000 NA
ATOM      6  C   UNL     1      47.292   6.357  12.561  0.00  0.00    +0.000 A 
ATOM      7  C   UNL     1      46.318   5.758  11.747  0.00  0.00    +0.000 A 
BRANCH   6   8
ATOM      8  C   UNL     1      47.872   7.693  12.117  0.00  0.00    +0.000 C 
ATOM      9  F   UNL     1      46.944   8.648  11.822  0.00  0.00    +0.000 F 
ATOM     10  F   UNL     1      48.686   8.249  13.064  0.00  0.00    +0.000 F 
ATOM     11  F   UNL     1      48.651   7.577  11.000  0.00  0.00    +0.000 F 
ENDBRANCH   6   8
ENDBRANCH   1   2
BRANCH   1  12
ATOM     12  C   UNL     1      43.341   3.726  11.814  0.00  0.00    +0.000 C 
BRANCH  12  13
ATOM     13  C   UNL     1      42.901   4.958  12.614  0.00  0.00    +0.000 C 
BRANCH  13  14
ATOM     14  C   UNL     1      42.160   5.940  11.699  0.00  0.00    +0.000 C 
BRANCH  14  15
ATOM     15  N   UNL     1      43.044   7.024  11.294  0.00  0.00    +0.000 NA
ATOM     16  H   UNL     1      43.858   7.038  11.908  0.00  0.00    +0.000 HD
ATOM     17  H   UNL     1      42.577   7.922  11.426  0.00  0.00    +0.000 HD
ENDBRANCH  14  15
ENDBRANCH  13  14
ENDBRANCH  12  13
ENDBRANCH   1  12
BRANCH   1  18
ATOM     18  C   UNL     1      44.701   4.305   9.696  0.00  0.00    +0.000 C 
BRANCH  18  19
ATOM     19  C   UNL     1      45.459   3.500   8.660  0.00  0.00    +0.000 A 
ATOM     20  C   UNL     1      45.664   2.133   8.819  0.00  0.00    +0.000 A 
ATOM     21  C   UNL     1      46.425   1.444   7.875  0.00  0.00    +0.000 A 
ATOM     22  C   UNL     1      46.955   2.131   6.794  0.00  0.00    +0.000 A 
ATOM     23  C   UNL     1      46.702   3.485   6.702  0.00  0.00    +0.000 A 
ATOM     24  N   UNL     1      45.983   4.180   7.610  0.00  0.00    +0.000 NA
ENDBRANCH  18  19
ENDBRANCH   1  18
TORSDOF 8
ENDMDL
MODEL 3
REMARK VINA RESULT:    -6.795      1.952      2.449
REMARK INTER + INTRA:         -10.719
REMARK INTER:                  -9.791
REMARK INTRA:                  -0.928
REMARK UNBOUND:                -0.945
REMARK  Name = 
REMARK  8 active torsions:
REMARK  status: ('A' for Active; 'I' for Inactive)
REMARK    1  A    between atoms: N_1  and  C_2
REMARK    2  A    between atoms: C_2  and  C_3
REMARK    3  A    between atoms: C_3  and  C_4
REMARK    4  A    between atoms: C_4  and  C_5
REMARK    5  A    between atoms: C_5  and  C_6
REMARK    6  A    between atoms: C_5  and  C_13
REMARK    7  A    between atoms: C_6  and  C_7
REMARK    8  A    between atoms: C_17  and  C_18
REMARK                            x       y       z     vdW  Elec       q    Type
REMARK                         _______ _______ _______ _____ _____    ______ ____
ROOT
ATOM      1  C   UNL     1      44.940   4.697  10.385  0.00  0.00    +0.000 C 
ENDROOT
BRANCH   1   2
ATOM      2  C   UNL     1      45.437   5.944  11.140  0.00  0.00    +0.000 A 
ATOM      3  C   UNL     1      44.740   7.157  11.111  0.00  0.00    +0.000 A 
ATOM      4  C   UNL     1      45.191   8.235  11.858  0.00  0.00    +0.000 A 
ATOM      5  N   UNL     1      46.316   8.223  12.597  0.00  0.00    +0.000 NA
ATOM      6  C   UNL     1      47.041   7.076  12.591  0.00  0.00    +0.000 A 
ATOM      7  C   UNL     1      46.638   5.944  11.867  0.00  0.00    +0.000 A 
BRANCH   6   8
ATOM      8  C   UNL     1      48.327   6.988  13.403  0.00  0.00    +0.000 C 
ATOM      9  F   UNL     1      48.732   8.164  13.959  0.00  0.00    +0.000 F 
ATOM     10  F   UNL     1      48.229   6.102  14.440  0.00  0.00    +0.000 F 
ATOM     11  F   UNL     1      49.384   6.547  12.656  0.00  0.00    +0.000 F 
ENDBRANCH   6   8
ENDBRANCH   1   2
BRANCH   1  12
ATOM     12  C   UNL     1      43.489   4.300  10.784  0.00  0.00    +0.000 C 
BRANCH  12  13
ATOM     13  C   UNL     1      43.352   3.305  11.941  0.00  0.00    +0.000 C 
BRANCH  13  14
ATOM     14  C   UNL     1      43.430   4.045  13.281  0.00  0.00    +0.000 C 
BRANCH  14  15
ATOM     15  N   UNL     1      42.631   5.261  13.240  0.00  0.00    +0.000 NA
ATOM     16  H   UNL     1      42.710   5.743  14.135  0.00  0.00    +0.000 HD
ATOM     17  H   UNL     1      41.644   5.025  13.133  0.00  0.00    +0.000 HD
ENDBRANCH  14  15
ENDBRANCH  13  14
ENDBRANCH  12  13
ENDBRANCH   1  12
BRANCH   1  18
ATOM     18  C   UNL     1      45.129   4.737   8.837  0.00  0.00    +0.000 C 
BRANCH  18  19
ATOM     19  C   UNL     1      45.859   3.569   8.203  0.00  0.00    +0.000 A 
ATOM     20  C   UNL     1      45.614   2.261   8.609  0.00  0.00    +0.000 A 
ATOM     21  C   UNL     1      46.357   1.224   8.045  0.00  0.00    +0.000 A 
ATOM     22  C   UNL     1      47.316   1.513   7.088  0.00  0.00    +0.000 A 
ATOM     23  C   UNL     1      47.496   2.835   6.733  0.00  0.00    +0.000 A 
ATOM     24  N   UNL     1      46.803   3.861   7.274  0.00  0.00    +0.000 NA
ENDBRANCH  18  19
ENDBRANCH   1  18
TORSDOF 8
ENDMDL
MODEL 4
REMARK VINA RESULT:    -6.490      3.612      4.209
REMARK INTER + INTRA:         -10.280
REMARK INTER:                  -9.353
REMARK INTRA:                  -0.927
REMARK UNBOUND:                -0.945
REMARK  Name = 
REMARK  8 active torsions:
REMARK  status: ('A' for Active; 'I' for Inactive)
REMARK    1  A    between atoms: N_1  and  C_2
REMARK    2  A    between atoms: C_2  and  C_3
REMARK    3  A    between atoms: C_3  and  C_4
REMARK    4  A    between atoms: C_4  and  C_5
REMARK    5  A    between atoms: C_5  and  C_6
REMARK    6  A    between atoms: C_5  and  C_13
REMARK    7  A    between atoms: C_6  and  C_7
REMARK    8  A    between atoms: C_17  and  C_18
REMARK                            x       y       z     vdW  Elec       q    Type
REMARK                         _______ _______ _______ _____ _____    ______ ____
ROOT
ATOM      1  C   UNL     1      45.572   4.939  11.297  0.00  0.00    +0.000 C 
ENDROOT
BRANCH   1   2
ATOM      2  C   UNL     1      45.709   6.399  11.768  0.00  0.00    +0.000 A 
ATOM      3  C   UNL     1      46.677   6.790  12.700  0.00  0.00    +0.000 A 
ATOM      4  C   UNL     1      46.807   8.128  13.046  0.00  0.00    +0.000 A 
ATOM      5  N   UNL     1      46.013   9.109  12.578  0.00  0.00    +0.000 NA
ATOM      6  C   UNL     1      45.028   8.743  11.719  0.00  0.00    +0.000 A 
ATOM      7  C   UNL     1      44.846   7.411  11.317  0.00  0.00    +0.000 A 
BRANCH   6   8
ATOM      8  C   UNL     1      44.090   9.798  11.148  0.00  0.00    +0.000 C 
ATOM      9  F   UNL     1      42.961   9.302  10.566  0.00  0.00    +0.000 F 
ATOM     10  F   UNL     1      43.659  10.682  12.097  0.00  0.00    +0.000 F 
ATOM     11  F   UNL     1      44.693  10.567  10.192  0.00  0.00    +0.000 F 
ENDBRANCH   6   8
ENDBRANCH   1   2
BRANCH   1  12
ATOM     12  C   UNL     1      45.021   4.005  12.412  0.00  0.00    +0.000 C 
BRANCH  12  13
ATOM     13  C   UNL     1      43.510   3.749  12.398  0.00  0.00    +0.000 C 
BRANCH  13  14
ATOM     14  C   UNL     1      42.770   4.949  13.002  0.00  0.00    +0.000 C 
BRANCH  14  15
ATOM     15  N   UNL     1      41.926   5.584  12.000  0.00  0.00    +0.000 NA
ATOM     16  H   UNL     1      40.951   5.502  12.285  0.00  0.00    +0.000 HD
ATOM     17  H   UNL     1      42.004   5.086  11.113  0.00  0.00    +0.000 HD
ENDBRANCH  14  15
ENDBRANCH  13  14
ENDBRANCH  12  13
ENDBRANCH   1  12
BRANCH   1  18
ATOM     18  C   UNL     1      44.815   4.744   9.946  0.00  0.00    +0.000 C 
BRANCH  18  19
ATOM     19  C   UNL     1      45.450   3.818   8.929  0.00  0.00    +0.000 A 
ATOM     20  C   UNL     1      45.436   2.437   9.106  0.00  0.00    +0.000 A 
ATOM     21  C   UNL     1      46.090   1.627   8.179  0.00  0.00    +0.000 A 
ATOM     22  C   UNL     1      46.734   2.208   7.098  0.00  0.00    +0.000 A 
ATOM     23  C   UNL     1      46.698   3.584   6.988  0.00  0.00    +0.000 A 
ATOM     24  N   UNL     1      46.086   4.394   7.879  0.00  0.00    +0.000 NA
ENDBRANCH  18  19
ENDBRANCH   1  18
TORSDOF 8
ENDMDL
MODEL 5
REMARK VINA RESULT:    -6.489      3.892      4.958
REMARK INTER + INTRA:         -10.279
REMARK INTER:                  -9.406
REMARK INTRA:                  -0.873
REMARK UNBOUND:                -0.945
REMARK  Name = 
REMARK  8 active torsions:
REMARK  status: ('A' for Active; 'I' for Inactive)
REMARK    1  A    between atoms: N_1  and  C_2
REMARK    2  A    between atoms: C_2  and  C_3
REMARK    3  A    between atoms: C_3  and  C_4
REMARK    4  A    between atoms: C_4  and  C_5
REMARK    5  A    between atoms: C_5  and  C_6
REMARK    6  A    between atoms: C_5  and  C_13
REMARK    7  A    between atoms: C_6  and  C_7
REMARK    8  A    between atoms: C_17  and  C_18
REMARK                            x       y       z     vdW  Elec       q    Type
REMARK                         _______ _______ _______ _____ _____    ______ ____
ROOT
ATOM      1  C   UNL     1      45.382   5.253  11.225  0.00  0.00    +0.000 C 
ENDROOT
BRANCH   1   2
ATOM      2  C   UNL     1      45.409   6.762  11.527  0.00  0.00    +0.000 A 
ATOM      3  C   UNL     1      46.432   7.351  12.280  0.00  0.00    +0.000 A 
ATOM      4  C   UNL     1      46.451   8.725  12.472  0.00  0.00    +0.000 A 
ATOM      5  N   UNL     1      45.500   9.563  12.019  0.00  0.00    +0.000 NA
ATOM      6  C   UNL     1      44.465   9.006  11.338  0.00  0.00    +0.000 A 
ATOM      7  C   UNL     1      44.389   7.626  11.098  0.00  0.00    +0.000 A 
BRANCH   6   8
ATOM      8  C   UNL     1      43.352   9.891  10.796  0.00  0.00    +0.000 C 
ATOM      9  F   UNL     1      43.148  11.044  11.494  0.00  0.00    +0.000 F 
ATOM     10  F   UNL     1      43.574  10.275   9.503  0.00  0.00    +0.000 F 
ATOM     11  F   UNL     1      42.143   9.252  10.775  0.00  0.00    +0.000 F 
ENDBRANCH   6   8
ENDBRANCH   1   2
BRANCH   1  12
ATOM     12  C   UNL     1      44.928   4.409  12.451  0.00  0.00    +0.000 C 
BRANCH  12  13
ATOM     13  C   UNL     1      45.958   3.424  13.015  0.00  0.00    +0.000 C 
BRANCH  13  14
ATOM     14  C   UNL     1      46.807   4.112  14.091  0.00  0.00    +0.000 C 
BRANCH  14  15
ATOM     15  N   UNL     1      47.663   3.144  14.761  0.00  0.00    +0.000 NA
ATOM     16  H   UNL     1      47.443   3.138  15.757  0.00  0.00    +0.000 HD
ATOM     17  H   UNL     1      48.639   3.433  14.690  0.00  0.00    +0.000 HD
ENDBRANCH  14  15
ENDBRANCH  13  14
ENDBRANCH  12  13
ENDBRANCH   1  12
BRANCH   1  18
ATOM     18  C   UNL     1      44.620   4.848   9.925  0.00  0.00    +0.000 C 
BRANCH  18  19
ATOM     19  C   UNL     1      45.328   3.897   8.980  0.00  0.00    +0.000 A 
ATOM     20  C   UNL     1      45.302   2.522   9.191  0.00  0.00    +0.000 A 
ATOM     21  C   UNL     1      46.023   1.690   8.334  0.00  0.00    +0.000 A 
ATOM     22  C   UNL     1      46.743   2.245   7.289  0.00  0.00    +0.000 A 
ATOM     23  C   UNL     1      46.714   3.617   7.142  0.00  0.00    +0.000 A 
ATOM     24  N   UNL     1      46.038   4.448   7.965  0.00  0.00    +0.000 NA
ENDBRANCH  18  19
ENDBRANCH   1  18
TORSDOF 8
ENDMDL
MODEL 6
REMARK VINA RESULT:    -6.304      3.073      3.890
REMARK INTER + INTRA:         -10.013
REMARK INTER:                  -8.878
REMARK INTRA:                  -1.135
REMARK UNBOUND:                -0.945
REMARK  Name = 
REMARK  8 active torsions:
REMARK  status: ('A' for Active; 'I' for Inactive)
REMARK    1  A    between atoms: N_1  and  C_2
REMARK    2  A    between atoms: C_2  and  C_3
REMARK    3  A    between atoms: C_3  and  C_4
REMARK    4  A    between atoms: C_4  and  C_5
REMARK    5  A    between atoms: C_5  and  C_6
REMARK    6  A    between atoms: C_5  and  C_13
REMARK    7  A    between atoms: C_6  and  C_7
REMARK    8  A    between atoms: C_17  and  C_18
REMARK                            x       y       z     vdW  Elec       q    Type
REMARK                         _______ _______ _______ _____ _____    ______ ____
ROOT
ATOM      1  C   UNL     1      45.584   5.497  11.699  0.00  0.00    +0.000 C 
ENDROOT
BRANCH   1   2
ATOM      2  C   UNL     1      46.231   6.882  11.879  0.00  0.00    +0.000 A 
ATOM      3  C   UNL     1      45.481   8.015  12.215  0.00  0.00    +0.000 A 
ATOM      4  C   UNL     1      46.116   9.230  12.430  0.00  0.00    +0.000 A 
ATOM      5  N   UNL     1      47.440   9.425  12.287  0.00  0.00    +0.000 NA
ATOM      6  C   UNL     1      48.180   8.354  11.901  0.00  0.00    +0.000 A 
ATOM      7  C   UNL     1      47.605   7.094  11.677  0.00  0.00    +0.000 A 
BRANCH   6   8
ATOM      8  C   UNL     1      49.684   8.498  11.717  0.00  0.00    +0.000 C 
ATOM      9  F   UNL     1      50.275   7.479  11.032  0.00  0.00    +0.000 F 
ATOM     10  F   UNL     1      50.020   9.640  11.045  0.00  0.00    +0.000 F 
ATOM     11  F   UNL     1      50.348   8.578  12.909  0.00  0.00    +0.000 F 
ENDBRANCH   6   8
ENDBRANCH   1   2
BRANCH   1  12
ATOM     12  C   UNL     1      44.740   5.070  12.935  0.00  0.00    +0.000 C 
BRANCH  12  13
ATOM     13  C   UNL     1      43.405   4.378  12.639  0.00  0.00    +0.000 C 
BRANCH  13  14
ATOM     14  C   UNL     1      43.570   2.857  12.739  0.00  0.00    +0.000 C 
BRANCH  14  15
ATOM     15  N   UNL     1      42.999   2.204  11.570  0.00  0.00    +0.000 NA
ATOM     16  H   UNL     1      43.729   1.675  11.094  0.00  0.00    +0.000 HD
ATOM     17  H   UNL     1      42.677   2.905  10.902  0.00  0.00    +0.000 HD
ENDBRANCH  14  15
ENDBRANCH  13  14
ENDBRANCH  12  13
ENDBRANCH   1  12
BRANCH   1  18
ATOM     18  C   UNL     1      44.804   5.296  10.363  0.00  0.00    +0.000 C 
BRANCH  18  19
ATOM     19  C   UNL     1      45.375   4.297   9.377  0.00  0.00    +0.000 A 
ATOM     20  C   UNL     1      46.093   4.717   8.261  0.00  0.00    +0.000 A 
ATOM     21  C   UNL     1      46.542   3.767   7.345  0.00  0.00    +0.000 A 
ATOM     22  C   UNL     1      46.274   2.426   7.564  0.00  0.00    +0.000 A 
ATOM     23  C   UNL     1      45.561   2.087   8.697  0.00  0.00    +0.000 A 
ATOM     24  N   UNL     1      45.100   2.987   9.593  0.00  0.00    +0.000 NA
ENDBRANCH  18  19
ENDBRANCH   1  18
TORSDOF 8
ENDMDL
MODEL 7
REMARK VINA RESULT:    -6.272      3.401      6.242
REMARK INTER + INTRA:          -9.968
REMARK INTER:                  -9.029
REMARK INTRA:                  -0.939
REMARK UNBOUND:                -0.945
REMARK  Name = 
REMARK  8 active torsions:
REMARK  status: ('A' for Active; 'I' for Inactive)
REMARK    1  A    between atoms: N_1  and  C_2
REMARK    2  A    between atoms: C_2  and  C_3
REMARK    3  A    between atoms: C_3  and  C_4
REMARK    4  A    between atoms: C_4  and  C_5
REMARK    5  A    between atoms: C_5  and  C_6
REMARK    6  A    between atoms: C_5  and  C_13
REMARK    7  A    between atoms: C_6  and  C_7
REMARK    8  A    between atoms: C_17  and  C_18
REMARK                            x       y       z     vdW  Elec       q    Type
REMARK                         _______ _______ _______ _____ _____    ______ ____
ROOT
ATOM      1  C   UNL     1      46.139   6.786  11.879  0.00  0.00    +0.000 C 
ENDROOT
BRANCH   1   2
ATOM      2  C   UNL     1      45.148   5.663  11.519  0.00  0.00    +0.000 A 
ATOM      3  C   UNL     1      43.971   5.450  12.246  0.00  0.00    +0.000 A 
ATOM      4  C   UNL     1      43.076   4.468  11.846  0.00  0.00    +0.000 A 
ATOM      5  N   UNL     1      43.281   3.639  10.805  0.00  0.00    +0.000 NA
ATOM      6  C   UNL     1      44.446   3.787  10.124  0.00  0.00    +0.000 A 
ATOM      7  C   UNL     1      45.391   4.766  10.466  0.00  0.00    +0.000 A 
BRANCH   6   8
ATOM      8  C   UNL     1      44.749   2.884   8.936  0.00  0.00    +0.000 C 
ATOM      9  F   UNL     1      44.113   1.678   8.959  0.00  0.00    +0.000 F 
ATOM     10  F   UNL     1      44.408   3.459   7.743  0.00  0.00    +0.000 F 
ATOM     11  F   UNL     1      46.081   2.598   8.827  0.00  0.00    +0.000 F 
ENDBRANCH   6   8
ENDBRANCH   1   2
BRANCH   1  12
ATOM     12  C   UNL     1      45.537   7.809  12.885  0.00  0.00    +0.000 C 
BRANCH  12  13
ATOM     13  C   UNL     1      45.579   9.282  12.460  0.00  0.00    +0.000 C 
BRANCH  13  14
ATOM     14  C   UNL     1      44.429   9.581  11.491  0.00  0.00    +0.000 C 
BRANCH  14  15
ATOM     15  N   UNL     1      43.500  10.534  12.081  0.00  0.00    +0.000 NA
ATOM     16  H   UNL     1      44.016  11.362  12.378  0.00  0.00    +0.000 HD
ATOM     17  H   UNL     1      43.088  10.140  12.927  0.00  0.00    +0.000 HD
ENDBRANCH  14  15
ENDBRANCH  13  14
ENDBRANCH  12  13
ENDBRANCH   1  12
BRANCH   1  18
ATOM     18  C   UNL     1      47.559   6.306  12.314  0.00  0.00    +0.000 C 
BRANCH  18  19
ATOM     19  C   UNL     1      47.708   5.799  13.735  0.00  0.00    +0.000 A 
ATOM     20  C   UNL     1      47.010   4.680  14.177  0.00  0.00    +0.000 A 
ATOM     21  C   UNL     1      47.127   4.288  15.510  0.00  0.00    +0.000 A 
ATOM     22  C   UNL     1      47.939   5.015  16.367  0.00  0.00    +0.000 A 
ATOM     23  C   UNL     1      48.604   6.110  15.852  0.00  0.00    +0.000 A 
ATOM     24  N   UNL     1      48.497   6.521  14.569  0.00  0.00    +0.000 NA
ENDBRANCH  18  19
ENDBRANCH   1  18
TORSDOF 8
ENDMDL
MODEL 8
REMARK VINA RESULT:    -6.074      1.869      2.438
REMARK INTER + INTRA:          -9.683
REMARK INTER:                  -8.883
REMARK INTRA:                  -0.800
REMARK UNBOUND:                -0.945
REMARK  Name = 
REMARK  8 active torsions:
REMARK  status: ('A' for Active; 'I' for Inactive)
REMARK    1  A    between atoms: N_1  and  C_2
REMARK    2  A    between atoms: C_2  and  C_3
REMARK    3  A    between atoms: C_3  and  C_4
REMARK    4  A    between atoms: C_4  and  C_5
REMARK    5  A    between atoms: C_5  and  C_6
REMARK    6  A    between atoms: C_5  and  C_13
REMARK    7  A    between atoms: C_6  and  C_7
REMARK    8  A    between atoms: C_17  and  C_18
REMARK                            x       y       z     vdW  Elec       q    Type
REMARK                         _______ _______ _______ _____ _____    ______ ____
ROOT
ATOM      1  C   UNL     1      45.731   5.519  11.631  0.00  0.00    +0.000 C 
ENDROOT
BRANCH   1   2
ATOM      2  C   UNL     1      46.939   6.265  12.228  0.00  0.00    +0.000 A 
ATOM      3  C   UNL     1      47.714   7.150  11.469  0.00  0.00    +0.000 A 
ATOM      4  C   UNL     1      48.754   7.849  12.066  0.00  0.00    +0.000 A 
ATOM      5  N   UNL     1      49.123   7.701  13.352  0.00  0.00    +0.000 NA
ATOM      6  C   UNL     1      48.423   6.802  14.091  0.00  0.00    +0.000 A 
ATOM      7  C   UNL     1      47.353   6.069  13.555  0.00  0.00    +0.000 A 
BRANCH   6   8
ATOM      8  C   UNL     1      48.783   6.579  15.553  0.00  0.00    +0.000 C 
ATOM      9  F   UNL     1      50.110   6.371  15.789  0.00  0.00    +0.000 F 
ATOM     10  F   UNL     1      48.428   7.635  16.345  0.00  0.00    +0.000 F 
ATOM     11  F   UNL     1      48.138   5.499  16.089  0.00  0.00    +0.000 F 
ENDBRANCH   6   8
ENDBRANCH   1   2
BRANCH   1  12
ATOM     12  C   UNL     1      44.443   5.694  12.486  0.00  0.00    +0.000 C 
BRANCH  12  13
ATOM     13  C   UNL     1      43.920   4.437  13.190  0.00  0.00    +0.000 C 
BRANCH  13  14
ATOM     14  C   UNL     1      43.249   3.507  12.172  0.00  0.00    +0.000 C 
BRANCH  14  15
ATOM     15  N   UNL     1      43.559   2.117  12.470  0.00  0.00    +0.000 NA
ATOM     16  H   UNL     1      42.772   1.698  12.965  0.00  0.00    +0.000 HD
ATOM     17  H   UNL     1      44.353   2.066  13.108  0.00  0.00    +0.000 HD
ENDBRANCH  14  15
ENDBRANCH  13  14
ENDBRANCH  12  13
ENDBRANCH   1  12
BRANCH   1  18
ATOM     18  C   UNL     1      45.467   5.785  10.117  0.00  0.00    +0.000 C 
BRANCH  18  19
ATOM     19  C   UNL     1      45.668   4.621   9.168  0.00  0.00    +0.000 A 
ATOM     20  C   UNL     1      45.220   3.344   9.491  0.00  0.00    +0.000 A 
ATOM     21  C   UNL     1      45.486   2.289   8.618  0.00  0.00    +0.000 A 
ATOM     22  C   UNL     1      46.182   2.532   7.445  0.00  0.00    +0.000 A 
ATOM     23  C   UNL     1      46.588   3.828   7.192  0.00  0.00    +0.000 A 
ATOM     24  N   UNL     1      46.358   4.865   8.027  0.00  0.00    +0.000 NA
ENDBRANCH  18  19
ENDBRANCH   1  18
TORSDOF 8
ENDMDL
MODEL 9
REMARK VINA RESULT:    -6.039      3.698      6.310
REMARK INTER + INTRA:          -9.632
REMARK INTER:                  -8.757
REMARK INTRA:                  -0.875
REMARK UNBOUND:                -0.945
REMARK  Name = 
REMARK  8 active torsions:
REMARK  status: ('A' for Active; 'I' for Inactive)
REMARK    1  A    between atoms: N_1  and  C_2
REMARK    2  A    between atoms: C_2  and  C_3
REMARK    3  A    between atoms: C_3  and  C_4
REMARK    4  A    between atoms: C_4  and  C_5
REMARK    5  A    between atoms: C_5  and  C_6
REMARK    6  A    between atoms: C_5  and  C_13
REMARK    7  A    between atoms: C_6  and  C_7
REMARK    8  A    between atoms: C_17  and  C_18
REMARK                            x       y       z     vdW  Elec       q    Type
REMARK                         _______ _______ _______ _____ _____    ______ ____
ROOT
ATOM      1  C   UNL     1      46.144   6.573  12.097  0.00  0.00    +0.000 C 
ENDROOT
BRANCH   1   2
ATOM      2  C   UNL     1      45.151   5.475  11.671  0.00  0.00    +0.000 A 
ATOM      3  C   UNL     1      43.964   5.235  12.371  0.00  0.00    +0.000 A 
ATOM      4  C   UNL     1      43.069   4.279  11.913  0.00  0.00    +0.000 A 
ATOM      5  N   UNL     1      43.283   3.499  10.837  0.00  0.00    +0.000 NA
ATOM      6  C   UNL     1      44.457   3.672  10.178  0.00  0.00    +0.000 A 
ATOM      7  C   UNL     1      45.402   4.628  10.580  0.00  0.00    +0.000 A 
BRANCH   6   8
ATOM      8  C   UNL     1      44.770   2.826   8.952  0.00  0.00    +0.000 C 
ATOM      9  F   UNL     1      46.098   2.630   8.718  0.00  0.00    +0.000 F 
ATOM     10  F   UNL     1      44.219   1.577   9.026  0.00  0.00    +0.000 F 
ATOM     11  F   UNL     1      44.268   3.370   7.803  0.00  0.00    +0.000 F 
ENDBRANCH   6   8
ENDBRANCH   1   2
BRANCH   1  12
ATOM     12  C   UNL     1      45.440   7.771  12.796  0.00  0.00    +0.000 C 
BRANCH  12  13
ATOM     13  C   UNL     1      45.706   9.157  12.197  0.00  0.00    +0.000 C 
BRANCH  13  14
ATOM     14  C   UNL     1      44.496   9.614  11.374  0.00  0.00    +0.000 C 
BRANCH  14  15
ATOM     15  N   UNL     1      43.583  10.392  12.198  0.00  0.00    +0.000 NA
ATOM     16  H   UNL     1      43.850  11.375  12.154  0.00  0.00    +0.000 HD
ATOM     17  H   UNL     1      43.678  10.118  13.176  0.00  0.00    +0.000 HD
ENDBRANCH  14  15
ENDBRANCH  13  14
ENDBRANCH  12  13
ENDBRANCH   1  12
BRANCH   1  18
ATOM     18  C   UNL     1      47.383   6.073  12.904  0.00  0.00    +0.000 C 
BRANCH  18  19
ATOM     19  C   UNL     1      48.613   6.957  12.893  0.00  0.00    +0.000 A 
ATOM     20  C   UNL     1      49.027   7.601  11.731  0.00  0.00    +0.000 A 
ATOM     21  C   UNL     1      50.202   8.351  11.751  0.00  0.00    +0.000 A 
ATOM     22  C   UNL     1      50.931   8.448  12.926  0.00  0.00    +0.000 A 
ATOM     23  C   UNL     1      50.452   7.786  14.039  0.00  0.00    +0.000 A 
ATOM     24  N   UNL     1      49.326   7.039  14.044  0.00  0.00    +0.000 NA
ENDBRANCH  18  19
ENDBRANCH   1  18
TORSDOF 8
ENDMDL
