MODEL 1
REMARK VINA RESULT:    -8.158      0.000      0.000
REMARK INTER + INTRA:         -10.371
REMARK INTER:                 -10.066
REMARK INTRA:                  -0.305
REMARK UNBOUND:                -0.305
REMARK  Name = 
REMARK  4 active torsions:
REMARK  status: ('A' for Active; 'I' for Inactive)
REMARK    1  A    between atoms: C_2  and  C_4
REMARK    2  A    between atoms: N_8  and  C_9
REMARK    3  A    between atoms: C_9  and  C_10
REMARK    4  A    between atoms: C_10  and  C_11
REMARK                            x       y       z     vdW  Elec       q    Type
REMARK                         _______ _______ _______ _____ _____    ______ ____
ROOT
ATOM      1  C   UNL     1      46.382   2.317   7.777  0.00  0.00    +0.000 A 
ATOM      2  C   UNL     1      46.275   3.674   7.492  0.00  0.00    +0.000 A 
ATOM      3  C   UNL     1      45.389   4.453   8.236  0.00  0.00    +0.000 A 
ATOM      4  C   UNL     1      44.640   3.878   9.266  0.00  0.00    +0.000 A 
ATOM      5  N   UNL     1      43.829   4.739  10.018  0.00  0.00    +0.000 N 
ATOM      6  N   UNL     1      44.722   2.560   9.535  0.00  0.00    +0.000 NA
ATOM      7  C   UNL     1      45.566   1.806   8.777  0.00  0.00    +0.000 A 
ATOM      8  H   UNL     1      43.197   5.218   9.383  0.00  0.00    +0.000 HD
ENDROOT
BRANCH   1  10
ATOM      9  N   UNL     1      48.460   1.976   6.563  0.00  0.00    +0.000 N 
ATOM     10  C   UNL     1      47.315   1.418   7.067  0.00  0.00    +0.000 C 
ATOM     11  O   UNL     1      47.103   0.217   6.970  0.00  0.00    +0.000 OA
ATOM     12  H   UNL     1      49.142   1.333   6.180  0.00  0.00    +0.000 HD
ATOM     13  H   UNL     1      48.783   2.891   6.838  0.00  0.00    +0.000 HD
ENDBRANCH   1  10
BRANCH   5  14
ATOM     14  C   UNL     1      43.167   4.179  11.195  0.00  0.00    +0.000 C 
BRANCH  14  15
ATOM     15  C   UNL     1      43.123   5.226  12.329  0.00  0.00    +0.000 C 
BRANCH  15  16
ATOM     16  C   UNL     1      44.479   5.412  13.034  0.00  0.00    +0.000 C 
ATOM     17  C   UNL     1      45.418   4.211  12.857  0.00  0.00    +0.000 C 
ATOM     18  C   UNL     1      46.641   4.422  13.741  0.00  0.00    +0.000 C 
ATOM     19  C   UNL     1      47.324   5.756  13.440  0.00  0.00    +0.000 C 
ATOM     20  N   UNL     1      46.398   6.893  13.432  0.00  0.00    +0.000 NA
ATOM     21  C   UNL     1      45.231   6.670  12.571  0.00  0.00    +0.000 C 
ATOM     22  H   UNL     1      46.896   7.728  13.124  0.00  0.00    +0.000 HD
ENDBRANCH  15  16
ENDBRANCH  14  15
ENDBRANCH   5  14
TORSDOF 4
ENDMDL
MODEL 2
REMARK VINA RESULT:    -7.497      1.271      1.902
REMARK INTER + INTRA:          -9.554
REMARK INTER:                  -9.146
REMARK INTRA:                  -0.408
REMARK UNBOUND:                -0.305
REMARK  Name = 
REMARK  4 active torsions:
REMARK  status: ('A' for Active; 'I' for Inactive)
REMARK    1  A    between atoms: C_2  and  C_4
REMARK    2  A    between atoms: N_8  and  C_9
REMARK    3  A    between atoms: C_9  and  C_10
REMARK    4  A    between atoms: C_10  and  C_11
REMARK                            x       y       z     vdW  Elec       q    Type
REMARK                         _______ _______ _______ _____ _____    ______ ____
ROOT
ATOM      1  C   UNL     1      46.373   2.649   7.587  0.00  0.00    +0.000 A 
ATOM      2  C   UNL     1      45.777   1.670   8.375  0.00  0.00    +0.000 A 
ATOM      3  C   UNL     1      44.928   2.059   9.410  0.00  0.00    +0.000 A 
ATOM      4  C   UNL     1      44.666   3.413   9.634  0.00  0.00    +0.000 A 
ATOM      5  N   UNL     1      43.745   3.723  10.645  0.00  0.00    +0.000 N 
ATOM      6  N   UNL     1      45.256   4.370   8.890  0.00  0.00    +0.000 NA
ATOM      7  C   UNL     1      46.109   3.974   7.904  0.00  0.00    +0.000 A 
ATOM      8  H   UNL     1      44.070   3.306  11.511  0.00  0.00    +0.000 HD
ENDROOT
BRANCH   1  10
ATOM      9  N   UNL     1      47.222   3.182   5.373  0.00  0.00    +0.000 N 
ATOM     10  C   UNL     1      47.259   2.334   6.447  0.00  0.00    +0.000 C 
ATOM     11  O   UNL     1      48.030   1.384   6.475  0.00  0.00    +0.000 OA
ATOM     12  H   UNL     1      47.912   3.021   4.649  0.00  0.00    +0.000 HD
ATOM     13  H   UNL     1      46.797   4.095   5.418  0.00  0.00    +0.000 HD
ENDBRANCH   1  10
BRANCH   5  14
ATOM     14  C   UNL     1      43.343   5.121  10.779  0.00  0.00    +0.000 C 
BRANCH  14  15
ATOM     15  C   UNL     1      43.844   5.691  12.124  0.00  0.00    +0.000 C 
BRANCH  15  16
ATOM     16  C   UNL     1      45.380   5.763  12.216  0.00  0.00    +0.000 C 
ATOM     17  C   UNL     1      45.927   7.184  12.030  0.00  0.00    +0.000 C 
ATOM     18  C   UNL     1      47.448   7.108  11.955  0.00  0.00    +0.000 C 
ATOM     19  C   UNL     1      48.032   6.405  13.179  0.00  0.00    +0.000 C 
ATOM     20  N   UNL     1      47.390   5.120  13.472  0.00  0.00    +0.000 NA
ATOM     21  C   UNL     1      45.928   5.218  13.545  0.00  0.00    +0.000 C 
ATOM     22  H   UNL     1      47.753   4.757  14.353  0.00  0.00    +0.000 HD
ENDBRANCH  15  16
ENDBRANCH  14  15
ENDBRANCH   5  14
TORSDOF 4
ENDMDL
MODEL 3
REMARK VINA RESULT:    -7.190      2.993      6.514
REMARK INTER + INTRA:          -9.175
REMARK INTER:                  -8.803
REMARK INTRA:                  -0.372
REMARK UNBOUND:                -0.305
REMARK  Name = 
REMARK  4 active torsions:
REMARK  status: ('A' for Active; 'I' for Inactive)
REMARK    1  A    between atoms: C_2  and  C_4
REMARK    2  A    between atoms: N_8  and  C_9
REMARK    3  A    between atoms: C_9  and  C_10
REMARK    4  A    between atoms: C_10  and  C_11
REMARK                            x       y       z     vdW  Elec       q    Type
REMARK                         _______ _______ _______ _____ _____    ______ ____
ROOT
ATOM      1  C   UNL     1      46.902   4.739  14.252  0.00  0.00    +0.000 A 
ATOM      2  C   UNL     1      46.854   5.979  13.622  0.00  0.00    +0.000 A 
ATOM      3  C   UNL     1      46.259   6.075  12.364  0.00  0.00    +0.000 A 
ATOM      4  C   UNL     1      45.703   4.945  11.760  0.00  0.00    +0.000 A 
ATOM      5  N   UNL     1      45.057   5.136  10.530  0.00  0.00    +0.000 N 
ATOM      6  N   UNL     1      45.763   3.736  12.353  0.00  0.00    +0.000 NA
ATOM      7  C   UNL     1      46.377   3.652  13.567  0.00  0.00    +0.000 A 
ATOM      8  H   UNL     1      45.718   5.558   9.886  0.00  0.00    +0.000 HD
ENDROOT
BRANCH   1  10
ATOM      9  N   UNL     1      46.897   3.597  16.397  0.00  0.00    +0.000 N 
ATOM     10  C   UNL     1      47.479   4.544  15.597  0.00  0.00    +0.000 C 
ATOM     11  O   UNL     1      48.465   5.165  15.971  0.00  0.00    +0.000 OA
ATOM     12  H   UNL     1      47.369   3.393  17.269  0.00  0.00    +0.000 HD
ATOM     13  H   UNL     1      46.258   2.904  16.038  0.00  0.00    +0.000 HD
ENDBRANCH   1  10
BRANCH   5  14
ATOM     14  C   UNL     1      44.335   3.996   9.969  0.00  0.00    +0.000 C 
BRANCH  14  15
ATOM     15  C   UNL     1      44.338   4.072   8.427  0.00  0.00    +0.000 C 
BRANCH  15  16
ATOM     16  C   UNL     1      45.207   2.984   7.769  0.00  0.00    +0.000 C 
ATOM     17  C   UNL     1      46.427   3.553   7.034  0.00  0.00    +0.000 C 
ATOM     18  C   UNL     1      47.103   2.418   6.273  0.00  0.00    +0.000 C 
ATOM     19  C   UNL     1      47.461   1.259   7.203  0.00  0.00    +0.000 C 
ATOM     20  N   UNL     1      46.342   0.823   8.044  0.00  0.00    +0.000 NA
ATOM     21  C   UNL     1      45.710   1.930   8.770  0.00  0.00    +0.000 C 
ATOM     22  H   UNL     1      46.674   0.124   8.707  0.00  0.00    +0.000 HD
ENDBRANCH  15  16
ENDBRANCH  14  15
ENDBRANCH   5  14
TORSDOF 4
ENDMDL
MODEL 4
REMARK VINA RESULT:    -7.147      3.010      6.596
REMARK INTER + INTRA:          -9.123
REMARK INTER:                  -8.769
REMARK INTRA:                  -0.355
REMARK UNBOUND:                -0.305
REMARK  Name = 
REMARK  4 active torsions:
REMARK  status: ('A' for Active; 'I' for Inactive)
REMARK    1  A    between atoms: C_2  and  C_4
REMARK    2  A    between atoms: N_8  and  C_9
REMARK    3  A    between atoms: C_9  and  C_10
REMARK    4  A    between atoms: C_10  and  C_11
REMARK                            x       y       z     vdW  Elec       q    Type
REMARK                         _______ _______ _______ _____ _____    ______ ____
ROOT
ATOM      1  C   UNL     1      45.656   7.473  12.255  0.00  0.00    +0.000 A 
ATOM      2  C   UNL     1      46.419   6.478  12.856  0.00  0.00    +0.000 A 
ATOM      3  C   UNL     1      46.167   5.145  12.531  0.00  0.00    +0.000 A 
ATOM      4  C   UNL     1      45.177   4.822  11.599  0.00  0.00    +0.000 A 
ATOM      5  N   UNL     1      45.034   3.467  11.269  0.00  0.00    +0.000 N 
ATOM      6  N   UNL     1      44.420   5.779  11.028  0.00  0.00    +0.000 NA
ATOM      7  C   UNL     1      44.655   7.074  11.381  0.00  0.00    +0.000 A 
ATOM      8  H   UNL     1      44.859   2.948  12.124  0.00  0.00    +0.000 HD
ENDROOT
BRANCH   1  10
ATOM      9  N   UNL     1      44.759   9.683  12.726  0.00  0.00    +0.000 N 
ATOM     10  C   UNL     1      45.871   8.913  12.509  0.00  0.00    +0.000 C 
ATOM     11  O   UNL     1      46.994   9.394  12.570  0.00  0.00    +0.000 OA
ATOM     12  H   UNL     1      44.925  10.641  13.010  0.00  0.00    +0.000 HD
ATOM     13  H   UNL     1      43.856   9.284  12.931  0.00  0.00    +0.000 HD
ENDBRANCH   1  10
BRANCH   5  14
ATOM     14  C   UNL     1      44.116   3.136  10.181  0.00  0.00    +0.000 C 
BRANCH  14  15
ATOM     15  C   UNL     1      44.673   1.956   9.356  0.00  0.00    +0.000 C 
BRANCH  15  16
ATOM     16  C   UNL     1      45.831   2.362   8.425  0.00  0.00    +0.000 C 
ATOM     17  C   UNL     1      46.482   1.165   7.719  0.00  0.00    +0.000 C 
ATOM     18  C   UNL     1      47.720   1.659   6.979  0.00  0.00    +0.000 C 
ATOM     19  C   UNL     1      47.379   2.798   6.019  0.00  0.00    +0.000 C 
ATOM     20  N   UNL     1      46.599   3.869   6.644  0.00  0.00    +0.000 NA
ATOM     21  C   UNL     1      45.410   3.373   7.346  0.00  0.00    +0.000 C 
ATOM     22  H   UNL     1      46.318   4.540   5.929  0.00  0.00    +0.000 HD
ENDBRANCH  15  16
ENDBRANCH  14  15
ENDBRANCH   5  14
TORSDOF 4
ENDMDL
MODEL 5
REMARK VINA RESULT:    -6.189      4.232      6.088
REMARK INTER + INTRA:          -7.941
REMARK INTER:                  -7.657
REMARK INTRA:                  -0.284
REMARK UNBOUND:                -0.305
REMARK  Name = 
REMARK  4 active torsions:
REMARK  status: ('A' for Active; 'I' for Inactive)
REMARK    1  A    between atoms: C_2  and  C_4
REMARK    2  A    between atoms: N_8  and  C_9
REMARK    3  A    between atoms: C_9  and  C_10
REMARK    4  A    between atoms: C_10  and  C_11
REMARK                            x       y       z     vdW  Elec       q    Type
REMARK                         _______ _______ _______ _____ _____    ______ ____
ROOT
ATOM      1  C   UNL     1      45.327   4.835  11.561  0.00  0.00    +0.000 A 
ATOM      2  C   UNL     1      45.876   6.003  12.079  0.00  0.00    +0.000 A 
ATOM      3  C   UNL     1      46.477   5.968  13.337  0.00  0.00    +0.000 A 
ATOM      4  C   UNL     1      46.544   4.770  14.052  0.00  0.00    +0.000 A 
ATOM      5  N   UNL     1      47.230   4.797  15.275  0.00  0.00    +0.000 N 
ATOM      6  N   UNL     1      45.997   3.637  13.568  0.00  0.00    +0.000 NA
ATOM      7  C   UNL     1      45.383   3.696  12.352  0.00  0.00    +0.000 A 
ATOM      8  H   UNL     1      46.802   5.505  15.864  0.00  0.00    +0.000 HD
ENDROOT
BRANCH   1  10
ATOM      9  N   UNL     1      45.472   5.122   9.152  0.00  0.00    +0.000 N 
ATOM     10  C   UNL     1      44.700   4.766  10.226  0.00  0.00    +0.000 C 
ATOM     11  O   UNL     1      43.555   4.363  10.073  0.00  0.00    +0.000 OA
ATOM     12  H   UNL     1      45.070   4.963   8.237  0.00  0.00    +0.000 HD
ATOM     13  H   UNL     1      46.475   5.214   9.213  0.00  0.00    +0.000 HD
ENDBRANCH   1  10
BRANCH   5  14
ATOM     14  C   UNL     1      47.444   3.520  15.951  0.00  0.00    +0.000 C 
BRANCH  14  15
ATOM     15  C   UNL     1      47.778   3.756  17.440  0.00  0.00    +0.000 C 
BRANCH  15  16
ATOM     16  C   UNL     1      49.155   3.199  17.848  0.00  0.00    +0.000 C 
ATOM     17  C   UNL     1      49.738   2.226  16.816  0.00  0.00    +0.000 C 
ATOM     18  C   UNL     1      50.999   1.602  17.402  0.00  0.00    +0.000 C 
ATOM     19  C   UNL     1      52.000   2.671  17.839  0.00  0.00    +0.000 C 
ATOM     20  N   UNL     1      51.407   3.710  18.685  0.00  0.00    +0.000 NA
ATOM     21  C   UNL     1      50.198   4.300  18.099  0.00  0.00    +0.000 C 
ATOM     22  H   UNL     1      52.097   4.441  18.852  0.00  0.00    +0.000 HD
ENDBRANCH  15  16
ENDBRANCH  14  15
ENDBRANCH   5  14
TORSDOF 4
ENDMDL
MODEL 6
REMARK VINA RESULT:    -6.047      4.763      8.161
REMARK INTER + INTRA:          -7.766
REMARK INTER:                  -7.547
REMARK INTRA:                  -0.218
REMARK UNBOUND:                -0.305
REMARK  Name = 
REMARK  4 active torsions:
REMARK  status: ('A' for Active; 'I' for Inactive)
REMARK    1  A    between atoms: C_2  and  C_4
REMARK    2  A    between atoms: N_8  and  C_9
REMARK    3  A    between atoms: C_9  and  C_10
REMARK    4  A    between atoms: C_10  and  C_11
REMARK                            x       y       z     vdW  Elec       q    Type
REMARK                         _______ _______ _______ _____ _____    ______ ____
ROOT
ATOM      1  C   UNL     1      48.553   4.114  18.068  0.00  0.00    +0.000 A 
ATOM      2  C   UNL     1      48.714   2.855  17.499  0.00  0.00    +0.000 A 
ATOM      3  C   UNL     1      48.186   2.614  16.230  0.00  0.00    +0.000 A 
ATOM      4  C   UNL     1      47.525   3.632  15.538  0.00  0.00    +0.000 A 
ATOM      5  N   UNL     1      47.088   3.336  14.239  0.00  0.00    +0.000 N 
ATOM      6  N   UNL     1      47.346   4.848  16.090  0.00  0.00    +0.000 NA
ATOM      7  C   UNL     1      47.838   5.057  17.343  0.00  0.00    +0.000 A 
ATOM      8  H   UNL     1      46.480   2.524  14.285  0.00  0.00    +0.000 HD
ENDROOT
BRANCH   1  10
ATOM      9  N   UNL     1      48.543   3.878  20.487  0.00  0.00    +0.000 N 
ATOM     10  C   UNL     1      49.106   4.474  19.390  0.00  0.00    +0.000 C 
ATOM     11  O   UNL     1      50.056   5.237  19.503  0.00  0.00    +0.000 OA
ATOM     12  H   UNL     1      49.002   4.045  21.374  0.00  0.00    +0.000 HD
ATOM     13  H   UNL     1      47.942   3.071  20.416  0.00  0.00    +0.000 HD
ENDBRANCH   1  10
BRANCH   5  14
ATOM     14  C   UNL     1      46.542   4.437  13.449  0.00  0.00    +0.000 C 
BRANCH  14  15
ATOM     15  C   UNL     1      45.215   4.008  12.785  0.00  0.00    +0.000 C 
BRANCH  15  16
ATOM     16  C   UNL     1      45.314   3.900  11.251  0.00  0.00    +0.000 C 
ATOM     17  C   UNL     1      44.271   2.951  10.648  0.00  0.00    +0.000 C 
ATOM     18  C   UNL     1      44.578   2.779   9.165  0.00  0.00    +0.000 C 
ATOM     19  C   UNL     1      44.635   4.127   8.447  0.00  0.00    +0.000 C 
ATOM     20  N   UNL     1      45.496   5.105   9.119  0.00  0.00    +0.000 NA
ATOM     21  C   UNL     1      45.179   5.258  10.544  0.00  0.00    +0.000 C 
ATOM     22  H   UNL     1      45.407   6.006   8.651  0.00  0.00    +0.000 HD
ENDBRANCH  15  16
ENDBRANCH  14  15
ENDBRANCH   5  14
TORSDOF 4
ENDMDL
MODEL 7
REMARK VINA RESULT:    -5.919      3.998      5.618
REMARK INTER + INTRA:          -7.608
REMARK INTER:                  -7.362
REMARK INTRA:                  -0.246
REMARK UNBOUND:                -0.305
REMARK  Name = 
REMARK  4 active torsions:
REMARK  status: ('A' for Active; 'I' for Inactive)
REMARK    1  A    between atoms: C_2  and  C_4
REMARK    2  A    between atoms: N_8  and  C_9
REMARK    3  A    between atoms: C_9  and  C_10
REMARK    4  A    between atoms: C_10  and  C_11
REMARK                            x       y       z     vdW  Elec       q    Type
REMARK                         _______ _______ _______ _____ _____    ______ ____
ROOT
ATOM      1  C   UNL     1      45.038   4.036  11.119  0.00  0.00    +0.000 A 
ATOM      2  C   UNL     1      45.390   5.371  11.280  0.00  0.00    +0.000 A 
ATOM      3  C   UNL     1      45.948   5.783  12.490  0.00  0.00    +0.000 A 
ATOM      4  C   UNL     1      46.169   4.859  13.514  0.00  0.00    +0.000 A 
ATOM      5  N   UNL     1      46.802   5.332  14.672  0.00  0.00    +0.000 N 
ATOM      6  N   UNL     1      45.812   3.566  13.375  0.00  0.00    +0.000 NA
ATOM      7  C   UNL     1      45.236   3.187  12.200  0.00  0.00    +0.000 A 
ATOM      8  H   UNL     1      46.255   6.104  15.041  0.00  0.00    +0.000 HD
ENDROOT
BRANCH   1  10
ATOM      9  N   UNL     1      44.051   4.406   8.929  0.00  0.00    +0.000 N 
ATOM     10  C   UNL     1      44.473   3.499   9.864  0.00  0.00    +0.000 C 
ATOM     11  O   UNL     1      44.423   2.296   9.644  0.00  0.00    +0.000 OA
ATOM     12  H   UNL     1      43.772   4.030   8.032  0.00  0.00    +0.000 HD
ATOM     13  H   UNL     1      44.305   5.381   8.969  0.00  0.00    +0.000 HD
ENDBRANCH   1  10
BRANCH   5  14
ATOM     14  C   UNL     1      47.182   4.345  15.679  0.00  0.00    +0.000 C 
BRANCH  14  15
ATOM     15  C   UNL     1      48.382   4.859  16.502  0.00  0.00    +0.000 C 
BRANCH  15  16
ATOM     16  C   UNL     1      48.154   4.775  18.023  0.00  0.00    +0.000 C 
ATOM     17  C   UNL     1      49.450   4.908  18.833  0.00  0.00    +0.000 C 
ATOM     18  C   UNL     1      49.133   4.627  20.297  0.00  0.00    +0.000 C 
ATOM     19  C   UNL     1      48.018   5.536  20.812  0.00  0.00    +0.000 C 
ATOM     20  N   UNL     1      46.837   5.554  19.944  0.00  0.00    +0.000 NA
ATOM     21  C   UNL     1      47.164   5.831  18.542  0.00  0.00    +0.000 C 
ATOM     22  H   UNL     1      46.180   6.253  20.287  0.00  0.00    +0.000 HD
ENDBRANCH  15  16
ENDBRANCH  14  15
ENDBRANCH   5  14
TORSDOF 4
ENDMDL
MODEL 8
REMARK VINA RESULT:    -5.522      5.230      8.423
REMARK INTER + INTRA:          -7.117
REMARK INTER:                  -6.866
REMARK INTRA:                  -0.251
REMARK UNBOUND:                -0.305
REMARK  Name = 
REMARK  4 active torsions:
REMARK  status: ('A' for Active; 'I' for Inactive)
REMARK    1  A    between atoms: C_2  and  C_4
REMARK    2  A    between atoms: N_8  and  C_9
REMARK    3  A    between atoms: C_9  and  C_10
REMARK    4  A    between atoms: C_10  and  C_11
REMARK                            x       y       z     vdW  Elec       q    Type
REMARK                         _______ _______ _______ _____ _____    ______ ____
ROOT
ATOM      1  C   UNL     1      48.913   4.464  18.541  0.00  0.00    +0.000 A 
ATOM      2  C   UNL     1      48.250   3.257  18.350  0.00  0.00    +0.000 A 
ATOM      3  C   UNL     1      47.529   3.060  17.172  0.00  0.00    +0.000 A 
ATOM      4  C   UNL     1      47.496   4.056  16.193  0.00  0.00    +0.000 A 
ATOM      5  N   UNL     1      46.814   3.757  15.005  0.00  0.00    +0.000 N 
ATOM      6  N   UNL     1      48.118   5.237  16.378  0.00  0.00    +0.000 NA
ATOM      7  C   UNL     1      48.790   5.427  17.549  0.00  0.00    +0.000 A 
ATOM      8  H   UNL     1      45.860   3.500  15.242  0.00  0.00    +0.000 HD
ENDROOT
BRANCH   1  10
ATOM      9  N   UNL     1      49.212   4.380  20.952  0.00  0.00    +0.000 N 
ATOM     10  C   UNL     1      49.729   4.751  19.739  0.00  0.00    +0.000 C 
ATOM     11  O   UNL     1      50.839   5.257  19.654  0.00  0.00    +0.000 OA
ATOM     12  H   UNL     1      49.827   4.478  21.751  0.00  0.00    +0.000 HD
ATOM     13  H   UNL     1      48.433   3.746  21.037  0.00  0.00    +0.000 HD
ENDBRANCH   1  10
BRANCH   5  14
ATOM     14  C   UNL     1      46.909   4.726  13.915  0.00  0.00    +0.000 C 
BRANCH  14  15
ATOM     15  C   UNL     1      45.630   4.681  13.051  0.00  0.00    +0.000 C 
BRANCH  15  16
ATOM     16  C   UNL     1      45.068   6.078  12.729  0.00  0.00    +0.000 C 
ATOM     17  C   UNL     1      46.148   7.167  12.695  0.00  0.00    +0.000 C 
ATOM     18  C   UNL     1      45.462   8.521  12.555  0.00  0.00    +0.000 C 
ATOM     19  C   UNL     1      44.545   8.558  11.332  0.00  0.00    +0.000 C 
ATOM     20  N   UNL     1      43.625   7.419  11.262  0.00  0.00    +0.000 NA
ATOM     21  C   UNL     1      44.307   6.127  11.394  0.00  0.00    +0.000 C 
ATOM     22  H   UNL     1      43.120   7.451  10.377  0.00  0.00    +0.000 HD
ENDBRANCH  15  16
ENDBRANCH  14  15
ENDBRANCH   5  14
TORSDOF 4
ENDMDL
MODEL 9
REMARK VINA RESULT:    -5.422      4.163      6.389
REMARK INTER + INTRA:          -6.995
REMARK INTER:                  -6.620
REMARK INTRA:                  -0.375
REMARK UNBOUND:                -0.305
REMARK  Name = 
REMARK  4 active torsions:
REMARK  status: ('A' for Active; 'I' for Inactive)
REMARK    1  A    between atoms: C_2  and  C_4
REMARK    2  A    between atoms: N_8  and  C_9
REMARK    3  A    between atoms: C_9  and  C_10
REMARK    4  A    between atoms: C_10  and  C_11
REMARK                            x       y       z     vdW  Elec       q    Type
REMARK                         _______ _______ _______ _____ _____    ______ ____
ROOT
ATOM      1  C   UNL     1      44.416   5.530  12.116  0.00  0.00    +0.000 A 
ATOM      2  C   UNL     1      44.875   4.411  12.802  0.00  0.00    +0.000 A 
ATOM      3  C   UNL     1      46.025   4.521  13.583  0.00  0.00    +0.000 A 
ATOM      4  C   UNL     1      46.690   5.745  13.689  0.00  0.00    +0.000 A 
ATOM      5  N   UNL     1      47.794   5.795  14.552  0.00  0.00    +0.000 N 
ATOM      6  N   UNL     1      46.265   6.830  13.011  0.00  0.00    +0.000 NA
ATOM      7  C   UNL     1      45.160   6.697  12.226  0.00  0.00    +0.000 A 
ATOM      8  H   UNL     1      48.460   5.086  14.258  0.00  0.00    +0.000 HD
ENDROOT
BRANCH   1  10
ATOM      9  N   UNL     1      42.121   6.243  11.753  0.00  0.00    +0.000 N 
ATOM     10  C   UNL     1      43.190   5.521  11.292  0.00  0.00    +0.000 C 
ATOM     11  O   UNL     1      43.140   4.934  10.220  0.00  0.00    +0.000 OA
ATOM     12  H   UNL     1      41.329   6.321  11.127  0.00  0.00    +0.000 HD
ATOM     13  H   UNL     1      42.207   6.929  12.486  0.00  0.00    +0.000 HD
ENDBRANCH   1  10
BRANCH   5  14
ATOM     14  C   UNL     1      48.397   7.104  14.793  0.00  0.00    +0.000 C 
BRANCH  14  15
ATOM     15  C   UNL     1      49.027   7.148  16.201  0.00  0.00    +0.000 C 
BRANCH  15  16
ATOM     16  C   UNL     1      48.773   5.867  17.018  0.00  0.00    +0.000 C 
ATOM     17  C   UNL     1      50.065   5.129  17.394  0.00  0.00    +0.000 C 
ATOM     18  C   UNL     1      49.689   3.796  18.030  0.00  0.00    +0.000 C 
ATOM     19  C   UNL     1      48.751   3.990  19.221  0.00  0.00    +0.000 C 
ATOM     20  N   UNL     1      47.599   4.846  18.918  0.00  0.00    +0.000 NA
ATOM     21  C   UNL     1      47.984   6.125  18.312  0.00  0.00    +0.000 C 
ATOM     22  H   UNL     1      47.075   5.018  19.776  0.00  0.00    +0.000 HD
ENDBRANCH  15  16
ENDBRANCH  14  15
ENDBRANCH   5  14
TORSDOF 4
ENDMDL
