MODEL 1
REMARK VINA RESULT:    -6.516      0.000      0.000
REMARK INTER + INTRA:         -10.570
REMARK INTER:                  -9.563
REMARK INTRA:                  -1.007
REMARK UNBOUND:                -1.007
REMARK  Name = 
REMARK  10 active torsions:
REMARK  status: ('A' for Active; 'I' for Inactive)
REMARK    1  A    between atoms: C_1  and  O_2
REMARK    2  A    between atoms: O_2  and  C_3
REMARK    3  A    between atoms: N_7  and  C_8
REMARK    4  A    between atoms: C_8  and  C_9
REMARK    5  A    between atoms: C_9  and  C_10
REMARK    6  A    between atoms: C_10  and  O_11
REMARK    7  A    between atoms: C_16  and  C_17
REMARK    8  A    between atoms: C_17  and  C_18
REMARK    9  A    between atoms: C_18  and  N_19
REMARK   10  A    between atoms: C_22  and  O_23
REMARK                            x       y       z     vdW  Elec       q    Type
REMARK                         _______ _______ _______ _____ _____    ______ ____
ROOT
ATOM      1  C   UNL     1      49.709   8.235  13.372  0.00  0.00    +0.000 A 
ATOM      2  C   UNL     1      49.168   8.361  12.099  0.00  0.00    +0.000 A 
ATOM      3  C   UNL     1      48.145   7.500  11.695  0.00  0.00    +0.000 A 
ATOM      4  C   UNL     1      47.666   6.532  12.569  0.00  0.00    +0.000 A 
ATOM      5  N   UNL     1      46.579   5.767  12.170  0.00  0.00    +0.000 N 
ATOM      6  N   UNL     1      48.192   6.382  13.804  0.00  0.00    +0.000 NA
ATOM      7  C   UNL     1      49.201   7.221  14.195  0.00  0.00    +0.000 A 
ATOM      8  H   UNL     1      46.626   5.414  11.222  0.00  0.00    +0.000 HD
ENDROOT
BRANCH   1  10
ATOM      9  C   UNL     1      51.987   8.872  13.201  0.00  0.00    +0.000 C 
ATOM     10  O   UNL     1      50.728   9.011  13.854  0.00  0.00    +0.000 OA
ENDBRANCH   1  10
BRANCH   5  11
ATOM     11  C   UNL     1      45.858   4.960  13.142  0.00  0.00    +0.000 C 
BRANCH  11  12
ATOM     12  C   UNL     1      45.426   3.593  12.614  0.00  0.00    +0.000 C 
BRANCH  12  13
ATOM     13  C   UNL     1      43.929   3.490  12.328  0.00  0.00    +0.000 C 
ATOM     14  C   UNL     1      43.432   4.174  11.034  0.00  0.00    +0.000 C 
ATOM     15  O   UNL     1      42.518   5.024  11.765  0.00  0.00    +0.000 OA
ATOM     16  C   UNL     1      43.094   4.597  13.021  0.00  0.00    +0.000 C 
BRANCH  13  17
ATOM     17  O   UNL     1      43.463   2.138  12.568  0.00  0.00    +0.000 OA
ATOM     18  H   UNL     1      44.054   1.584  12.019  0.00  0.00    +0.000 HD
ENDBRANCH  13  17
ENDBRANCH  12  13
ENDBRANCH  11  12
ENDBRANCH   5  11
BRANCH   7  19
ATOM     19  C   UNL     1      49.765   6.962  15.578  0.00  0.00    +0.000 C 
BRANCH  19  20
ATOM     20  C   UNL     1      48.706   6.551  16.619  0.00  0.00    +0.000 C 
BRANCH  20  21
ATOM     21  N   UNL     1      48.794   5.175  17.153  0.00  0.00    +0.000 NA
ATOM     22  C   UNL     1      50.152   4.625  17.081  0.00  0.00    +0.000 C 
ATOM     23  C   UNL     1      50.244   3.271  17.784  0.00  0.00    +0.000 C 
ATOM     24  C   UNL     1      49.206   2.285  17.255  0.00  0.00    +0.000 C 
ATOM     25  C   UNL     1      47.812   2.905  17.245  0.00  0.00    +0.000 C 
ATOM     26  C   UNL     1      47.797   4.276  16.562  0.00  0.00    +0.000 C 
BRANCH  24  27
ATOM     27  O   UNL     1      49.566   1.835  15.948  0.00  0.00    +0.000 OA
ATOM     28  H   UNL     1      50.322   2.358  15.633  0.00  0.00    +0.000 HD
ENDBRANCH  24  27
ENDBRANCH  20  21
ENDBRANCH  19  20
ENDBRANCH   7  19
TORSDOF 9
ENDMDL
MODEL 2
REMARK VINA RESULT:    -6.505      1.953      6.150
REMARK INTER + INTRA:         -10.554
REMARK INTER:                  -9.488
REMARK INTRA:                  -1.067
REMARK UNBOUND:                -1.007
REMARK  Name = 
REMARK  10 active torsions:
REMARK  status: ('A' for Active; 'I' for Inactive)
REMARK    1  A    between atoms: C_1  and  O_2
REMARK    2  A    between atoms: O_2  and  C_3
REMARK    3  A    between atoms: N_7  and  C_8
REMARK    4  A    between atoms: C_8  and  C_9
REMARK    5  A    between atoms: C_9  and  C_10
REMARK    6  A    between atoms: C_10  and  O_11
REMARK    7  A    between atoms: C_16  and  C_17
REMARK    8  A    between atoms: C_17  and  C_18
REMARK    9  A    between atoms: C_18  and  N_19
REMARK   10  A    between atoms: C_22  and  O_23
REMARK                            x       y       z     vdW  Elec       q    Type
REMARK                         _______ _______ _______ _____ _____    ______ ____
ROOT
ATOM      1  C   UNL     1      47.813   7.945  13.714  0.00  0.00    +0.000 A 
ATOM      2  C   UNL     1      48.290   8.852  14.652  0.00  0.00    +0.000 A 
ATOM      3  C   UNL     1      48.884   8.384  15.825  0.00  0.00    +0.000 A 
ATOM      4  C   UNL     1      49.005   7.017  16.045  0.00  0.00    +0.000 A 
ATOM      5  N   UNL     1      49.697   6.592  17.171  0.00  0.00    +0.000 N 
ATOM      6  N   UNL     1      48.531   6.120  15.153  0.00  0.00    +0.000 NA
ATOM      7  C   UNL     1      47.940   6.581  14.008  0.00  0.00    +0.000 A 
ATOM      8  H   UNL     1      49.466   7.082  18.027  0.00  0.00    +0.000 HD
ENDROOT
BRANCH   1  10
ATOM      9  C   UNL     1      45.984   9.043  12.677  0.00  0.00    +0.000 C 
ATOM     10  O   UNL     1      47.194   8.301  12.547  0.00  0.00    +0.000 OA
ENDBRANCH   1  10
BRANCH   5  11
ATOM     11  C   UNL     1      50.107   5.202  17.294  0.00  0.00    +0.000 C 
BRANCH  11  12
ATOM     12  C   UNL     1      49.704   4.551  18.615  0.00  0.00    +0.000 C 
BRANCH  12  13
ATOM     13  C   UNL     1      48.487   3.636  18.504  0.00  0.00    +0.000 C 
ATOM     14  C   UNL     1      48.346   2.843  17.186  0.00  0.00    +0.000 C 
ATOM     15  O   UNL     1      47.053   3.427  16.904  0.00  0.00    +0.000 OA
ATOM     16  C   UNL     1      47.217   4.364  17.995  0.00  0.00    +0.000 C 
BRANCH  13  17
ATOM     17  O   UNL     1      48.306   2.888  19.734  0.00  0.00    +0.000 OA
ATOM     18  H   UNL     1      48.515   1.966  19.482  0.00  0.00    +0.000 HD
ENDBRANCH  13  17
ENDBRANCH  12  13
ENDBRANCH  11  12
ENDBRANCH   5  11
BRANCH   7  19
ATOM     19  C   UNL     1      47.397   5.513  13.079  0.00  0.00    +0.000 C 
BRANCH  19  20
ATOM     20  C   UNL     1      46.508   4.468  13.780  0.00  0.00    +0.000 C 
BRANCH  20  21
ATOM     21  N   UNL     1      45.136   4.301  13.257  0.00  0.00    +0.000 NA
ATOM     22  C   UNL     1      45.084   3.441  12.069  0.00  0.00    +0.000 C 
ATOM     23  C   UNL     1      43.641   3.157  11.649  0.00  0.00    +0.000 C 
ATOM     24  C   UNL     1      42.844   4.443  11.452  0.00  0.00    +0.000 C 
ATOM     25  C   UNL     1      42.986   5.370  12.655  0.00  0.00    +0.000 C 
ATOM     26  C   UNL     1      44.452   5.581  13.048  0.00  0.00    +0.000 C 
BRANCH  24  27
ATOM     27  O   UNL     1      43.254   5.106  10.255  0.00  0.00    +0.000 OA
ATOM     28  H   UNL     1      43.425   6.041  10.456  0.00  0.00    +0.000 HD
ENDBRANCH  24  27
ENDBRANCH  20  21
ENDBRANCH  19  20
ENDBRANCH   7  19
TORSDOF 9
ENDMDL
MODEL 3
REMARK VINA RESULT:    -6.260      1.995      2.681
REMARK INTER + INTRA:         -10.195
REMARK INTER:                  -9.130
REMARK INTRA:                  -1.065
REMARK UNBOUND:                -1.007
REMARK  Name = 
REMARK  10 active torsions:
REMARK  status: ('A' for Active; 'I' for Inactive)
REMARK    1  A    between atoms: C_1  and  O_2
REMARK    2  A    between atoms: O_2  and  C_3
REMARK    3  A    between atoms: N_7  and  C_8
REMARK    4  A    between atoms: C_8  and  C_9
REMARK    5  A    between atoms: C_9  and  C_10
REMARK    6  A    between atoms: C_10  and  O_11
REMARK    7  A    between atoms: C_16  and  C_17
REMARK    8  A    between atoms: C_17  and  C_18
REMARK    9  A    between atoms: C_18  and  N_19
REMARK   10  A    between atoms: C_22  and  O_23
REMARK                            x       y       z     vdW  Elec       q    Type
REMARK                         _______ _______ _______ _____ _____    ______ ____
ROOT
ATOM      1  C   UNL     1      46.691   8.249  13.406  0.00  0.00    +0.000 A 
ATOM      2  C   UNL     1      45.757   8.874  12.589  0.00  0.00    +0.000 A 
ATOM      3  C   UNL     1      45.205   8.176  11.513  0.00  0.00    +0.000 A 
ATOM      4  C   UNL     1      45.584   6.862  11.270  0.00  0.00    +0.000 A 
ATOM      5  N   UNL     1      44.936   6.169  10.256  0.00  0.00    +0.000 N 
ATOM      6  N   UNL     1      46.504   6.244  12.042  0.00  0.00    +0.000 NA
ATOM      7  C   UNL     1      47.050   6.932  13.092  0.00  0.00    +0.000 A 
ATOM      8  H   UNL     1      44.818   6.683   9.391  0.00  0.00    +0.000 HD
ENDROOT
BRANCH   1  10
ATOM      9  C   UNL     1      48.402   9.708  14.159  0.00  0.00    +0.000 C 
ATOM     10  O   UNL     1      47.306   8.852  14.470  0.00  0.00    +0.000 OA
ENDBRANCH   1  10
BRANCH   5  11
ATOM     11  C   UNL     1      45.075   4.725  10.155  0.00  0.00    +0.000 C 
BRANCH  11  12
ATOM     12  C   UNL     1      43.767   3.960  10.349  0.00  0.00    +0.000 C 
BRANCH  12  13
ATOM     13  C   UNL     1      43.625   3.325  11.730  0.00  0.00    +0.000 C 
ATOM     14  C   UNL     1      43.243   4.278  12.885  0.00  0.00    +0.000 C 
ATOM     15  O   UNL     1      44.437   3.948  13.631  0.00  0.00    +0.000 OA
ATOM     16  C   UNL     1      44.968   3.220  12.499  0.00  0.00    +0.000 C 
BRANCH  13  17
ATOM     17  O   UNL     1      42.880   2.084  11.639  0.00  0.00    +0.000 OA
ATOM     18  H   UNL     1      42.510   1.965  12.537  0.00  0.00    +0.000 HD
ENDBRANCH  13  17
ENDBRANCH  12  13
ENDBRANCH  11  12
ENDBRANCH   5  11
BRANCH   7  19
ATOM     19  C   UNL     1      48.104   6.184  13.883  0.00  0.00    +0.000 C 
BRANCH  19  20
ATOM     20  C   UNL     1      47.533   5.096  14.813  0.00  0.00    +0.000 C 
BRANCH  20  21
ATOM     21  N   UNL     1      48.386   4.670  15.943  0.00  0.00    +0.000 NA
ATOM     22  C   UNL     1      47.922   3.425  16.564  0.00  0.00    +0.000 C 
ATOM     23  C   UNL     1      48.910   2.925  17.619  0.00  0.00    +0.000 C 
ATOM     24  C   UNL     1      49.218   3.997  18.661  0.00  0.00    +0.000 C 
ATOM     25  C   UNL     1      49.606   5.315  17.998  0.00  0.00    +0.000 C 
ATOM     26  C   UNL     1      48.597   5.738  16.925  0.00  0.00    +0.000 C 
BRANCH  24  27
ATOM     27  O   UNL     1      48.101   4.182  19.532  0.00  0.00    +0.000 OA
ATOM     28  H   UNL     1      48.428   4.425  20.414  0.00  0.00    +0.000 HD
ENDBRANCH  24  27
ENDBRANCH  20  21
ENDBRANCH  19  20
ENDBRANCH   7  19
TORSDOF 9
ENDMDL
MODEL 4
REMARK VINA RESULT:    -6.217      3.646      8.389
REMARK INTER + INTRA:         -10.132
REMARK INTER:                  -9.533
REMARK INTRA:                  -0.599
REMARK UNBOUND:                -1.007
REMARK  Name = 
REMARK  10 active torsions:
REMARK  status: ('A' for Active; 'I' for Inactive)
REMARK    1  A    between atoms: C_1  and  O_2
REMARK    2  A    between atoms: O_2  and  C_3
REMARK    3  A    between atoms: N_7  and  C_8
REMARK    4  A    between atoms: C_8  and  C_9
REMARK    5  A    between atoms: C_9  and  C_10
REMARK    6  A    between atoms: C_10  and  O_11
REMARK    7  A    between atoms: C_16  and  C_17
REMARK    8  A    between atoms: C_17  and  C_18
REMARK    9  A    between atoms: C_18  and  N_19
REMARK   10  A    between atoms: C_22  and  O_23
REMARK                            x       y       z     vdW  Elec       q    Type
REMARK                         _______ _______ _______ _____ _____    ______ ____
ROOT
ATOM      1  C   UNL     1      44.197   4.384  11.856  0.00  0.00    +0.000 A 
ATOM      2  C   UNL     1      44.488   4.780  13.155  0.00  0.00    +0.000 A 
ATOM      3  C   UNL     1      45.534   5.676  13.385  0.00  0.00    +0.000 A 
ATOM      4  C   UNL     1      46.270   6.174  12.317  0.00  0.00    +0.000 A 
ATOM      5  N   UNL     1      47.230   7.143  12.576  0.00  0.00    +0.000 N 
ATOM      6  N   UNL     1      46.013   5.786  11.049  0.00  0.00    +0.000 NA
ATOM      7  C   UNL     1      44.993   4.901  10.826  0.00  0.00    +0.000 A 
ATOM      8  H   UNL     1      47.824   6.957  13.375  0.00  0.00    +0.000 HD
ENDROOT
BRANCH   1  10
ATOM      9  C   UNL     1      43.322   2.193  12.097  0.00  0.00    +0.000 C 
ATOM     10  O   UNL     1      43.210   3.494  11.528  0.00  0.00    +0.000 OA
ENDBRANCH   1  10
BRANCH   5  11
ATOM     11  C   UNL     1      47.812   7.904  11.482  0.00  0.00    +0.000 C 
BRANCH  11  12
ATOM     12  C   UNL     1      48.993   8.780  11.895  0.00  0.00    +0.000 C 
BRANCH  12  13
ATOM     13  C   UNL     1      50.267   7.994  12.196  0.00  0.00    +0.000 C 
ATOM     14  C   UNL     1      51.537   8.830  12.472  0.00  0.00    +0.000 C 
ATOM     15  O   UNL     1      52.253   8.210  11.378  0.00  0.00    +0.000 OA
ATOM     16  C   UNL     1      51.040   7.568  10.921  0.00  0.00    +0.000 C 
BRANCH  13  17
ATOM     17  O   UNL     1      49.985   6.916  13.124  0.00  0.00    +0.000 OA
ATOM     18  H   UNL     1      49.013   6.815  13.080  0.00  0.00    +0.000 HD
ENDBRANCH  13  17
ENDBRANCH  12  13
ENDBRANCH  11  12
ENDBRANCH   5  11
BRANCH   7  19
ATOM     19  C   UNL     1      44.796   4.483   9.382  0.00  0.00    +0.000 C 
BRANCH  19  20
ATOM     20  C   UNL     1      45.012   2.979   9.131  0.00  0.00    +0.000 C 
BRANCH  20  21
ATOM     21  N   UNL     1      45.659   2.601   7.856  0.00  0.00    +0.000 NA
ATOM     22  C   UNL     1      46.586   1.475   8.004  0.00  0.00    +0.000 C 
ATOM     23  C   UNL     1      47.114   1.005   6.647  0.00  0.00    +0.000 C 
ATOM     24  C   UNL     1      47.737   2.150   5.854  0.00  0.00    +0.000 C 
ATOM     25  C   UNL     1      46.799   3.352   5.792  0.00  0.00    +0.000 C 
ATOM     26  C   UNL     1      46.276   3.745   7.176  0.00  0.00    +0.000 C 
BRANCH  24  27
ATOM     27  O   UNL     1      48.995   2.523   6.419  0.00  0.00    +0.000 OA
ATOM     28  H   UNL     1      49.691   2.385   5.754  0.00  0.00    +0.000 HD
ENDBRANCH  24  27
ENDBRANCH  20  21
ENDBRANCH  19  20
ENDBRANCH   7  19
TORSDOF 9
ENDMDL
MODEL 5
REMARK VINA RESULT:    -6.154      2.187      2.927
REMARK INTER + INTRA:         -10.039
REMARK INTER:                  -8.790
REMARK INTRA:                  -1.249
REMARK UNBOUND:                -1.007
REMARK  Name = 
REMARK  10 active torsions:
REMARK  status: ('A' for Active; 'I' for Inactive)
REMARK    1  A    between atoms: C_1  and  O_2
REMARK    2  A    between atoms: O_2  and  C_3
REMARK    3  A    between atoms: N_7  and  C_8
REMARK    4  A    between atoms: C_8  and  C_9
REMARK    5  A    between atoms: C_9  and  C_10
REMARK    6  A    between atoms: C_10  and  O_11
REMARK    7  A    between atoms: C_16  and  C_17
REMARK    8  A    between atoms: C_17  and  C_18
REMARK    9  A    between atoms: C_18  and  N_19
REMARK   10  A    between atoms: C_22  and  O_23
REMARK                            x       y       z     vdW  Elec       q    Type
REMARK                         _______ _______ _______ _____ _____    ______ ____
ROOT
ATOM      1  C   UNL     1      47.119   8.706  12.411  0.00  0.00    +0.000 A 
ATOM      2  C   UNL     1      46.021   9.396  11.911  0.00  0.00    +0.000 A 
ATOM      3  C   UNL     1      44.825   8.715  11.681  0.00  0.00    +0.000 A 
ATOM      4  C   UNL     1      44.733   7.358  11.963  0.00  0.00    +0.000 A 
ATOM      5  N   UNL     1      43.497   6.740  11.822  0.00  0.00    +0.000 N 
ATOM      6  N   UNL     1      45.794   6.667  12.432  0.00  0.00    +0.000 NA
ATOM      7  C   UNL     1      46.970   7.334  12.648  0.00  0.00    +0.000 A 
ATOM      8  H   UNL     1      42.994   6.974  10.974  0.00  0.00    +0.000 HD
ENDROOT
BRANCH   1  10
ATOM      9  C   UNL     1      49.024   9.793  11.510  0.00  0.00    +0.000 C 
ATOM     10  O   UNL     1      48.341   9.275  12.648  0.00  0.00    +0.000 OA
ENDBRANCH   1  10
BRANCH   5  11
ATOM     11  C   UNL     1      43.276   5.415  12.379  0.00  0.00    +0.000 C 
BRANCH  11  12
ATOM     12  C   UNL     1      43.149   4.314  11.328  0.00  0.00    +0.000 C 
BRANCH  12  13
ATOM     13  C   UNL     1      44.490   3.795  10.815  0.00  0.00    +0.000 C 
ATOM     14  C   UNL     1      45.025   4.446   9.520  0.00  0.00    +0.000 C 
ATOM     15  O   UNL     1      45.068   3.176   8.829  0.00  0.00    +0.000 OA
ATOM     16  C   UNL     1      44.359   2.538   9.917  0.00  0.00    +0.000 C 
BRANCH  13  17
ATOM     17  O   UNL     1      45.431   3.662  11.911  0.00  0.00    +0.000 OA
ATOM     18  H   UNL     1      45.214   2.793  12.305  0.00  0.00    +0.000 HD
ENDBRANCH  13  17
ENDBRANCH  12  13
ENDBRANCH  11  12
ENDBRANCH   5  11
BRANCH   7  19
ATOM     19  C   UNL     1      48.123   6.480  13.136  0.00  0.00    +0.000 C 
BRANCH  19  20
ATOM     20  C   UNL     1      48.455   6.670  14.628  0.00  0.00    +0.000 C 
BRANCH  20  21
ATOM     21  N   UNL     1      48.535   5.447  15.455  0.00  0.00    +0.000 NA
ATOM     22  C   UNL     1      47.400   4.542  15.238  0.00  0.00    +0.000 C 
ATOM     23  C   UNL     1      47.591   3.220  15.981  0.00  0.00    +0.000 C 
ATOM     24  C   UNL     1      47.865   3.438  17.466  0.00  0.00    +0.000 C 
ATOM     25  C   UNL     1      48.982   4.455  17.677  0.00  0.00    +0.000 C 
ATOM     26  C   UNL     1      48.750   5.739  16.875  0.00  0.00    +0.000 C 
BRANCH  24  27
ATOM     27  O   UNL     1      46.673   3.853  18.137  0.00  0.00    +0.000 OA
ATOM     28  H   UNL     1      45.947   3.892  17.493  0.00  0.00    +0.000 HD
ENDBRANCH  24  27
ENDBRANCH  20  21
ENDBRANCH  19  20
ENDBRANCH   7  19
TORSDOF 9
ENDMDL
MODEL 6
REMARK VINA RESULT:    -6.110      3.577      6.634
REMARK INTER + INTRA:          -9.974
REMARK INTER:                  -8.973
REMARK INTRA:                  -1.001
REMARK UNBOUND:                -1.007
REMARK  Name = 
REMARK  10 active torsions:
REMARK  status: ('A' for Active; 'I' for Inactive)
REMARK    1  A    between atoms: C_1  and  O_2
REMARK    2  A    between atoms: O_2  and  C_3
REMARK    3  A    between atoms: N_7  and  C_8
REMARK    4  A    between atoms: C_8  and  C_9
REMARK    5  A    between atoms: C_9  and  C_10
REMARK    6  A    between atoms: C_10  and  O_11
REMARK    7  A    between atoms: C_16  and  C_17
REMARK    8  A    between atoms: C_17  and  C_18
REMARK    9  A    between atoms: C_18  and  N_19
REMARK   10  A    between atoms: C_22  and  O_23
REMARK                            x       y       z     vdW  Elec       q    Type
REMARK                         _______ _______ _______ _____ _____    ______ ____
ROOT
ATOM      1  C   UNL     1      47.601   5.893  13.725  0.00  0.00    +0.000 A 
ATOM      2  C   UNL     1      47.524   4.633  14.306  0.00  0.00    +0.000 A 
ATOM      3  C   UNL     1      46.566   3.723  13.854  0.00  0.00    +0.000 A 
ATOM      4  C   UNL     1      45.704   4.075  12.824  0.00  0.00    +0.000 A 
ATOM      5  N   UNL     1      44.838   3.108  12.332  0.00  0.00    +0.000 N 
ATOM      6  N   UNL     1      45.752   5.302  12.259  0.00  0.00    +0.000 NA
ATOM      7  C   UNL     1      46.686   6.196  12.709  0.00  0.00    +0.000 A 
ATOM      8  H   UNL     1      44.361   2.560  13.038  0.00  0.00    +0.000 HD
ENDROOT
BRANCH   1  10
ATOM      9  C   UNL     1      48.876   6.850  15.480  0.00  0.00    +0.000 C 
ATOM     10  O   UNL     1      48.486   6.863  14.110  0.00  0.00    +0.000 OA
ENDBRANCH   1  10
BRANCH   5  11
ATOM     11  C   UNL     1      44.136   3.326  11.077  0.00  0.00    +0.000 C 
BRANCH  11  12
ATOM     12  C   UNL     1      44.897   2.834   9.847  0.00  0.00    +0.000 C 
BRANCH  12  13
ATOM     13  C   UNL     1      44.911   3.832   8.692  0.00  0.00    +0.000 C 
ATOM     14  C   UNL     1      45.637   3.379   7.406  0.00  0.00    +0.000 C 
ATOM     15  O   UNL     1      46.551   4.498   7.457  0.00  0.00    +0.000 OA
ATOM     16  C   UNL     1      46.075   4.852   8.776  0.00  0.00    +0.000 C 
BRANCH  13  17
ATOM     17  O   UNL     1      43.597   4.423   8.522  0.00  0.00    +0.000 OA
ATOM     18  H   UNL     1      43.782   5.375   8.389  0.00  0.00    +0.000 HD
ENDBRANCH  13  17
ENDBRANCH  12  13
ENDBRANCH  11  12
ENDBRANCH   5  11
BRANCH   7  19
ATOM     19  C   UNL     1      46.648   7.563  12.054  0.00  0.00    +0.000 C 
BRANCH  19  20
ATOM     20  C   UNL     1      45.893   8.628  12.872  0.00  0.00    +0.000 C 
BRANCH  20  21
ATOM     21  N   UNL     1      44.837   9.385  12.168  0.00  0.00    +0.000 NA
ATOM     22  C   UNL     1      44.062   8.551  11.244  0.00  0.00    +0.000 C 
ATOM     23  C   UNL     1      42.879   9.321  10.655  0.00  0.00    +0.000 C 
ATOM     24  C   UNL     1      43.322  10.627  10.002  0.00  0.00    +0.000 C 
ATOM     25  C   UNL     1      44.208  11.440  10.941  0.00  0.00    +0.000 C 
ATOM     26  C   UNL     1      45.347  10.601  11.527  0.00  0.00    +0.000 C 
BRANCH  24  27
ATOM     27  O   UNL     1      43.999  10.366   8.771  0.00  0.00    +0.000 OA
ATOM     28  H   UNL     1      44.451  11.177   8.484  0.00  0.00    +0.000 HD
ENDBRANCH  24  27
ENDBRANCH  20  21
ENDBRANCH  19  20
ENDBRANCH   7  19
TORSDOF 9
ENDMDL
MODEL 7
REMARK VINA RESULT:    -6.103      3.818      6.533
REMARK INTER + INTRA:          -9.964
REMARK INTER:                  -9.071
REMARK INTRA:                  -0.893
REMARK UNBOUND:                -1.007
REMARK  Name = 
REMARK  10 active torsions:
REMARK  status: ('A' for Active; 'I' for Inactive)
REMARK    1  A    between atoms: C_1  and  O_2
REMARK    2  A    between atoms: O_2  and  C_3
REMARK    3  A    between atoms: N_7  and  C_8
REMARK    4  A    between atoms: C_8  and  C_9
REMARK    5  A    between atoms: C_9  and  C_10
REMARK    6  A    between atoms: C_10  and  O_11
REMARK    7  A    between atoms: C_16  and  C_17
REMARK    8  A    between atoms: C_17  and  C_18
REMARK    9  A    between atoms: C_18  and  N_19
REMARK   10  A    between atoms: C_22  and  O_23
REMARK                            x       y       z     vdW  Elec       q    Type
REMARK                         _______ _______ _______ _____ _____    ______ ____
ROOT
ATOM      1  C   UNL     1      45.551   4.641  12.882  0.00  0.00    +0.000 A 
ATOM      2  C   UNL     1      45.033   3.357  12.760  0.00  0.00    +0.000 A 
ATOM      3  C   UNL     1      44.649   2.885  11.503  0.00  0.00    +0.000 A 
ATOM      4  C   UNL     1      44.795   3.693  10.383  0.00  0.00    +0.000 A 
ATOM      5  N   UNL     1      44.502   3.151   9.139  0.00  0.00    +0.000 N 
ATOM      6  N   UNL     1      45.280   4.950  10.484  0.00  0.00    +0.000 NA
ATOM      7  C   UNL     1      45.648   5.415  11.718  0.00  0.00    +0.000 A 
ATOM      8  H   UNL     1      43.643   2.615   9.095  0.00  0.00    +0.000 HD
ENDROOT
BRANCH   1  10
ATOM      9  C   UNL     1      46.990   4.550  14.765  0.00  0.00    +0.000 C 
ATOM     10  O   UNL     1      45.934   5.205  14.069  0.00  0.00    +0.000 OA
ENDBRANCH   1  10
BRANCH   5  11
ATOM     11  C   UNL     1      44.915   3.840   7.926  0.00  0.00    +0.000 C 
BRANCH  11  12
ATOM     12  C   UNL     1      45.454   2.912   6.839  0.00  0.00    +0.000 C 
BRANCH  12  13
ATOM     13  C   UNL     1      46.967   2.995   6.653  0.00  0.00    +0.000 C 
ATOM     14  C   UNL     1      47.507   2.596   5.261  0.00  0.00    +0.000 C 
ATOM     15  O   UNL     1      48.341   1.553   5.819  0.00  0.00    +0.000 OA
ATOM     16  C   UNL     1      47.713   1.716   7.112  0.00  0.00    +0.000 C 
BRANCH  13  17
ATOM     17  O   UNL     1      47.476   4.230   7.216  0.00  0.00    +0.000 OA
ATOM     18  H   UNL     1      48.078   3.934   7.929  0.00  0.00    +0.000 HD
ENDBRANCH  13  17
ENDBRANCH  12  13
ENDBRANCH  11  12
ENDBRANCH   5  11
BRANCH   7  19
ATOM     19  C   UNL     1      46.142   6.847  11.754  0.00  0.00    +0.000 C 
BRANCH  19  20
ATOM     20  C   UNL     1      47.673   6.984  11.644  0.00  0.00    +0.000 C 
BRANCH  20  21
ATOM     21  N   UNL     1      48.340   7.841  12.647  0.00  0.00    +0.000 NA
ATOM     22  C   UNL     1      47.424   8.306  13.694  0.00  0.00    +0.000 C 
ATOM     23  C   UNL     1      48.173   9.053  14.799  0.00  0.00    +0.000 C 
ATOM     24  C   UNL     1      49.018  10.193  14.241  0.00  0.00    +0.000 C 
ATOM     25  C   UNL     1      49.895   9.716  13.087  0.00  0.00    +0.000 C 
ATOM     26  C   UNL     1      49.093   8.942  12.037  0.00  0.00    +0.000 C 
BRANCH  24  27
ATOM     27  O   UNL     1      48.184  11.275  13.824  0.00  0.00    +0.000 OA
ATOM     28  H   UNL     1      47.610  11.533  14.565  0.00  0.00    +0.000 HD
ENDBRANCH  24  27
ENDBRANCH  20  21
ENDBRANCH  19  20
ENDBRANCH   7  19
TORSDOF 9
ENDMDL
MODEL 8
REMARK VINA RESULT:    -5.827      1.775      5.461
REMARK INTER + INTRA:          -9.559
REMARK INTER:                  -8.365
REMARK INTRA:                  -1.194
REMARK UNBOUND:                -1.007
REMARK  Name = 
REMARK  10 active torsions:
REMARK  status: ('A' for Active; 'I' for Inactive)
REMARK    1  A    between atoms: C_1  and  O_2
REMARK    2  A    between atoms: O_2  and  C_3
REMARK    3  A    between atoms: N_7  and  C_8
REMARK    4  A    between atoms: C_8  and  C_9
REMARK    5  A    between atoms: C_9  and  C_10
REMARK    6  A    between atoms: C_10  and  O_11
REMARK    7  A    between atoms: C_16  and  C_17
REMARK    8  A    between atoms: C_17  and  C_18
REMARK    9  A    between atoms: C_18  and  N_19
REMARK   10  A    between atoms: C_22  and  O_23
REMARK                            x       y       z     vdW  Elec       q    Type
REMARK                         _______ _______ _______ _____ _____    ______ ____
ROOT
ATOM      1  C   UNL     1      44.843   4.392  12.135  0.00  0.00    +0.000 A 
ATOM      2  C   UNL     1      43.980   5.279  11.503  0.00  0.00    +0.000 A 
ATOM      3  C   UNL     1      44.122   6.651  11.718  0.00  0.00    +0.000 A 
ATOM      4  C   UNL     1      45.128   7.123  12.552  0.00  0.00    +0.000 A 
ATOM      5  N   UNL     1      45.304   8.496  12.656  0.00  0.00    +0.000 N 
ATOM      6  N   UNL     1      45.964   6.276  13.190  0.00  0.00    +0.000 NA
ATOM      7  C   UNL     1      45.818   4.930  12.985  0.00  0.00    +0.000 A 
ATOM      8  H   UNL     1      44.451   9.032  12.770  0.00  0.00    +0.000 HD
ENDROOT
BRANCH   1  10
ATOM      9  C   UNL     1      43.481   2.490  11.745  0.00  0.00    +0.000 C 
ATOM     10  O   UNL     1      44.772   3.031  12.010  0.00  0.00    +0.000 OA
ENDBRANCH   1  10
BRANCH   5  11
ATOM     11  C   UNL     1      46.510   9.033  13.267  0.00  0.00    +0.000 C 
BRANCH  11  12
ATOM     12  C   UNL     1      47.662   9.242  12.286  0.00  0.00    +0.000 C 
BRANCH  12  13
ATOM     13  C   UNL     1      48.986   8.644  12.757  0.00  0.00    +0.000 C 
ATOM     14  C   UNL     1      49.257   7.178  12.350  0.00  0.00    +0.000 C 
ATOM     15  O   UNL     1      49.387   6.758  13.729  0.00  0.00    +0.000 OA
ATOM     16  C   UNL     1      48.917   8.048  14.186  0.00  0.00    +0.000 C 
BRANCH  13  17
ATOM     17  O   UNL     1      50.067   9.587  12.545  0.00  0.00    +0.000 OA
ATOM     18  H   UNL     1      50.478   9.291  11.708  0.00  0.00    +0.000 HD
ENDBRANCH  13  17
ENDBRANCH  12  13
ENDBRANCH  11  12
ENDBRANCH   5  11
BRANCH   7  19
ATOM     19  C   UNL     1      46.767   4.045  13.768  0.00  0.00    +0.000 C 
BRANCH  19  20
ATOM     20  C   UNL     1      46.880   4.414  15.259  0.00  0.00    +0.000 C 
BRANCH  20  21
ATOM     21  N   UNL     1      48.180   4.156  15.914  0.00  0.00    +0.000 NA
ATOM     22  C   UNL     1      48.213   2.872  16.622  0.00  0.00    +0.000 C 
ATOM     23  C   UNL     1      49.615   2.561  17.149  0.00  0.00    +0.000 C 
ATOM     24  C   UNL     1      50.161   3.696  18.010  0.00  0.00    +0.000 C 
ATOM     25  C   UNL     1      50.031   5.040  17.299  0.00  0.00    +0.000 C 
ATOM     26  C   UNL     1      48.616   5.271  16.762  0.00  0.00    +0.000 C 
BRANCH  24  27
ATOM     27  O   UNL     1      49.496   3.729  19.274  0.00  0.00    +0.000 OA
ATOM     28  H   UNL     1      50.099   4.104  19.937  0.00  0.00    +0.000 HD
ENDBRANCH  24  27
ENDBRANCH  20  21
ENDBRANCH  19  20
ENDBRANCH   7  19
TORSDOF 9
ENDMDL
MODEL 9
REMARK VINA RESULT:    -5.804      1.885      4.942
REMARK INTER + INTRA:          -9.525
REMARK INTER:                  -8.259
REMARK INTRA:                  -1.265
REMARK UNBOUND:                -1.007
REMARK  Name = 
REMARK  10 active torsions:
REMARK  status: ('A' for Active; 'I' for Inactive)
REMARK    1  A    between atoms: C_1  and  O_2
REMARK    2  A    between atoms: O_2  and  C_3
REMARK    3  A    between atoms: N_7  and  C_8
REMARK    4  A    between atoms: C_8  and  C_9
REMARK    5  A    between atoms: C_9  and  C_10
REMARK    6  A    between atoms: C_10  and  O_11
REMARK    7  A    between atoms: C_16  and  C_17
REMARK    8  A    between atoms: C_17  and  C_18
REMARK    9  A    between atoms: C_18  and  N_19
REMARK   10  A    between atoms: C_22  and  O_23
REMARK                            x       y       z     vdW  Elec       q    Type
REMARK                         _______ _______ _______ _____ _____    ______ ____
ROOT
ATOM      1  C   UNL     1      49.211   4.880  17.891  0.00  0.00    +0.000 A 
ATOM      2  C   UNL     1      48.396   3.767  18.058  0.00  0.00    +0.000 A 
ATOM      3  C   UNL     1      47.510   3.403  17.043  0.00  0.00    +0.000 A 
ATOM      4  C   UNL     1      47.453   4.145  15.870  0.00  0.00    +0.000 A 
ATOM      5  N   UNL     1      46.638   3.690  14.843  0.00  0.00    +0.000 N 
ATOM      6  N   UNL     1      48.225   5.241  15.697  0.00  0.00    +0.000 NA
ATOM      7  C   UNL     1      49.087   5.602  16.697  0.00  0.00    +0.000 A 
ATOM      8  H   UNL     1      45.714   3.386  15.130  0.00  0.00    +0.000 HD
ENDROOT
BRANCH   1  10
ATOM      9  C   UNL     1      49.730   5.113  20.193  0.00  0.00    +0.000 C 
ATOM     10  O   UNL     1      50.094   5.333  18.833  0.00  0.00    +0.000 OA
ENDBRANCH   1  10
BRANCH   5  11
ATOM     11  C   UNL     1      46.765   4.250  13.507  0.00  0.00    +0.000 C 
BRANCH  11  12
ATOM     12  C   UNL     1      45.580   5.114  13.081  0.00  0.00    +0.000 C 
BRANCH  12  13
ATOM     13  C   UNL     1      44.427   4.320  12.471  0.00  0.00    +0.000 C 
ATOM     14  C   UNL     1      43.900   4.818  11.107  0.00  0.00    +0.000 C 
ATOM     15  O   UNL     1      42.564   5.010  11.627  0.00  0.00    +0.000 OA
ATOM     16  C   UNL     1      43.033   4.776  12.975  0.00  0.00    +0.000 C 
BRANCH  13  17
ATOM     17  O   UNL     1      44.679   2.896  12.589  0.00  0.00    +0.000 OA
ATOM     18  H   UNL     1      44.060   2.604  13.288  0.00  0.00    +0.000 HD
ENDBRANCH  13  17
ENDBRANCH  12  13
ENDBRANCH  11  12
ENDBRANCH   5  11
BRANCH   7  19
ATOM     19  C   UNL     1      49.886   6.865  16.444  0.00  0.00    +0.000 C 
BRANCH  19  20
ATOM     20  C   UNL     1      49.021   8.096  16.114  0.00  0.00    +0.000 C 
BRANCH  20  21
ATOM     21  N   UNL     1      48.992   8.533  14.702  0.00  0.00    +0.000 NA
ATOM     22  C   UNL     1      47.633   8.589  14.155  0.00  0.00    +0.000 C 
ATOM     23  C   UNL     1      47.622   9.196  12.751  0.00  0.00    +0.000 C 
ATOM     24  C   UNL     1      48.580   8.469  11.811  0.00  0.00    +0.000 C 
ATOM     25  C   UNL     1      49.965   8.331  12.435  0.00  0.00    +0.000 C 
ATOM     26  C   UNL     1      49.902   7.757  13.853  0.00  0.00    +0.000 C 
BRANCH  24  27
ATOM     27  O   UNL     1      48.057   7.187  11.459  0.00  0.00    +0.000 OA
ATOM     28  H   UNL     1      48.472   6.895  10.631  0.00  0.00    +0.000 HD
ENDBRANCH  24  27
ENDBRANCH  20  21
ENDBRANCH  19  20
ENDBRANCH   7  19
TORSDOF 9
ENDMDL
