MODEL 1
REMARK VINA RESULT:    -8.530      0.000      0.000
REMARK INTER + INTRA:         -11.980
REMARK INTER:                 -11.023
REMARK INTRA:                  -0.957
REMARK UNBOUND:                -0.957
REMARK  Name = 
REMARK  7 active torsions:
REMARK  status: ('A' for Active; 'I' for Inactive)
REMARK    1  A    between atoms: C_1  and  C_2
REMARK    2  A    between atoms: N_4  and  C_5
REMARK    3  A    between atoms: C_9  and  C_10
REMARK    4  A    between atoms: C_10  and  C_11
REMARK    5  A    between atoms: C_11  and  N_12
REMARK    6  A    between atoms: C_16  and  C_17
REMARK    7  A    between atoms: C_24  and  C_25
REMARK                            x       y       z     vdW  Elec       q    Type
REMARK                         _______ _______ _______ _____ _____    ______ ____
ROOT
ATOM      1  C   UNL     1      46.891   6.733  13.357  0.00  0.00    +0.000 A 
ATOM      2  C   UNL     1      47.519   5.558  13.787  0.00  0.00    +0.000 A 
ATOM      3  C   UNL     1      46.882   4.317  13.719  0.00  0.00    +0.000 A 
ATOM      4  C   UNL     1      45.581   4.224  13.226  0.00  0.00    +0.000 A 
ATOM      5  C   UNL     1      44.915   5.367  12.787  0.00  0.00    +0.000 A 
ATOM      6  C   UNL     1      45.589   6.602  12.844  0.00  0.00    +0.000 A 
ENDROOT
BRANCH   1  10
ATOM      7  C   UNL     1      49.978   7.713  11.440  0.00  0.00    +0.000 C 
ATOM      8  C   UNL     1      49.769   8.700  12.593  0.00  0.00    +0.000 C 
ATOM      9  C   UNL     1      48.966   8.067  13.759  0.00  0.00    +0.000 C 
ATOM     10  N   UNL     1      47.540   7.951  13.435  0.00  0.00    +0.000 N 
ATOM     11  C   UNL     1      46.906   9.173  12.909  0.00  0.00    +0.000 C 
ATOM     12  C   UNL     1      47.751   9.785  11.756  0.00  0.00    +0.000 C 
ATOM     13  C   UNL     1      47.166  11.134  11.334  0.00  0.00    +0.000 C 
ATOM     14  N   UNL     1      49.180   9.975  12.108  0.00  0.00    +0.000 NA
ATOM     15  H   UNL     1      49.218  10.642  12.881  0.00  0.00    +0.000 HD
ENDBRANCH   1  10
BRANCH   5  16
ATOM     16  C   UNL     1      43.475   5.308  12.315  0.00  0.00    +0.000 C 
BRANCH  16  17
ATOM     17  C   UNL     1      43.291   4.256  11.211  0.00  0.00    +0.000 C 
BRANCH  17  18
ATOM     18  N   UNL     1      43.724   4.739   9.904  0.00  0.00    +0.000 N 
ATOM     19  C   UNL     1      44.681   4.000   9.210  0.00  0.00    +0.000 A 
ATOM     20  C   UNL     1      44.803   2.605   9.293  0.00  0.00    +0.000 A 
ATOM     21  N   UNL     1      45.705   1.860   8.602  0.00  0.00    +0.000 NA
ATOM     22  C   UNL     1      46.492   2.578   7.764  0.00  0.00    +0.000 A 
ATOM     23  C   UNL     1      46.382   3.957   7.648  0.00  0.00    +0.000 A 
ATOM     24  N   UNL     1      45.484   4.689   8.373  0.00  0.00    +0.000 NA
ATOM     25  H   UNL     1      43.976   5.726   9.832  0.00  0.00    +0.000 HD
BRANCH  22  26
ATOM     26  C   UNL     1      47.490   1.826   6.952  0.00  0.00    +0.000 C 
ATOM     27  N   UNL     1      48.581   2.532   6.516  0.00  0.00    +0.000 N 
ATOM     28  O   UNL     1      47.348   0.635   6.688  0.00  0.00    +0.000 OA
ATOM     29  H   UNL     1      48.687   3.514   6.742  0.00  0.00    +0.000 HD
ATOM     30  H   UNL     1      49.287   2.060   5.969  0.00  0.00    +0.000 HD
ENDBRANCH  22  26
ENDBRANCH  17  18
ENDBRANCH  16  17
ENDBRANCH   5  16
TORSDOF 5
ENDMDL
MODEL 2
REMARK VINA RESULT:    -8.408      1.060      1.603
REMARK INTER + INTRA:         -11.823
REMARK INTER:                 -11.024
REMARK INTRA:                  -0.799
REMARK UNBOUND:                -0.957
REMARK  Name = 
REMARK  7 active torsions:
REMARK  status: ('A' for Active; 'I' for Inactive)
REMARK    1  A    between atoms: C_1  and  C_2
REMARK    2  A    between atoms: N_4  and  C_5
REMARK    3  A    between atoms: C_9  and  C_10
REMARK    4  A    between atoms: C_10  and  C_11
REMARK    5  A    between atoms: C_11  and  N_12
REMARK    6  A    between atoms: C_16  and  C_17
REMARK    7  A    between atoms: C_24  and  C_25
REMARK                            x       y       z     vdW  Elec       q    Type
REMARK                         _______ _______ _______ _____ _____    ______ ____
ROOT
ATOM      1  C   UNL     1      47.071   6.680  13.020  0.00  0.00    +0.000 A 
ATOM      2  C   UNL     1      47.522   5.557  13.724  0.00  0.00    +0.000 A 
ATOM      3  C   UNL     1      46.714   4.433  13.910  0.00  0.00    +0.000 A 
ATOM      4  C   UNL     1      45.415   4.412  13.402  0.00  0.00    +0.000 A 
ATOM      5  C   UNL     1      44.923   5.508  12.695  0.00  0.00    +0.000 A 
ATOM      6  C   UNL     1      45.766   6.618  12.501  0.00  0.00    +0.000 A 
ENDROOT
BRANCH   1  10
ATOM      7  C   UNL     1      49.964   7.645  15.226  0.00  0.00    +0.000 C 
ATOM      8  C   UNL     1      49.582   8.841  14.348  0.00  0.00    +0.000 C 
ATOM      9  C   UNL     1      48.098   8.782  13.903  0.00  0.00    +0.000 C 
ATOM     10  N   UNL     1      47.887   7.782  12.850  0.00  0.00    +0.000 N 
ATOM     11  C   UNL     1      48.818   7.855  11.709  0.00  0.00    +0.000 C 
ATOM     12  C   UNL     1      50.292   7.931  12.199  0.00  0.00    +0.000 C 
ATOM     13  C   UNL     1      51.229   8.170  11.014  0.00  0.00    +0.000 C 
ATOM     14  N   UNL     1      50.523   8.993  13.209  0.00  0.00    +0.000 NA
ATOM     15  H   UNL     1      50.320   9.890  12.763  0.00  0.00    +0.000 HD
ENDBRANCH   1  10
BRANCH   5  16
ATOM     16  C   UNL     1      43.492   5.543  12.193  0.00  0.00    +0.000 C 
BRANCH  16  17
ATOM     17  C   UNL     1      43.249   4.472  11.120  0.00  0.00    +0.000 C 
BRANCH  17  18
ATOM     18  N   UNL     1      43.757   4.870   9.811  0.00  0.00    +0.000 N 
ATOM     19  C   UNL     1      44.664   4.027   9.171  0.00  0.00    +0.000 A 
ATOM     20  C   UNL     1      44.662   2.631   9.303  0.00  0.00    +0.000 A 
ATOM     21  N   UNL     1      45.513   1.786   8.664  0.00  0.00    +0.000 NA
ATOM     22  C   UNL     1      46.383   2.404   7.827  0.00  0.00    +0.000 A 
ATOM     23  C   UNL     1      46.398   3.782   7.664  0.00  0.00    +0.000 A 
ATOM     24  N   UNL     1      45.548   4.614   8.337  0.00  0.00    +0.000 NA
ATOM     25  H   UNL     1      44.097   5.828   9.715  0.00  0.00    +0.000 HD
BRANCH  22  26
ATOM     26  C   UNL     1      47.333   1.540   7.071  0.00  0.00    +0.000 C 
ATOM     27  N   UNL     1      48.437   2.159   6.544  0.00  0.00    +0.000 N 
ATOM     28  O   UNL     1      47.142   0.335   6.927  0.00  0.00    +0.000 OA
ATOM     29  H   UNL     1      48.584   3.153   6.672  0.00  0.00    +0.000 HD
ATOM     30  H   UNL     1      49.111   1.610   6.031  0.00  0.00    +0.000 HD
ENDBRANCH  22  26
ENDBRANCH  17  18
ENDBRANCH  16  17
ENDBRANCH   5  16
TORSDOF 5
ENDMDL
MODEL 3
REMARK VINA RESULT:    -7.691      1.742      3.071
REMARK INTER + INTRA:         -10.896
REMARK INTER:                 -10.022
REMARK INTRA:                  -0.874
REMARK UNBOUND:                -0.957
REMARK  Name = 
REMARK  7 active torsions:
REMARK  status: ('A' for Active; 'I' for Inactive)
REMARK    1  A    between atoms: C_1  and  C_2
REMARK    2  A    between atoms: N_4  and  C_5
REMARK    3  A    between atoms: C_9  and  C_10
REMARK    4  A    between atoms: C_10  and  C_11
REMARK    5  A    between atoms: C_11  and  N_12
REMARK    6  A    between atoms: C_16  and  C_17
REMARK    7  A    between atoms: C_24  and  C_25
REMARK                            x       y       z     vdW  Elec       q    Type
REMARK                         _______ _______ _______ _____ _____    ______ ____
ROOT
ATOM      1  C   UNL     1      46.578   6.467  12.895  0.00  0.00    +0.000 A 
ATOM      2  C   UNL     1      46.355   7.689  12.249  0.00  0.00    +0.000 A 
ATOM      3  C   UNL     1      45.121   8.000  11.671  0.00  0.00    +0.000 A 
ATOM      4  C   UNL     1      44.076   7.079  11.714  0.00  0.00    +0.000 A 
ATOM      5  C   UNL     1      44.252   5.849  12.346  0.00  0.00    +0.000 A 
ATOM      6  C   UNL     1      45.497   5.570  12.941  0.00  0.00    +0.000 A 
ENDROOT
BRANCH   1  10
ATOM      7  C   UNL     1      48.859   8.936  14.587  0.00  0.00    +0.000 C 
ATOM      8  C   UNL     1      49.647   7.661  14.272  0.00  0.00    +0.000 C 
ATOM      9  C   UNL     1      49.036   6.883  13.076  0.00  0.00    +0.000 C 
ATOM     10  N   UNL     1      47.807   6.180  13.459  0.00  0.00    +0.000 N 
ATOM     11  C   UNL     1      47.897   5.360  14.680  0.00  0.00    +0.000 C 
ATOM     12  C   UNL     1      48.530   6.170  15.847  0.00  0.00    +0.000 C 
ATOM     13  C   UNL     1      48.765   5.259  17.053  0.00  0.00    +0.000 C 
ATOM     14  N   UNL     1      49.814   6.820  15.485  0.00  0.00    +0.000 NA
ATOM     15  H   UNL     1      50.478   6.079  15.253  0.00  0.00    +0.000 HD
ENDBRANCH   1  10
BRANCH   5  16
ATOM     16  C   UNL     1      43.157   4.799  12.345  0.00  0.00    +0.000 C 
BRANCH  16  17
ATOM     17  C   UNL     1      43.052   4.101  10.981  0.00  0.00    +0.000 C 
BRANCH  17  18
ATOM     18  N   UNL     1      44.040   3.038  10.823  0.00  0.00    +0.000 N 
ATOM     19  C   UNL     1      44.803   3.015   9.656  0.00  0.00    +0.000 A 
ATOM     20  C   UNL     1      45.187   4.164   8.950  0.00  0.00    +0.000 A 
ATOM     21  N   UNL     1      45.958   4.169   7.831  0.00  0.00    +0.000 NA
ATOM     22  C   UNL     1      46.379   2.940   7.441  0.00  0.00    +0.000 A 
ATOM     23  C   UNL     1      46.028   1.788   8.130  0.00  0.00    +0.000 A 
ATOM     24  N   UNL     1      45.231   1.804   9.239  0.00  0.00    +0.000 NA
ATOM     25  H   UNL     1      43.732   2.084  11.016  0.00  0.00    +0.000 HD
BRANCH  22  26
ATOM     26  C   UNL     1      47.250   2.868   6.235  0.00  0.00    +0.000 C 
ATOM     27  N   UNL     1      48.578   2.608   6.453  0.00  0.00    +0.000 N 
ATOM     28  O   UNL     1      46.806   3.029   5.101  0.00  0.00    +0.000 OA
ATOM     29  H   UNL     1      48.932   2.475   7.394  0.00  0.00    +0.000 HD
ATOM     30  H   UNL     1      49.204   2.543   5.664  0.00  0.00    +0.000 HD
ENDBRANCH  22  26
ENDBRANCH  17  18
ENDBRANCH  16  17
ENDBRANCH   5  16
TORSDOF 5
ENDMDL
MODEL 4
REMARK VINA RESULT:    -7.495      1.186      1.986
REMARK INTER + INTRA:         -10.643
REMARK INTER:                 -10.326
REMARK INTRA:                  -0.316
REMARK UNBOUND:                -0.957
REMARK  Name = 
REMARK  7 active torsions:
REMARK  status: ('A' for Active; 'I' for Inactive)
REMARK    1  A    between atoms: C_1  and  C_2
REMARK    2  A    between atoms: N_4  and  C_5
REMARK    3  A    between atoms: C_9  and  C_10
REMARK    4  A    between atoms: C_10  and  C_11
REMARK    5  A    between atoms: C_11  and  N_12
REMARK    6  A    between atoms: C_16  and  C_17
REMARK    7  A    between atoms: C_24  and  C_25
REMARK                            x       y       z     vdW  Elec       q    Type
REMARK                         _______ _______ _______ _____ _____    ______ ____
ROOT
ATOM      1  C   UNL     1      46.854   7.420  12.700  0.00  0.00    +0.000 A 
ATOM      2  C   UNL     1      46.086   8.473  12.187  0.00  0.00    +0.000 A 
ATOM      3  C   UNL     1      44.802   8.264  11.675  0.00  0.00    +0.000 A 
ATOM      4  C   UNL     1      44.259   6.980  11.651  0.00  0.00    +0.000 A 
ATOM      5  C   UNL     1      44.988   5.901  12.150  0.00  0.00    +0.000 A 
ATOM      6  C   UNL     1      46.268   6.143  12.682  0.00  0.00    +0.000 A 
ENDROOT
BRANCH   1  10
ATOM      7  C   UNL     1      49.431   9.724  11.209  0.00  0.00    +0.000 C 
ATOM      8  C   UNL     1      50.113   8.794  12.218  0.00  0.00    +0.000 C 
ATOM      9  C   UNL     1      49.335   7.464  12.397  0.00  0.00    +0.000 C 
ATOM     10  N   UNL     1      48.122   7.650  13.200  0.00  0.00    +0.000 N 
ATOM     11  C   UNL     1      48.305   8.374  14.470  0.00  0.00    +0.000 C 
ATOM     12  C   UNL     1      49.104   9.690  14.249  0.00  0.00    +0.000 C 
ATOM     13  C   UNL     1      49.425  10.343  15.595  0.00  0.00    +0.000 C 
ATOM     14  N   UNL     1      50.371   9.492  13.503  0.00  0.00    +0.000 NA
ATOM     15  H   UNL     1      50.967   8.883  14.067  0.00  0.00    +0.000 HD
ENDBRANCH   1  10
BRANCH   5  16
ATOM     16  C   UNL     1      44.452   4.484  12.070  0.00  0.00    +0.000 C 
BRANCH  16  17
ATOM     17  C   UNL     1      43.274   4.386  11.090  0.00  0.00    +0.000 C 
BRANCH  17  18
ATOM     18  N   UNL     1      43.669   4.672   9.715  0.00  0.00    +0.000 N 
ATOM     19  C   UNL     1      44.619   3.846   9.115  0.00  0.00    +0.000 A 
ATOM     20  C   UNL     1      44.762   2.481   9.403  0.00  0.00    +0.000 A 
ATOM     21  N   UNL     1      45.657   1.649   8.809  0.00  0.00    +0.000 NA
ATOM     22  C   UNL     1      46.416   2.241   7.853  0.00  0.00    +0.000 A 
ATOM     23  C   UNL     1      46.285   3.585   7.536  0.00  0.00    +0.000 A 
ATOM     24  N   UNL     1      45.394   4.409   8.164  0.00  0.00    +0.000 NA
ATOM     25  H   UNL     1      43.907   5.639   9.490  0.00  0.00    +0.000 HD
BRANCH  22  26
ATOM     26  C   UNL     1      47.404   1.385   7.139  0.00  0.00    +0.000 C 
ATOM     27  N   UNL     1      48.524   2.013   6.659  0.00  0.00    +0.000 N 
ATOM     28  O   UNL     1      47.230   0.179   6.987  0.00  0.00    +0.000 OA
ATOM     29  H   UNL     1      48.656   3.009   6.792  0.00  0.00    +0.000 HD
ATOM     30  H   UNL     1      49.224   1.471   6.175  0.00  0.00    +0.000 HD
ENDBRANCH  22  26
ENDBRANCH  17  18
ENDBRANCH  16  17
ENDBRANCH   5  16
TORSDOF 5
ENDMDL
MODEL 5
REMARK VINA RESULT:    -7.335      3.155      7.474
REMARK INTER + INTRA:         -10.436
REMARK INTER:                  -9.948
REMARK INTRA:                  -0.488
REMARK UNBOUND:                -0.957
REMARK  Name = 
REMARK  7 active torsions:
REMARK  status: ('A' for Active; 'I' for Inactive)
REMARK    1  A    between atoms: C_1  and  C_2
REMARK    2  A    between atoms: N_4  and  C_5
REMARK    3  A    between atoms: C_9  and  C_10
REMARK    4  A    between atoms: C_10  and  C_11
REMARK    5  A    between atoms: C_11  and  N_12
REMARK    6  A    between atoms: C_16  and  C_17
REMARK    7  A    between atoms: C_24  and  C_25
REMARK                            x       y       z     vdW  Elec       q    Type
REMARK                         _______ _______ _______ _____ _____    ______ ____
ROOT
ATOM      1  C   UNL     1      44.379   3.410  10.172  0.00  0.00    +0.000 A 
ATOM      2  C   UNL     1      43.650   2.738  11.160  0.00  0.00    +0.000 A 
ATOM      3  C   UNL     1      43.467   3.279  12.435  0.00  0.00    +0.000 A 
ATOM      4  C   UNL     1      44.029   4.514  12.759  0.00  0.00    +0.000 A 
ATOM      5  C   UNL     1      44.763   5.220  11.807  0.00  0.00    +0.000 A 
ATOM      6  C   UNL     1      44.911   4.663  10.522  0.00  0.00    +0.000 A 
ENDROOT
BRANCH   1  10
ATOM      7  C   UNL     1      46.981   4.418   7.645  0.00  0.00    +0.000 C 
ATOM      8  C   UNL     1      45.902   3.582   6.948  0.00  0.00    +0.000 C 
ATOM      9  C   UNL     1      44.542   3.659   7.690  0.00  0.00    +0.000 C 
ATOM     10  N   UNL     1      44.548   2.855   8.917  0.00  0.00    +0.000 N 
ATOM     11  C   UNL     1      45.035   1.473   8.770  0.00  0.00    +0.000 C 
ATOM     12  C   UNL     1      46.390   1.440   8.007  0.00  0.00    +0.000 C 
ATOM     13  C   UNL     1      46.797  -0.007   7.721  0.00  0.00    +0.000 C 
ATOM     14  N   UNL     1      46.363   2.188   6.726  0.00  0.00    +0.000 NA
ATOM     15  H   UNL     1      45.678   1.733   6.119  0.00  0.00    +0.000 HD
ENDBRANCH   1  10
BRANCH   5  16
ATOM     16  C   UNL     1      45.446   6.530  12.151  0.00  0.00    +0.000 C 
BRANCH  16  17
ATOM     17  C   UNL     1      46.928   6.509  11.752  0.00  0.00    +0.000 C 
BRANCH  17  18
ATOM     18  N   UNL     1      47.815   6.707  12.894  0.00  0.00    +0.000 N 
ATOM     19  C   UNL     1      47.729   5.814  13.961  0.00  0.00    +0.000 A 
ATOM     20  C   UNL     1      47.388   4.460  13.821  0.00  0.00    +0.000 A 
ATOM     21  N   UNL     1      47.330   3.563  14.840  0.00  0.00    +0.000 NA
ATOM     22  C   UNL     1      47.669   4.073  16.049  0.00  0.00    +0.000 A 
ATOM     23  C   UNL     1      48.026   5.404  16.215  0.00  0.00    +0.000 A 
ATOM     24  N   UNL     1      48.054   6.295  15.179  0.00  0.00    +0.000 NA
ATOM     25  H   UNL     1      47.874   7.651  13.279  0.00  0.00    +0.000 HD
BRANCH  22  26
ATOM     26  C   UNL     1      47.653   3.142  17.212  0.00  0.00    +0.000 C 
ATOM     27  N   UNL     1      48.864   2.862  17.789  0.00  0.00    +0.000 N 
ATOM     28  O   UNL     1      46.611   2.651  17.637  0.00  0.00    +0.000 OA
ATOM     29  H   UNL     1      49.717   3.275  17.430  0.00  0.00    +0.000 HD
ATOM     30  H   UNL     1      48.900   2.241  18.585  0.00  0.00    +0.000 HD
ENDBRANCH  22  26
ENDBRANCH  17  18
ENDBRANCH  16  17
ENDBRANCH   5  16
TORSDOF 5
ENDMDL
MODEL 6
REMARK VINA RESULT:    -6.939      4.445      7.978
REMARK INTER + INTRA:          -9.924
REMARK INTER:                  -9.257
REMARK INTRA:                  -0.667
REMARK UNBOUND:                -0.957
REMARK  Name = 
REMARK  7 active torsions:
REMARK  status: ('A' for Active; 'I' for Inactive)
REMARK    1  A    between atoms: C_1  and  C_2
REMARK    2  A    between atoms: N_4  and  C_5
REMARK    3  A    between atoms: C_9  and  C_10
REMARK    4  A    between atoms: C_10  and  C_11
REMARK    5  A    between atoms: C_11  and  N_12
REMARK    6  A    between atoms: C_16  and  C_17
REMARK    7  A    between atoms: C_24  and  C_25
REMARK                            x       y       z     vdW  Elec       q    Type
REMARK                         _______ _______ _______ _____ _____    ______ ____
ROOT
ATOM      1  C   UNL     1      45.999   6.068  12.574  0.00  0.00    +0.000 A 
ATOM      2  C   UNL     1      45.410   7.328  12.412  0.00  0.00    +0.000 A 
ATOM      3  C   UNL     1      45.986   8.482  12.950  0.00  0.00    +0.000 A 
ATOM      4  C   UNL     1      47.170   8.399  13.682  0.00  0.00    +0.000 A 
ATOM      5  C   UNL     1      47.791   7.165  13.870  0.00  0.00    +0.000 A 
ATOM      6  C   UNL     1      47.203   6.021  13.297  0.00  0.00    +0.000 A 
ENDROOT
BRANCH   1  10
ATOM      7  C   UNL     1      42.336   5.632  11.824  0.00  0.00    +0.000 C 
ATOM      8  C   UNL     1      43.018   4.260  11.809  0.00  0.00    +0.000 C 
ATOM      9  C   UNL     1      44.298   4.239  12.685  0.00  0.00    +0.000 C 
ATOM     10  N   UNL     1      45.411   4.939  12.035  0.00  0.00    +0.000 N 
ATOM     11  C   UNL     1      45.676   4.553  10.638  0.00  0.00    +0.000 C 
ATOM     12  C   UNL     1      44.366   4.569   9.799  0.00  0.00    +0.000 C 
ATOM     13  C   UNL     1      44.630   4.010   8.400  0.00  0.00    +0.000 C 
ATOM     14  N   UNL     1      43.260   3.796  10.419  0.00  0.00    +0.000 NA
ATOM     15  H   UNL     1      43.559   2.821  10.470  0.00  0.00    +0.000 HD
ENDBRANCH   1  10
BRANCH   5  16
ATOM     16  C   UNL     1      49.039   7.033  14.722  0.00  0.00    +0.000 C 
BRANCH  16  17
ATOM     17  C   UNL     1      48.692   6.983  16.217  0.00  0.00    +0.000 C 
BRANCH  17  18
ATOM     18  N   UNL     1      48.232   5.664  16.638  0.00  0.00    +0.000 N 
ATOM     19  C   UNL     1      49.185   4.672  16.861  0.00  0.00    +0.000 A 
ATOM     20  C   UNL     1      50.480   4.924  17.335  0.00  0.00    +0.000 A 
ATOM     21  N   UNL     1      51.416   3.972  17.592  0.00  0.00    +0.000 NA
ATOM     22  C   UNL     1      50.987   2.703  17.382  0.00  0.00    +0.000 A 
ATOM     23  C   UNL     1      49.706   2.422  16.929  0.00  0.00    +0.000 A 
ATOM     24  N   UNL     1      48.790   3.398  16.653  0.00  0.00    +0.000 NA
ATOM     25  H   UNL     1      47.463   5.249  16.109  0.00  0.00    +0.000 HD
BRANCH  22  26
ATOM     26  C   UNL     1      51.949   1.601  17.666  0.00  0.00    +0.000 C 
ATOM     27  N   UNL     1      51.411   0.403  18.056  0.00  0.00    +0.000 N 
ATOM     28  O   UNL     1      53.163   1.754  17.555  0.00  0.00    +0.000 OA
ATOM     29  H   UNL     1      50.407   0.289  18.143  0.00  0.00    +0.000 HD
ATOM     30  H   UNL     1      52.026  -0.374  18.252  0.00  0.00    +0.000 HD
ENDBRANCH  22  26
ENDBRANCH  17  18
ENDBRANCH  16  17
ENDBRANCH   5  16
TORSDOF 5
ENDMDL
MODEL 7
REMARK VINA RESULT:    -6.928      3.853      6.278
REMARK INTER + INTRA:          -9.910
REMARK INTER:                  -8.990
REMARK INTRA:                  -0.920
REMARK UNBOUND:                -0.957
REMARK  Name = 
REMARK  7 active torsions:
REMARK  status: ('A' for Active; 'I' for Inactive)
REMARK    1  A    between atoms: C_1  and  C_2
REMARK    2  A    between atoms: N_4  and  C_5
REMARK    3  A    between atoms: C_9  and  C_10
REMARK    4  A    between atoms: C_10  and  C_11
REMARK    5  A    between atoms: C_11  and  N_12
REMARK    6  A    between atoms: C_16  and  C_17
REMARK    7  A    between atoms: C_24  and  C_25
REMARK                            x       y       z     vdW  Elec       q    Type
REMARK                         _______ _______ _______ _____ _____    ______ ____
ROOT
ATOM      1  C   UNL     1      49.076   6.118  16.414  0.00  0.00    +0.000 A 
ATOM      2  C   UNL     1      50.416   6.421  16.683  0.00  0.00    +0.000 A 
ATOM      3  C   UNL     1      51.181   7.205  15.815  0.00  0.00    +0.000 A 
ATOM      4  C   UNL     1      50.619   7.696  14.637  0.00  0.00    +0.000 A 
ATOM      5  C   UNL     1      49.288   7.419  14.327  0.00  0.00    +0.000 A 
ATOM      6  C   UNL     1      48.533   6.648  15.231  0.00  0.00    +0.000 A 
ENDROOT
BRANCH   1  10
ATOM      7  C   UNL     1      49.802   2.541  17.333  0.00  0.00    +0.000 C 
ATOM      8  C   UNL     1      48.371   2.887  17.758  0.00  0.00    +0.000 C 
ATOM      9  C   UNL     1      47.777   4.039  16.906  0.00  0.00    +0.000 C 
ATOM     10  N   UNL     1      48.339   5.340  17.287  0.00  0.00    +0.000 N 
ATOM     11  C   UNL     1      48.328   5.639  18.730  0.00  0.00    +0.000 C 
ATOM     12  C   UNL     1      48.914   4.453  19.548  0.00  0.00    +0.000 C 
ATOM     13  C   UNL     1      48.745   4.712  21.046  0.00  0.00    +0.000 C 
ATOM     14  N   UNL     1      48.293   3.146  19.218  0.00  0.00    +0.000 NA
ATOM     15  H   UNL     1      47.303   3.207  19.465  0.00  0.00    +0.000 HD
ENDBRANCH   1  10
BRANCH   5  16
ATOM     16  C   UNL     1      48.671   7.879  13.020  0.00  0.00    +0.000 C 
BRANCH  16  17
ATOM     17  C   UNL     1      47.213   8.321  13.215  0.00  0.00    +0.000 C 
BRANCH  17  18
ATOM     18  N   UNL     1      46.375   7.998  12.065  0.00  0.00    +0.000 N 
ATOM     19  C   UNL     1      45.814   6.723  11.993  0.00  0.00    +0.000 A 
ATOM     20  C   UNL     1      45.435   5.972  13.115  0.00  0.00    +0.000 A 
ATOM     21  N   UNL     1      44.856   4.743  13.070  0.00  0.00    +0.000 NA
ATOM     22  C   UNL     1      44.629   4.283  11.815  0.00  0.00    +0.000 A 
ATOM     23  C   UNL     1      44.978   5.011  10.687  0.00  0.00    +0.000 A 
ATOM     24  N   UNL     1      45.582   6.235  10.757  0.00  0.00    +0.000 NA
ATOM     25  H   UNL     1      46.742   8.232  11.141  0.00  0.00    +0.000 HD
BRANCH  22  26
ATOM     26  C   UNL     1      43.973   2.951  11.685  0.00  0.00    +0.000 C 
ATOM     27  N   UNL     1      44.110   2.316  10.478  0.00  0.00    +0.000 N 
ATOM     28  O   UNL     1      43.344   2.443  12.609  0.00  0.00    +0.000 OA
ATOM     29  H   UNL     1      44.634   2.745   9.723  0.00  0.00    +0.000 HD
ATOM     30  H   UNL     1      43.689   1.408  10.348  0.00  0.00    +0.000 HD
ENDBRANCH  22  26
ENDBRANCH  17  18
ENDBRANCH  16  17
ENDBRANCH   5  16
TORSDOF 5
ENDMDL
MODEL 8
REMARK VINA RESULT:    -6.911      3.423      7.737
REMARK INTER + INTRA:          -9.888
REMARK INTER:                  -9.166
REMARK INTRA:                  -0.723
REMARK UNBOUND:                -0.957
REMARK  Name = 
REMARK  7 active torsions:
REMARK  status: ('A' for Active; 'I' for Inactive)
REMARK    1  A    between atoms: C_1  and  C_2
REMARK    2  A    between atoms: N_4  and  C_5
REMARK    3  A    between atoms: C_9  and  C_10
REMARK    4  A    between atoms: C_10  and  C_11
REMARK    5  A    between atoms: C_11  and  N_12
REMARK    6  A    between atoms: C_16  and  C_17
REMARK    7  A    between atoms: C_24  and  C_25
REMARK                            x       y       z     vdW  Elec       q    Type
REMARK                         _______ _______ _______ _____ _____    ______ ____
ROOT
ATOM      1  C   UNL     1      45.920   6.644  11.892  0.00  0.00    +0.000 A 
ATOM      2  C   UNL     1      45.035   7.729  11.896  0.00  0.00    +0.000 A 
ATOM      3  C   UNL     1      45.474   9.034  12.134  0.00  0.00    +0.000 A 
ATOM      4  C   UNL     1      46.822   9.284  12.391  0.00  0.00    +0.000 A 
ATOM      5  C   UNL     1      47.739   8.234  12.397  0.00  0.00    +0.000 A 
ATOM      6  C   UNL     1      47.275   6.932  12.130  0.00  0.00    +0.000 A 
ENDROOT
BRANCH   1  10
ATOM      7  C   UNL     1      42.314   5.567  11.802  0.00  0.00    +0.000 C 
ATOM      8  C   UNL     1      43.205   4.327  11.922  0.00  0.00    +0.000 C 
ATOM      9  C   UNL     1      44.571   4.656  12.581  0.00  0.00    +0.000 C 
ATOM     10  N   UNL     1      45.463   5.361  11.655  0.00  0.00    +0.000 N 
ATOM     11  C   UNL     1      45.611   4.748  10.323  0.00  0.00    +0.000 C 
ATOM     12  C   UNL     1      44.222   4.418   9.707  0.00  0.00    +0.000 C 
ATOM     13  C   UNL     1      44.396   3.637   8.403  0.00  0.00    +0.000 C 
ATOM     14  N   UNL     1      43.345   3.637  10.614  0.00  0.00    +0.000 NA
ATOM     15  H   UNL     1      43.804   2.742  10.789  0.00  0.00    +0.000 HD
ENDBRANCH   1  10
BRANCH   5  16
ATOM     16  C   UNL     1      49.198   8.464  12.744  0.00  0.00    +0.000 C 
BRANCH  16  17
ATOM     17  C   UNL     1      49.396   8.611  14.260  0.00  0.00    +0.000 C 
BRANCH  17  18
ATOM     18  N   UNL     1      50.203   7.533  14.823  0.00  0.00    +0.000 N 
ATOM     19  C   UNL     1      49.561   6.553  15.579  0.00  0.00    +0.000 A 
ATOM     20  C   UNL     1      48.246   6.125  15.349  0.00  0.00    +0.000 A 
ATOM     21  N   UNL     1      47.610   5.149  16.050  0.00  0.00    +0.000 NA
ATOM     22  C   UNL     1      48.374   4.566  17.007  0.00  0.00    +0.000 A 
ATOM     23  C   UNL     1      49.684   4.958  17.245  0.00  0.00    +0.000 A 
ATOM     24  N   UNL     1      50.294   5.959  16.544  0.00  0.00    +0.000 NA
ATOM     25  H   UNL     1      51.058   7.799  15.314  0.00  0.00    +0.000 HD
BRANCH  22  26
ATOM     26  C   UNL     1      47.754   3.469  17.801  0.00  0.00    +0.000 C 
ATOM     27  N   UNL     1      48.418   3.084  18.937  0.00  0.00    +0.000 N 
ATOM     28  O   UNL     1      46.702   2.935  17.461  0.00  0.00    +0.000 OA
ATOM     29  H   UNL     1      49.286   3.533  19.207  0.00  0.00    +0.000 HD
ATOM     30  H   UNL     1      48.030   2.349  19.510  0.00  0.00    +0.000 HD
ENDBRANCH  22  26
ENDBRANCH  17  18
ENDBRANCH  16  17
ENDBRANCH   5  16
TORSDOF 5
ENDMDL
MODEL 9
REMARK VINA RESULT:    -6.621      3.904      6.429
REMARK INTER + INTRA:          -9.513
REMARK INTER:                  -8.542
REMARK INTRA:                  -0.971
REMARK UNBOUND:                -0.957
REMARK  Name = 
REMARK  7 active torsions:
REMARK  status: ('A' for Active; 'I' for Inactive)
REMARK    1  A    between atoms: C_1  and  C_2
REMARK    2  A    between atoms: N_4  and  C_5
REMARK    3  A    between atoms: C_9  and  C_10
REMARK    4  A    between atoms: C_10  and  C_11
REMARK    5  A    between atoms: C_11  and  N_12
REMARK    6  A    between atoms: C_16  and  C_17
REMARK    7  A    between atoms: C_24  and  C_25
REMARK                            x       y       z     vdW  Elec       q    Type
REMARK                         _______ _______ _______ _____ _____    ______ ____
ROOT
ATOM      1  C   UNL     1      48.824   6.980  17.428  0.00  0.00    +0.000 A 
ATOM      2  C   UNL     1      48.294   8.126  18.034  0.00  0.00    +0.000 A 
ATOM      3  C   UNL     1      48.072   9.302  17.312  0.00  0.00    +0.000 A 
ATOM      4  C   UNL     1      48.392   9.363  15.957  0.00  0.00    +0.000 A 
ATOM      5  C   UNL     1      48.923   8.247  15.312  0.00  0.00    +0.000 A 
ATOM      6  C   UNL     1      49.114   7.067  16.056  0.00  0.00    +0.000 A 
ENDROOT
BRANCH   1  10
ATOM      7  C   UNL     1      47.578   3.540  16.543  0.00  0.00    +0.000 C 
ATOM      8  C   UNL     1      48.017   3.552  18.011  0.00  0.00    +0.000 C 
ATOM      9  C   UNL     1      47.938   4.973  18.627  0.00  0.00    +0.000 C 
ATOM     10  N   UNL     1      49.036   5.827  18.162  0.00  0.00    +0.000 N 
ATOM     11  C   UNL     1      50.384   5.241  18.262  0.00  0.00    +0.000 C 
ATOM     12  C   UNL     1      50.415   3.812  17.649  0.00  0.00    +0.000 C 
ATOM     13  C   UNL     1      51.774   3.158  17.907  0.00  0.00    +0.000 C 
ATOM     14  N   UNL     1      49.352   2.922  18.177  0.00  0.00    +0.000 NA
ATOM     15  H   UNL     1      49.514   2.811  19.179  0.00  0.00    +0.000 HD
ENDBRANCH   1  10
BRANCH   5  16
ATOM     16  C   UNL     1      49.348   8.305  13.857  0.00  0.00    +0.000 C 
BRANCH  16  17
ATOM     17  C   UNL     1      48.949   7.026  13.106  0.00  0.00    +0.000 C 
BRANCH  17  18
ATOM     18  N   UNL     1      47.720   7.193  12.337  0.00  0.00    +0.000 N 
ATOM     19  C   UNL     1      46.838   6.116  12.259  0.00  0.00    +0.000 A 
ATOM     20  C   UNL     1      46.663   5.173  13.283  0.00  0.00    +0.000 A 
ATOM     21  N   UNL     1      45.786   4.136  13.245  0.00  0.00    +0.000 NA
ATOM     22  C   UNL     1      45.034   4.086  12.117  0.00  0.00    +0.000 A 
ATOM     23  C   UNL     1      45.174   5.015  11.096  0.00  0.00    +0.000 A 
ATOM     24  N   UNL     1      46.080   6.036  11.145  0.00  0.00    +0.000 NA
ATOM     25  H   UNL     1      47.807   7.596  11.403  0.00  0.00    +0.000 HD
BRANCH  22  26
ATOM     26  C   UNL     1      44.032   2.989  12.014  0.00  0.00    +0.000 C 
ATOM     27  N   UNL     1      43.861   2.431  10.773  0.00  0.00    +0.000 N 
ATOM     28  O   UNL     1      43.391   2.600  12.986  0.00  0.00    +0.000 OA
ATOM     29  H   UNL     1      44.397   2.760   9.979  0.00  0.00    +0.000 HD
ATOM     30  H   UNL     1      43.197   1.679  10.658  0.00  0.00    +0.000 HD
ENDBRANCH  22  26
ENDBRANCH  17  18
ENDBRANCH  16  17
ENDBRANCH   5  16
TORSDOF 5
ENDMDL
