MODEL 1
REMARK VINA RESULT:    -7.602      0.000      0.000
REMARK INTER + INTRA:          -9.711
REMARK INTER:                  -9.379
REMARK INTRA:                  -0.331
REMARK UNBOUND:                -0.331
REMARK  Name = 
REMARK  4 active torsions:
REMARK  status: ('A' for Active; 'I' for Inactive)
REMARK    1  A    between atoms: C_2  and  C_4
REMARK    2  A    between atoms: C_7  and  O_8
REMARK    3  A    between atoms: O_8  and  C_9
REMARK    4  A    between atoms: C_9  and  C_10
REMARK                            x       y       z     vdW  Elec       q    Type
REMARK                         _______ _______ _______ _____ _____    ______ ____
ROOT
ATOM      1  C   UNL     1      46.471   2.555   7.648  0.00  0.00    +0.000 A 
ATOM      2  C   UNL     1      46.351   3.926   7.632  0.00  0.00    +0.000 A 
ATOM      3  N   UNL     1      45.445   4.603   8.366  0.00  0.00    +0.000 NA
ATOM      4  C   UNL     1      44.630   3.858   9.135  0.00  0.00    +0.000 A 
ATOM      5  N   UNL     1      44.659   2.520   9.228  0.00  0.00    +0.000 NA
ATOM      6  C   UNL     1      45.578   1.892   8.461  0.00  0.00    +0.000 A 
ENDROOT
BRANCH   1   8
ATOM      7  N   UNL     1      48.542   2.508   6.385  0.00  0.00    +0.000 N 
ATOM      8  C   UNL     1      47.444   1.824   6.827  0.00  0.00    +0.000 C 
ATOM      9  O   UNL     1      47.284   0.639   6.569  0.00  0.00    +0.000 OA
ATOM     10  H   UNL     1      49.239   1.965   5.887  0.00  0.00    +0.000 HD
ATOM     11  H   UNL     1      48.843   3.393   6.767  0.00  0.00    +0.000 HD
ENDBRANCH   1   8
BRANCH   4  12
ATOM     12  O   UNL     1      43.701   4.487   9.930  0.00  0.00    +0.000 OA
BRANCH  12  13
ATOM     13  C   UNL     1      43.543   3.810  11.173  0.00  0.00    +0.000 C 
BRANCH  13  14
ATOM     14  C   UNL     1      44.658   4.212  12.097  0.00  0.00    +0.000 A 
ATOM     15  C   UNL     1      44.915   5.552  12.398  0.00  0.00    +0.000 A 
ATOM     16  C   UNL     1      45.970   5.877  13.245  0.00  0.00    +0.000 A 
ATOM     17  C   UNL     1      46.741   4.847  13.759  0.00  0.00    +0.000 A 
ATOM     18  N   UNL     1      46.531   3.542  13.485  0.00  0.00    +0.000 NA
ATOM     19  C   UNL     1      45.496   3.256  12.665  0.00  0.00    +0.000 A 
ENDBRANCH  13  14
ENDBRANCH  12  13
ENDBRANCH   4  12
TORSDOF 4
ENDMDL
MODEL 2
REMARK VINA RESULT:    -7.394      1.083      1.817
REMARK INTER + INTRA:          -9.454
REMARK INTER:                  -9.033
REMARK INTRA:                  -0.421
REMARK UNBOUND:                -0.331
REMARK  Name = 
REMARK  4 active torsions:
REMARK  status: ('A' for Active; 'I' for Inactive)
REMARK    1  A    between atoms: C_2  and  C_4
REMARK    2  A    between atoms: C_7  and  O_8
REMARK    3  A    between atoms: O_8  and  C_9
REMARK    4  A    between atoms: C_9  and  C_10
REMARK                            x       y       z     vdW  Elec       q    Type
REMARK                         _______ _______ _______ _____ _____    ______ ____
ROOT
ATOM      1  C   UNL     1      46.322   2.289   7.802  0.00  0.00    +0.000 A 
ATOM      2  C   UNL     1      45.418   1.778   8.705  0.00  0.00    +0.000 A 
ATOM      3  N   UNL     1      44.500   2.529   9.346  0.00  0.00    +0.000 NA
ATOM      4  C   UNL     1      44.509   3.845   9.062  0.00  0.00    +0.000 A 
ATOM      5  N   UNL     1      45.342   4.448   8.202  0.00  0.00    +0.000 NA
ATOM      6  C   UNL     1      46.250   3.649   7.597  0.00  0.00    +0.000 A 
ENDROOT
BRANCH   1   8
ATOM      7  N   UNL     1      48.418   2.109   6.594  0.00  0.00    +0.000 N 
ATOM      8  C   UNL     1      47.335   1.468   7.126  0.00  0.00    +0.000 C 
ATOM      9  O   UNL     1      47.219   0.252   7.064  0.00  0.00    +0.000 OA
ATOM     10  H   UNL     1      49.143   1.517   6.202  0.00  0.00    +0.000 HD
ATOM     11  H   UNL     1      48.683   3.055   6.830  0.00  0.00    +0.000 HD
ENDBRANCH   1   8
BRANCH   4  12
ATOM     12  O   UNL     1      43.580   4.663   9.662  0.00  0.00    +0.000 OA
BRANCH  12  13
ATOM     13  C   UNL     1      43.444   4.359  11.047  0.00  0.00    +0.000 C 
BRANCH  13  14
ATOM     14  C   UNL     1      44.546   5.038  11.810  0.00  0.00    +0.000 A 
ATOM     15  C   UNL     1      45.455   4.315  12.587  0.00  0.00    +0.000 A 
ATOM     16  C   UNL     1      46.448   4.989  13.290  0.00  0.00    +0.000 A 
ATOM     17  C   UNL     1      46.494   6.371  13.198  0.00  0.00    +0.000 A 
ATOM     18  N   UNL     1      45.630   7.106  12.467  0.00  0.00    +0.000 NA
ATOM     19  C   UNL     1      44.680   6.424  11.791  0.00  0.00    +0.000 A 
ENDBRANCH  13  14
ENDBRANCH  12  13
ENDBRANCH   4  12
TORSDOF 4
ENDMDL
MODEL 3
REMARK VINA RESULT:    -7.115      2.239      5.899
REMARK INTER + INTRA:          -9.110
REMARK INTER:                  -8.789
REMARK INTRA:                  -0.320
REMARK UNBOUND:                -0.331
REMARK  Name = 
REMARK  4 active torsions:
REMARK  status: ('A' for Active; 'I' for Inactive)
REMARK    1  A    between atoms: C_2  and  C_4
REMARK    2  A    between atoms: C_7  and  O_8
REMARK    3  A    between atoms: O_8  and  C_9
REMARK    4  A    between atoms: C_9  and  C_10
REMARK                            x       y       z     vdW  Elec       q    Type
REMARK                         _______ _______ _______ _____ _____    ______ ____
ROOT
ATOM      1  C   UNL     1      46.448   5.317  12.954  0.00  0.00    +0.000 A 
ATOM      2  C   UNL     1      45.976   4.032  13.095  0.00  0.00    +0.000 A 
ATOM      3  N   UNL     1      45.205   3.416  12.175  0.00  0.00    +0.000 NA
ATOM      4  C   UNL     1      44.900   4.137  11.080  0.00  0.00    +0.000 A 
ATOM      5  N   UNL     1      45.305   5.394  10.840  0.00  0.00    +0.000 NA
ATOM      6  C   UNL     1      46.065   5.966  11.801  0.00  0.00    +0.000 A 
ENDROOT
BRANCH   1   8
ATOM      7  N   UNL     1      47.245   7.355  14.001  0.00  0.00    +0.000 N 
ATOM      8  C   UNL     1      47.267   5.989  13.971  0.00  0.00    +0.000 C 
ATOM      9  O   UNL     1      47.926   5.343  14.774  0.00  0.00    +0.000 OA
ATOM     10  H   UNL     1      47.755   7.796  14.760  0.00  0.00    +0.000 HD
ATOM     11  H   UNL     1      46.543   7.916  13.539  0.00  0.00    +0.000 HD
ENDBRANCH   1   8
BRANCH   4  12
ATOM     12  O   UNL     1      44.140   3.559  10.091  0.00  0.00    +0.000 OA
BRANCH  12  13
ATOM     13  C   UNL     1      44.529   4.028   8.803  0.00  0.00    +0.000 C 
BRANCH  13  14
ATOM     14  C   UNL     1      45.534   3.076   8.216  0.00  0.00    +0.000 A 
ATOM     15  C   UNL     1      46.468   3.489   7.263  0.00  0.00    +0.000 A 
ATOM     16  C   UNL     1      47.366   2.567   6.735  0.00  0.00    +0.000 A 
ATOM     17  C   UNL     1      47.296   1.256   7.176  0.00  0.00    +0.000 A 
ATOM     18  N   UNL     1      46.403   0.816   8.088  0.00  0.00    +0.000 NA
ATOM     19  C   UNL     1      45.547   1.734   8.587  0.00  0.00    +0.000 A 
ENDBRANCH  13  14
ENDBRANCH  12  13
ENDBRANCH   4  12
TORSDOF 4
ENDMDL
MODEL 4
REMARK VINA RESULT:    -5.888      3.803      6.154
REMARK INTER + INTRA:          -7.596
REMARK INTER:                  -7.319
REMARK INTRA:                  -0.277
REMARK UNBOUND:                -0.331
REMARK  Name = 
REMARK  4 active torsions:
REMARK  status: ('A' for Active; 'I' for Inactive)
REMARK    1  A    between atoms: C_2  and  C_4
REMARK    2  A    between atoms: C_7  and  O_8
REMARK    3  A    between atoms: O_8  and  C_9
REMARK    4  A    between atoms: C_9  and  C_10
REMARK                            x       y       z     vdW  Elec       q    Type
REMARK                         _______ _______ _______ _____ _____    ______ ____
ROOT
ATOM      1  C   UNL     1      44.883   5.037  12.114  0.00  0.00    +0.000 A 
ATOM      2  C   UNL     1      45.604   5.722  13.065  0.00  0.00    +0.000 A 
ATOM      3  N   UNL     1      46.461   5.128  13.920  0.00  0.00    +0.000 NA
ATOM      4  C   UNL     1      46.580   3.792  13.806  0.00  0.00    +0.000 A 
ATOM      5  N   UNL     1      45.928   3.027  12.918  0.00  0.00    +0.000 NA
ATOM      6  C   UNL     1      45.072   3.673  12.094  0.00  0.00    +0.000 A 
ENDROOT
BRANCH   1   8
ATOM      7  N   UNL     1      43.761   7.039  11.325  0.00  0.00    +0.000 N 
ATOM      8  C   UNL     1      43.933   5.688  11.203  0.00  0.00    +0.000 C 
ATOM      9  O   UNL     1      43.336   5.044  10.351  0.00  0.00    +0.000 OA
ATOM     10  H   UNL     1      43.161   7.480  10.636  0.00  0.00    +0.000 HD
ATOM     11  H   UNL     1      44.397   7.642  11.827  0.00  0.00    +0.000 HD
ENDBRANCH   1   8
BRANCH   4  12
ATOM     12  O   UNL     1      47.458   3.127  14.630  0.00  0.00    +0.000 OA
BRANCH  12  13
ATOM     13  C   UNL     1      47.392   3.628  15.963  0.00  0.00    +0.000 C 
BRANCH  13  14
ATOM     14  C   UNL     1      48.725   3.431  16.628  0.00  0.00    +0.000 A 
ATOM     15  C   UNL     1      49.356   2.184  16.654  0.00  0.00    +0.000 A 
ATOM     16  C   UNL     1      50.581   2.046  17.297  0.00  0.00    +0.000 A 
ATOM     17  C   UNL     1      51.135   3.163  17.901  0.00  0.00    +0.000 A 
ATOM     18  N   UNL     1      50.554   4.382  17.906  0.00  0.00    +0.000 NA
ATOM     19  C   UNL     1      49.367   4.487  17.269  0.00  0.00    +0.000 A 
ENDBRANCH  13  14
ENDBRANCH  12  13
ENDBRANCH   4  12
TORSDOF 4
ENDMDL
MODEL 5
REMARK VINA RESULT:    -5.801      4.579      8.252
REMARK INTER + INTRA:          -7.489
REMARK INTER:                  -7.223
REMARK INTRA:                  -0.266
REMARK UNBOUND:                -0.331
REMARK  Name = 
REMARK  4 active torsions:
REMARK  status: ('A' for Active; 'I' for Inactive)
REMARK    1  A    between atoms: C_2  and  C_4
REMARK    2  A    between atoms: C_7  and  O_8
REMARK    3  A    between atoms: O_8  and  C_9
REMARK    4  A    between atoms: C_9  and  C_10
REMARK                            x       y       z     vdW  Elec       q    Type
REMARK                         _______ _______ _______ _____ _____    ______ ____
ROOT
ATOM      1  C   UNL     1      48.445   4.466  18.187  0.00  0.00    +0.000 A 
ATOM      2  C   UNL     1      48.802   5.164  17.055  0.00  0.00    +0.000 A 
ATOM      3  N   UNL     1      48.249   4.952  15.844  0.00  0.00    +0.000 NA
ATOM      4  C   UNL     1      47.307   3.992  15.783  0.00  0.00    +0.000 A 
ATOM      5  N   UNL     1      46.884   3.252  16.819  0.00  0.00    +0.000 NA
ATOM      6  C   UNL     1      47.481   3.499  18.007  0.00  0.00    +0.000 A 
ENDROOT
BRANCH   1   8
ATOM      7  N   UNL     1      48.579   3.982  20.560  0.00  0.00    +0.000 N 
ATOM      8  C   UNL     1      49.070   4.687  19.497  0.00  0.00    +0.000 C 
ATOM      9  O   UNL     1      50.010   5.459  19.623  0.00  0.00    +0.000 OA
ATOM     10  H   UNL     1      49.075   4.090  21.439  0.00  0.00    +0.000 HD
ATOM     11  H   UNL     1      47.988   3.167  20.469  0.00  0.00    +0.000 HD
ENDBRANCH   1   8
BRANCH   4  12
ATOM     12  O   UNL     1      46.684   3.743  14.583  0.00  0.00    +0.000 OA
BRANCH  12  13
ATOM     13  C   UNL     1      46.362   4.957  13.909  0.00  0.00    +0.000 C 
BRANCH  13  14
ATOM     14  C   UNL     1      45.176   4.724  13.017  0.00  0.00    +0.000 A 
ATOM     15  C   UNL     1      44.073   5.582  13.022  0.00  0.00    +0.000 A 
ATOM     16  C   UNL     1      42.989   5.316  12.192  0.00  0.00    +0.000 A 
ATOM     17  C   UNL     1      43.042   4.191  11.385  0.00  0.00    +0.000 A 
ATOM     18  N   UNL     1      44.083   3.333  11.357  0.00  0.00    +0.000 NA
ATOM     19  C   UNL     1      45.123   3.620  12.170  0.00  0.00    +0.000 A 
ENDBRANCH  13  14
ENDBRANCH  12  13
ENDBRANCH   4  12
TORSDOF 4
ENDMDL
MODEL 6
REMARK VINA RESULT:    -5.777      2.302      5.964
REMARK INTER + INTRA:          -7.459
REMARK INTER:                  -7.125
REMARK INTRA:                  -0.333
REMARK UNBOUND:                -0.331
REMARK  Name = 
REMARK  4 active torsions:
REMARK  status: ('A' for Active; 'I' for Inactive)
REMARK    1  A    between atoms: C_2  and  C_4
REMARK    2  A    between atoms: C_7  and  O_8
REMARK    3  A    between atoms: O_8  and  C_9
REMARK    4  A    between atoms: C_9  and  C_10
REMARK                            x       y       z     vdW  Elec       q    Type
REMARK                         _______ _______ _______ _____ _____    ______ ____
ROOT
ATOM      1  C   UNL     1      46.611   6.452  13.278  0.00  0.00    +0.000 A 
ATOM      2  C   UNL     1      45.356   6.655  12.751  0.00  0.00    +0.000 A 
ATOM      3  N   UNL     1      44.541   5.654  12.361  0.00  0.00    +0.000 NA
ATOM      4  C   UNL     1      45.025   4.406  12.506  0.00  0.00    +0.000 A 
ATOM      5  N   UNL     1      46.230   4.094  13.006  0.00  0.00    +0.000 NA
ATOM      6  C   UNL     1      47.010   5.137  13.369  0.00  0.00    +0.000 A 
ENDROOT
BRANCH   1   8
ATOM      7  N   UNL     1      48.738   7.219  14.158  0.00  0.00    +0.000 N 
ATOM      8  C   UNL     1      47.502   7.549  13.677  0.00  0.00    +0.000 C 
ATOM      9  O   UNL     1      47.154   8.716  13.561  0.00  0.00    +0.000 OA
ATOM     10  H   UNL     1      49.366   7.992  14.353  0.00  0.00    +0.000 HD
ATOM     11  H   UNL     1      49.161   6.308  14.041  0.00  0.00    +0.000 HD
ENDBRANCH   1   8
BRANCH   4  12
ATOM     12  O   UNL     1      44.234   3.338  12.153  0.00  0.00    +0.000 OA
BRANCH  12  13
ATOM     13  C   UNL     1      43.525   3.601  10.945  0.00  0.00    +0.000 C 
BRANCH  13  14
ATOM     14  C   UNL     1      44.439   3.364   9.777  0.00  0.00    +0.000 A 
ATOM     15  C   UNL     1      44.901   2.086   9.453  0.00  0.00    +0.000 A 
ATOM     16  C   UNL     1      45.761   1.918   8.372  0.00  0.00    +0.000 A 
ATOM     17  C   UNL     1      46.138   3.041   7.652  0.00  0.00    +0.000 A 
ATOM     18  N   UNL     1      45.721   4.293   7.939  0.00  0.00    +0.000 NA
ATOM     19  C   UNL     1      44.882   4.424   8.990  0.00  0.00    +0.000 A 
ENDBRANCH  13  14
ENDBRANCH  12  13
ENDBRANCH   4  12
TORSDOF 4
ENDMDL
MODEL 7
REMARK VINA RESULT:    -5.462      3.617      5.702
REMARK INTER + INTRA:          -7.070
REMARK INTER:                  -6.811
REMARK INTRA:                  -0.260
REMARK UNBOUND:                -0.331
REMARK  Name = 
REMARK  4 active torsions:
REMARK  status: ('A' for Active; 'I' for Inactive)
REMARK    1  A    between atoms: C_2  and  C_4
REMARK    2  A    between atoms: C_7  and  O_8
REMARK    3  A    between atoms: O_8  and  C_9
REMARK    4  A    between atoms: C_9  and  C_10
REMARK                            x       y       z     vdW  Elec       q    Type
REMARK                         _______ _______ _______ _____ _____    ______ ____
ROOT
ATOM      1  C   UNL     1      45.042   4.272  11.766  0.00  0.00    +0.000 A 
ATOM      2  C   UNL     1      45.425   5.544  12.126  0.00  0.00    +0.000 A 
ATOM      3  N   UNL     1      46.257   5.808  13.153  0.00  0.00    +0.000 NA
ATOM      4  C   UNL     1      46.709   4.741  13.839  0.00  0.00    +0.000 A 
ATOM      5  N   UNL     1      46.402   3.462  13.576  0.00  0.00    +0.000 NA
ATOM      6  C   UNL     1      45.553   3.256  12.543  0.00  0.00    +0.000 A 
ENDROOT
BRANCH   1   8
ATOM      7  N   UNL     1      44.147   4.831   9.581  0.00  0.00    +0.000 N 
ATOM      8  C   UNL     1      44.116   3.994  10.661  0.00  0.00    +0.000 C 
ATOM      9  O   UNL     1      43.359   3.033  10.702  0.00  0.00    +0.000 OA
ATOM     10  H   UNL     1      43.555   4.576   8.797  0.00  0.00    +0.000 HD
ATOM     11  H   UNL     1      44.905   5.472   9.389  0.00  0.00    +0.000 HD
ENDBRANCH   1   8
BRANCH   4  12
ATOM     12  O   UNL     1      47.583   4.939  14.882  0.00  0.00    +0.000 OA
BRANCH  12  13
ATOM     13  C   UNL     1      47.384   3.973  15.911  0.00  0.00    +0.000 C 
BRANCH  13  14
ATOM     14  C   UNL     1      47.964   4.497  17.195  0.00  0.00    +0.000 A 
ATOM     15  C   UNL     1      47.164   5.093  18.173  0.00  0.00    +0.000 A 
ATOM     16  C   UNL     1      47.748   5.579  19.337  0.00  0.00    +0.000 A 
ATOM     17  C   UNL     1      49.120   5.458  19.483  0.00  0.00    +0.000 A 
ATOM     18  N   UNL     1      49.929   4.898  18.559  0.00  0.00    +0.000 NA
ATOM     19  C   UNL     1      49.332   4.430  17.440  0.00  0.00    +0.000 A 
ENDBRANCH  13  14
ENDBRANCH  12  13
ENDBRANCH   4  12
TORSDOF 4
ENDMDL
MODEL 8
REMARK VINA RESULT:    -4.930      4.263      6.278
REMARK INTER + INTRA:          -6.414
REMARK INTER:                  -6.085
REMARK INTRA:                  -0.330
REMARK UNBOUND:                -0.331
REMARK  Name = 
REMARK  4 active torsions:
REMARK  status: ('A' for Active; 'I' for Inactive)
REMARK    1  A    between atoms: C_2  and  C_4
REMARK    2  A    between atoms: C_7  and  O_8
REMARK    3  A    between atoms: O_8  and  C_9
REMARK    4  A    between atoms: C_9  and  C_10
REMARK                            x       y       z     vdW  Elec       q    Type
REMARK                         _______ _______ _______ _____ _____    ______ ____
ROOT
ATOM      1  C   UNL     1      44.309   5.104  12.397  0.00  0.00    +0.000 A 
ATOM      2  C   UNL     1      44.916   3.956  12.852  0.00  0.00    +0.000 A 
ATOM      3  N   UNL     1      46.113   3.943  13.473  0.00  0.00    +0.000 NA
ATOM      4  C   UNL     1      46.712   5.138  13.629  0.00  0.00    +0.000 A 
ATOM      5  N   UNL     1      46.213   6.316  13.226  0.00  0.00    +0.000 NA
ATOM      6  C   UNL     1      45.016   6.269  12.597  0.00  0.00    +0.000 A 
ENDROOT
BRANCH   1   8
ATOM      7  N   UNL     1      42.255   6.239  11.780  0.00  0.00    +0.000 N 
ATOM      8  C   UNL     1      43.017   5.107  11.699  0.00  0.00    +0.000 C 
ATOM      9  O   UNL     1      42.650   4.136  11.052  0.00  0.00    +0.000 OA
ATOM     10  H   UNL     1      41.404   6.249  11.227  0.00  0.00    +0.000 HD
ATOM     11  H   UNL     1      42.612   7.136  12.081  0.00  0.00    +0.000 HD
ENDBRANCH   1   8
BRANCH   4  12
ATOM     12  O   UNL     1      47.922   5.199  14.279  0.00  0.00    +0.000 OA
BRANCH  12  13
ATOM     13  C   UNL     1      48.302   6.548  14.536  0.00  0.00    +0.000 C 
BRANCH  13  14
ATOM     14  C   UNL     1      48.702   6.680  15.978  0.00  0.00    +0.000 A 
ATOM     15  C   UNL     1      48.957   7.926  16.558  0.00  0.00    +0.000 A 
ATOM     16  C   UNL     1      49.341   7.997  17.893  0.00  0.00    +0.000 A 
ATOM     17  C   UNL     1      49.464   6.815  18.605  0.00  0.00    +0.000 A 
ATOM     18  N   UNL     1      49.236   5.593  18.079  0.00  0.00    +0.000 NA
ATOM     19  C   UNL     1      48.859   5.555  16.782  0.00  0.00    +0.000 A 
ENDBRANCH  13  14
ENDBRANCH  12  13
ENDBRANCH   4  12
TORSDOF 4
ENDMDL
MODEL 9
REMARK VINA RESULT:    -4.909      4.348      6.362
REMARK INTER + INTRA:          -6.388
REMARK INTER:                  -6.093
REMARK INTRA:                  -0.295
REMARK UNBOUND:                -0.331
REMARK  Name = 
REMARK  4 active torsions:
REMARK  status: ('A' for Active; 'I' for Inactive)
REMARK    1  A    between atoms: C_2  and  C_4
REMARK    2  A    between atoms: C_7  and  O_8
REMARK    3  A    between atoms: O_8  and  C_9
REMARK    4  A    between atoms: C_9  and  C_10
REMARK                            x       y       z     vdW  Elec       q    Type
REMARK                         _______ _______ _______ _____ _____    ______ ____
ROOT
ATOM      1  C   UNL     1      45.561   6.311  12.256  0.00  0.00    +0.000 A 
ATOM      2  C   UNL     1      46.111   7.464  12.769  0.00  0.00    +0.000 A 
ATOM      3  N   UNL     1      47.228   7.484  13.524  0.00  0.00    +0.000 NA
ATOM      4  C   UNL     1      47.798   6.289  13.770  0.00  0.00    +0.000 A 
ATOM      5  N   UNL     1      47.348   5.107  13.321  0.00  0.00    +0.000 NA
ATOM      6  C   UNL     1      46.218   5.145  12.580  0.00  0.00    +0.000 A 
ENDROOT
BRANCH   1   8
ATOM      7  N   UNL     1      43.690   7.486  11.253  0.00  0.00    +0.000 N 
ATOM      8  C   UNL     1      44.330   6.295  11.455  0.00  0.00    +0.000 C 
ATOM      9  O   UNL     1      43.909   5.254  10.970  0.00  0.00    +0.000 OA
ATOM     10  H   UNL     1      42.887   7.465  10.633  0.00  0.00    +0.000 HD
ATOM     11  H   UNL     1      44.118   8.388  11.412  0.00  0.00    +0.000 HD
ENDBRANCH   1   8
BRANCH   4  12
ATOM     12  O   UNL     1      48.955   6.241  14.511  0.00  0.00    +0.000 OA
BRANCH  12  13
ATOM     13  C   UNL     1      48.708   6.579  15.873  0.00  0.00    +0.000 C 
BRANCH  13  14
ATOM     14  C   UNL     1      48.660   5.319  16.691  0.00  0.00    +0.000 A 
ATOM     15  C   UNL     1      47.484   4.578  16.829  0.00  0.00    +0.000 A 
ATOM     16  C   UNL     1      47.484   3.428  17.611  0.00  0.00    +0.000 A 
ATOM     17  C   UNL     1      48.664   3.060  18.238  0.00  0.00    +0.000 A 
ATOM     18  N   UNL     1      49.817   3.753  18.137  0.00  0.00    +0.000 NA
ATOM     19  C   UNL     1      49.789   4.862  17.366  0.00  0.00    +0.000 A 
ENDBRANCH  13  14
ENDBRANCH  12  13
ENDBRANCH   4  12
TORSDOF 4
ENDMDL
