MODEL 1
REMARK VINA RESULT:    -8.392      0.000      0.000
REMARK INTER + INTRA:         -11.655
REMARK INTER:                 -10.845
REMARK INTRA:                  -0.810
REMARK UNBOUND:                -0.810
REMARK  Name = 
REMARK  5 active torsions:
REMARK  status: ('A' for Active; 'I' for Inactive)
REMARK    1  A    between atoms: C_2  and  C_4
REMARK    2  A    between atoms: C_7  and  N_8
REMARK    3  A    between atoms: N_8  and  C_9
REMARK    4  A    between atoms: C_9  and  C_10
REMARK    5  A    between atoms: C_14  and  N_15
REMARK                            x       y       z     vdW  Elec       q    Type
REMARK                         _______ _______ _______ _____ _____    ______ ____
ROOT
ATOM      1  N   UNL     1      43.806   4.789   9.887  0.00  0.00    +0.000 N 
ATOM      2  H   UNL     1      44.063   5.771   9.929  0.00  0.00    +0.000 HD
ENDROOT
BRANCH   1   6
ATOM      3  C   UNL     1      46.483   2.537   7.714  0.00  0.00    +0.000 A 
ATOM      4  C   UNL     1      46.494   3.921   7.629  0.00  0.00    +0.000 A 
ATOM      5  N   UNL     1      45.625   4.710   8.324  0.00  0.00    +0.000 NA
ATOM      6  C   UNL     1      44.731   4.075   9.112  0.00  0.00    +0.000 A 
ATOM      7  C   UNL     1      44.757   2.674   9.202  0.00  0.00    +0.000 A 
ATOM      8  N   UNL     1      45.608   1.869   8.511  0.00  0.00    +0.000 NA
BRANCH   3  10
ATOM      9  N   UNL     1      48.534   2.401   6.429  0.00  0.00    +0.000 N 
ATOM     10  C   UNL     1      47.437   1.729   6.906  0.00  0.00    +0.000 C 
ATOM     11  O   UNL     1      47.267   0.538   6.687  0.00  0.00    +0.000 OA
ATOM     12  H   UNL     1      49.223   1.908   5.878  0.00  0.00    +0.000 HD
ATOM     13  H   UNL     1      48.653   3.387   6.633  0.00  0.00    +0.000 HD
ENDBRANCH   3  10
ENDBRANCH   1   6
BRANCH   1  14
ATOM     14  C   UNL     1      43.555   4.260  11.227  0.00  0.00    +0.000 C 
BRANCH  14  15
ATOM     15  C   UNL     1      44.743   4.565  12.124  0.00  0.00    +0.000 A 
ATOM     16  C   UNL     1      45.504   3.511  12.650  0.00  0.00    +0.000 A 
ATOM     17  C   UNL     1      46.631   3.774  13.419  0.00  0.00    +0.000 A 
ATOM     18  C   UNL     1      47.023   5.094  13.642  0.00  0.00    +0.000 A 
ATOM     19  C   UNL     1      46.309   6.184  13.117  0.00  0.00    +0.000 A 
ATOM     20  C   UNL     1      45.147   5.893  12.383  0.00  0.00    +0.000 A 
BRANCH  19  21
ATOM     21  N   UNL     1      46.780   7.473  13.330  0.00  0.00    +0.000 N 
ATOM     22  C   UNL     1      45.947   8.663  13.163  0.00  0.00    +0.000 C 
ATOM     23  C   UNL     1      46.345   9.450  11.914  0.00  0.00    +0.000 C 
ATOM     24  C   UNL     1      47.848   9.720  11.870  0.00  0.00    +0.000 C 
ATOM     25  C   UNL     1      48.630   8.419  12.023  0.00  0.00    +0.000 C 
ATOM     26  C   UNL     1      48.233   7.690  13.306  0.00  0.00    +0.000 C 
ENDBRANCH  19  21
ENDBRANCH  14  15
ENDBRANCH   1  14
TORSDOF 5
ENDMDL
MODEL 2
REMARK VINA RESULT:    -7.749      1.212      2.249
REMARK INTER + INTRA:         -10.824
REMARK INTER:                 -10.008
REMARK INTRA:                  -0.816
REMARK UNBOUND:                -0.810
REMARK  Name = 
REMARK  5 active torsions:
REMARK  status: ('A' for Active; 'I' for Inactive)
REMARK    1  A    between atoms: C_2  and  C_4
REMARK    2  A    between atoms: C_7  and  N_8
REMARK    3  A    between atoms: N_8  and  C_9
REMARK    4  A    between atoms: C_9  and  C_10
REMARK    5  A    between atoms: C_14  and  N_15
REMARK                            x       y       z     vdW  Elec       q    Type
REMARK                         _______ _______ _______ _____ _____    ______ ____
ROOT
ATOM      1  N   UNL     1      43.769   4.765   9.896  0.00  0.00    +0.000 N 
ATOM      2  H   UNL     1      43.627   5.693   9.509  0.00  0.00    +0.000 HD
ENDROOT
BRANCH   1   6
ATOM      3  C   UNL     1      46.440   2.509   7.719  0.00  0.00    +0.000 A 
ATOM      4  C   UNL     1      46.371   3.882   7.543  0.00  0.00    +0.000 A 
ATOM      5  N   UNL     1      45.500   4.671   8.236  0.00  0.00    +0.000 NA
ATOM      6  C   UNL     1      44.687   4.047   9.115  0.00  0.00    +0.000 A 
ATOM      7  C   UNL     1      44.795   2.659   9.295  0.00  0.00    +0.000 A 
ATOM      8  N   UNL     1      45.648   1.852   8.608  0.00  0.00    +0.000 NA
BRANCH   3  10
ATOM      9  N   UNL     1      48.482   2.367   6.421  0.00  0.00    +0.000 N 
ATOM     10  C   UNL     1      47.390   1.696   6.910  0.00  0.00    +0.000 C 
ATOM     11  O   UNL     1      47.220   0.504   6.699  0.00  0.00    +0.000 OA
ATOM     12  H   UNL     1      49.169   1.872   5.869  0.00  0.00    +0.000 HD
ATOM     13  H   UNL     1      48.601   3.354   6.618  0.00  0.00    +0.000 HD
ENDBRANCH   3  10
ENDBRANCH   1   6
BRANCH   1  14
ATOM     14  C   UNL     1      44.069   4.836  11.325  0.00  0.00    +0.000 C 
BRANCH  14  15
ATOM     15  C   UNL     1      44.971   6.028  11.597  0.00  0.00    +0.000 A 
ATOM     16  C   UNL     1      44.466   7.328  11.449  0.00  0.00    +0.000 A 
ATOM     17  C   UNL     1      45.258   8.428  11.756  0.00  0.00    +0.000 A 
ATOM     18  C   UNL     1      46.552   8.236  12.242  0.00  0.00    +0.000 A 
ATOM     19  C   UNL     1      47.095   6.954  12.432  0.00  0.00    +0.000 A 
ATOM     20  C   UNL     1      46.292   5.859  12.070  0.00  0.00    +0.000 A 
BRANCH  19  21
ATOM     21  N   UNL     1      48.369   6.826  12.969  0.00  0.00    +0.000 N 
ATOM     22  C   UNL     1      48.623   6.734  14.406  0.00  0.00    +0.000 C 
ATOM     23  C   UNL     1      49.259   8.016  14.942  0.00  0.00    +0.000 C 
ATOM     24  C   UNL     1      50.471   8.436  14.113  0.00  0.00    +0.000 C 
ATOM     25  C   UNL     1      50.102   8.533  12.636  0.00  0.00    +0.000 C 
ATOM     26  C   UNL     1      49.512   7.216  12.133  0.00  0.00    +0.000 C 
ENDBRANCH  19  21
ENDBRANCH  14  15
ENDBRANCH   1  14
TORSDOF 5
ENDMDL
MODEL 3
REMARK VINA RESULT:    -7.428      4.429      8.134
REMARK INTER + INTRA:         -10.409
REMARK INTER:                  -9.761
REMARK INTRA:                  -0.648
REMARK UNBOUND:                -0.810
REMARK  Name = 
REMARK  5 active torsions:
REMARK  status: ('A' for Active; 'I' for Inactive)
REMARK    1  A    between atoms: C_2  and  C_4
REMARK    2  A    between atoms: C_7  and  N_8
REMARK    3  A    between atoms: N_8  and  C_9
REMARK    4  A    between atoms: C_9  and  C_10
REMARK    5  A    between atoms: C_14  and  N_15
REMARK                            x       y       z     vdW  Elec       q    Type
REMARK                         _______ _______ _______ _____ _____    ______ ____
ROOT
ATOM      1  N   UNL     1      47.068   3.305  14.315  0.00  0.00    +0.000 N 
ATOM      2  H   UNL     1      47.678   2.708  13.763  0.00  0.00    +0.000 HD
ENDROOT
BRANCH   1   6
ATOM      3  C   UNL     1      48.628   4.096  18.044  0.00  0.00    +0.000 A 
ATOM      4  C   UNL     1      48.848   2.871  17.433  0.00  0.00    +0.000 A 
ATOM      5  N   UNL     1      48.349   2.559  16.203  0.00  0.00    +0.000 NA
ATOM      6  C   UNL     1      47.612   3.511  15.591  0.00  0.00    +0.000 A 
ATOM      7  C   UNL     1      47.425   4.754  16.218  0.00  0.00    +0.000 A 
ATOM      8  N   UNL     1      47.905   5.081  17.448  0.00  0.00    +0.000 NA
BRANCH   3  10
ATOM      9  N   UNL     1      48.548   3.714  20.436  0.00  0.00    +0.000 N 
ATOM     10  C   UNL     1      49.173   4.365  19.402  0.00  0.00    +0.000 C 
ATOM     11  O   UNL     1      50.124   5.109  19.593  0.00  0.00    +0.000 OA
ATOM     12  H   UNL     1      48.874   3.850  21.383  0.00  0.00    +0.000 HD
ATOM     13  H   UNL     1      47.767   3.097  20.248  0.00  0.00    +0.000 HD
ENDBRANCH   3  10
ENDBRANCH   1   6
BRANCH   1  14
ATOM     14  C   UNL     1      46.714   4.515  13.572  0.00  0.00    +0.000 C 
BRANCH  14  15
ATOM     15  C   UNL     1      45.473   4.253  12.736  0.00  0.00    +0.000 A 
ATOM     16  C   UNL     1      44.213   4.616  13.233  0.00  0.00    +0.000 A 
ATOM     17  C   UNL     1      43.075   4.444  12.454  0.00  0.00    +0.000 A 
ATOM     18  C   UNL     1      43.192   3.935  11.161  0.00  0.00    +0.000 A 
ATOM     19  C   UNL     1      44.434   3.579  10.608  0.00  0.00    +0.000 A 
ATOM     20  C   UNL     1      45.564   3.718  11.432  0.00  0.00    +0.000 A 
BRANCH  19  21
ATOM     21  N   UNL     1      44.492   3.126   9.296  0.00  0.00    +0.000 N 
ATOM     22  C   UNL     1      44.730   1.727   8.945  0.00  0.00    +0.000 C 
ATOM     23  C   UNL     1      46.129   1.529   8.363  0.00  0.00    +0.000 C 
ATOM     24  C   UNL     1      46.417   2.521   7.236  0.00  0.00    +0.000 C 
ATOM     25  C   UNL     1      46.169   3.951   7.705  0.00  0.00    +0.000 C 
ATOM     26  C   UNL     1      44.746   4.112   8.237  0.00  0.00    +0.000 C 
ENDBRANCH  19  21
ENDBRANCH  14  15
ENDBRANCH   1  14
TORSDOF 5
ENDMDL
MODEL 4
REMARK VINA RESULT:    -7.001      3.596      7.432
REMARK INTER + INTRA:          -9.857
REMARK INTER:                  -9.332
REMARK INTRA:                  -0.524
REMARK UNBOUND:                -0.810
REMARK  Name = 
REMARK  5 active torsions:
REMARK  status: ('A' for Active; 'I' for Inactive)
REMARK    1  A    between atoms: C_2  and  C_4
REMARK    2  A    between atoms: C_7  and  N_8
REMARK    3  A    between atoms: N_8  and  C_9
REMARK    4  A    between atoms: C_9  and  C_10
REMARK    5  A    between atoms: C_14  and  N_15
REMARK                            x       y       z     vdW  Elec       q    Type
REMARK                         _______ _______ _______ _____ _____    ______ ____
ROOT
ATOM      1  N   UNL     1      47.278   6.139  12.910  0.00  0.00    +0.000 N 
ATOM      2  H   UNL     1      47.888   6.928  12.717  0.00  0.00    +0.000 HD
ENDROOT
BRANCH   1   6
ATOM      3  C   UNL     1      48.251   4.686  16.639  0.00  0.00    +0.000 A 
ATOM      4  C   UNL     1      47.594   3.883  15.720  0.00  0.00    +0.000 A 
ATOM      5  N   UNL     1      47.245   4.320  14.475  0.00  0.00    +0.000 NA
ATOM      6  C   UNL     1      47.569   5.595  14.169  0.00  0.00    +0.000 A 
ATOM      7  C   UNL     1      48.259   6.379  15.107  0.00  0.00    +0.000 A 
ATOM      8  N   UNL     1      48.607   5.968  16.356  0.00  0.00    +0.000 NA
BRANCH   3  10
ATOM      9  N   UNL     1      47.645   3.321  18.548  0.00  0.00    +0.000 N 
ATOM     10  C   UNL     1      48.577   4.163  17.994  0.00  0.00    +0.000 C 
ATOM     11  O   UNL     1      49.612   4.450  18.578  0.00  0.00    +0.000 OA
ATOM     12  H   UNL     1      47.810   2.926  19.464  0.00  0.00    +0.000 HD
ATOM     13  H   UNL     1      46.800   3.094  18.038  0.00  0.00    +0.000 HD
ENDBRANCH   3  10
ENDBRANCH   1   6
BRANCH   1  14
ATOM     14  C   UNL     1      45.878   6.495  12.681  0.00  0.00    +0.000 C 
BRANCH  14  15
ATOM     15  C   UNL     1      45.108   5.267  12.225  0.00  0.00    +0.000 A 
ATOM     16  C   UNL     1      44.155   4.691  13.077  0.00  0.00    +0.000 A 
ATOM     17  C   UNL     1      43.396   3.608  12.650  0.00  0.00    +0.000 A 
ATOM     18  C   UNL     1      43.565   3.111  11.357  0.00  0.00    +0.000 A 
ATOM     19  C   UNL     1      44.489   3.668  10.458  0.00  0.00    +0.000 A 
ATOM     20  C   UNL     1      45.277   4.733  10.928  0.00  0.00    +0.000 A 
BRANCH  19  21
ATOM     21  N   UNL     1      44.573   3.164   9.167  0.00  0.00    +0.000 N 
ATOM     22  C   UNL     1      44.764   1.743   8.878  0.00  0.00    +0.000 C 
ATOM     23  C   UNL     1      46.173   1.466   8.354  0.00  0.00    +0.000 C 
ATOM     24  C   UNL     1      46.542   2.400   7.202  0.00  0.00    +0.000 C 
ATOM     25  C   UNL     1      46.339   3.856   7.608  0.00  0.00    +0.000 C 
ATOM     26  C   UNL     1      44.906   4.096   8.082  0.00  0.00    +0.000 C 
ENDBRANCH  19  21
ENDBRANCH  14  15
ENDBRANCH   1  14
TORSDOF 5
ENDMDL
MODEL 5
REMARK VINA RESULT:    -6.649      2.901      6.563
REMARK INTER + INTRA:          -9.402
REMARK INTER:                  -8.591
REMARK INTRA:                  -0.811
REMARK UNBOUND:                -0.810
REMARK  Name = 
REMARK  5 active torsions:
REMARK  status: ('A' for Active; 'I' for Inactive)
REMARK    1  A    between atoms: C_2  and  C_4
REMARK    2  A    between atoms: C_7  and  N_8
REMARK    3  A    between atoms: N_8  and  C_9
REMARK    4  A    between atoms: C_9  and  C_10
REMARK    5  A    between atoms: C_14  and  N_15
REMARK                            x       y       z     vdW  Elec       q    Type
REMARK                         _______ _______ _______ _____ _____    ______ ____
ROOT
ATOM      1  N   UNL     1      44.931   7.428  12.843  0.00  0.00    +0.000 N 
ATOM      2  H   UNL     1      44.758   6.743  13.573  0.00  0.00    +0.000 HD
ENDROOT
BRANCH   1   6
ATOM      3  C   UNL     1      49.008   7.889  12.485  0.00  0.00    +0.000 A 
ATOM      4  C   UNL     1      48.156   8.961  12.266  0.00  0.00    +0.000 A 
ATOM      5  N   UNL     1      46.800   8.857  12.366  0.00  0.00    +0.000 NA
ATOM      6  C   UNL     1      46.309   7.642  12.691  0.00  0.00    +0.000 A 
ATOM      7  C   UNL     1      47.194   6.579  12.935  0.00  0.00    +0.000 A 
ATOM      8  N   UNL     1      48.548   6.657  12.830  0.00  0.00    +0.000 NA
BRANCH   3  10
ATOM      9  N   UNL     1      51.051   7.366  11.291  0.00  0.00    +0.000 N 
ATOM     10  C   UNL     1      50.479   8.057  12.329  0.00  0.00    +0.000 C 
ATOM     11  O   UNL     1      51.141   8.771  13.068  0.00  0.00    +0.000 OA
ATOM     12  H   UNL     1      52.046   7.442  11.127  0.00  0.00    +0.000 HD
ATOM     13  H   UNL     1      50.477   6.787  10.689  0.00  0.00    +0.000 HD
ENDBRANCH   3  10
ENDBRANCH   1   6
BRANCH   1  14
ATOM     14  C   UNL     1      44.204   7.082  11.622  0.00  0.00    +0.000 C 
BRANCH  14  15
ATOM     15  C   UNL     1      44.161   5.571  11.466  0.00  0.00    +0.000 A 
ATOM     16  C   UNL     1      43.740   4.775  12.541  0.00  0.00    +0.000 A 
ATOM     17  C   UNL     1      43.632   3.397  12.394  0.00  0.00    +0.000 A 
ATOM     18  C   UNL     1      43.916   2.808  11.161  0.00  0.00    +0.000 A 
ATOM     19  C   UNL     1      44.317   3.565  10.047  0.00  0.00    +0.000 A 
ATOM     20  C   UNL     1      44.463   4.950  10.234  0.00  0.00    +0.000 A 
BRANCH  19  21
ATOM     21  N   UNL     1      44.534   2.928   8.832  0.00  0.00    +0.000 N 
ATOM     22  C   UNL     1      44.856   1.505   8.725  0.00  0.00    +0.000 C 
ATOM     23  C   UNL     1      46.316   1.294   8.327  0.00  0.00    +0.000 C 
ATOM     24  C   UNL     1      46.693   2.121   7.099  0.00  0.00    +0.000 C 
ATOM     25  C   UNL     1      46.347   3.591   7.316  0.00  0.00    +0.000 C 
ATOM     26  C   UNL     1      44.870   3.758   7.668  0.00  0.00    +0.000 C 
ENDBRANCH  19  21
ENDBRANCH  14  15
ENDBRANCH   1  14
TORSDOF 5
ENDMDL
MODEL 6
REMARK VINA RESULT:    -6.456      3.317      5.808
REMARK INTER + INTRA:          -9.153
REMARK INTER:                  -8.408
REMARK INTRA:                  -0.745
REMARK UNBOUND:                -0.810
REMARK  Name = 
REMARK  5 active torsions:
REMARK  status: ('A' for Active; 'I' for Inactive)
REMARK    1  A    between atoms: C_2  and  C_4
REMARK    2  A    between atoms: C_7  and  N_8
REMARK    3  A    between atoms: N_8  and  C_9
REMARK    4  A    between atoms: C_9  and  C_10
REMARK    5  A    between atoms: C_14  and  N_15
REMARK                            x       y       z     vdW  Elec       q    Type
REMARK                         _______ _______ _______ _____ _____    ______ ____
ROOT
ATOM      1  N   UNL     1      46.541   7.216  13.417  0.00  0.00    +0.000 N 
ATOM      2  H   UNL     1      45.965   8.051  13.374  0.00  0.00    +0.000 HD
ENDROOT
BRANCH   1   6
ATOM      3  C   UNL     1      44.681   3.966  11.703  0.00  0.00    +0.000 A 
ATOM      4  C   UNL     1      45.025   5.067  10.934  0.00  0.00    +0.000 A 
ATOM      5  N   UNL     1      45.637   6.168  11.456  0.00  0.00    +0.000 NA
ATOM      6  C   UNL     1      45.896   6.145  12.781  0.00  0.00    +0.000 A 
ATOM      7  C   UNL     1      45.562   5.008  13.534  0.00  0.00    +0.000 A 
ATOM      8  N   UNL     1      44.942   3.904  13.036  0.00  0.00    +0.000 NA
BRANCH   3  10
ATOM      9  N   UNL     1      44.623   2.232  10.010  0.00  0.00    +0.000 N 
ATOM     10  C   UNL     1      43.985   2.805  11.082  0.00  0.00    +0.000 C 
ATOM     11  O   UNL     1      42.920   2.377  11.500  0.00  0.00    +0.000 OA
ATOM     12  H   UNL     1      44.206   1.437   9.547  0.00  0.00    +0.000 HD
ATOM     13  H   UNL     1      45.509   2.604   9.690  0.00  0.00    +0.000 HD
ENDBRANCH   3  10
ENDBRANCH   1   6
BRANCH   1  14
ATOM     14  C   UNL     1      47.902   7.499  12.962  0.00  0.00    +0.000 C 
BRANCH  14  15
ATOM     15  C   UNL     1      48.886   7.197  14.080  0.00  0.00    +0.000 A 
ATOM     16  C   UNL     1      50.091   7.909  14.154  0.00  0.00    +0.000 A 
ATOM     17  C   UNL     1      50.971   7.691  15.207  0.00  0.00    +0.000 A 
ATOM     18  C   UNL     1      50.639   6.780  16.210  0.00  0.00    +0.000 A 
ATOM     19  C   UNL     1      49.433   6.060  16.194  0.00  0.00    +0.000 A 
ATOM     20  C   UNL     1      48.581   6.263  15.095  0.00  0.00    +0.000 A 
BRANCH  19  21
ATOM     21  N   UNL     1      49.135   5.206  17.248  0.00  0.00    +0.000 N 
ATOM     22  C   UNL     1      49.997   4.091  17.639  0.00  0.00    +0.000 C 
ATOM     23  C   UNL     1      49.375   2.747  17.262  0.00  0.00    +0.000 C 
ATOM     24  C   UNL     1      47.933   2.634  17.754  0.00  0.00    +0.000 C 
ATOM     25  C   UNL     1      47.107   3.822  17.273  0.00  0.00    +0.000 C 
ATOM     26  C   UNL     1      47.742   5.141  17.711  0.00  0.00    +0.000 C 
ENDBRANCH  19  21
ENDBRANCH  14  15
ENDBRANCH   1  14
TORSDOF 5
ENDMDL
MODEL 7
REMARK VINA RESULT:    -6.276      4.454      6.165
REMARK INTER + INTRA:          -8.921
REMARK INTER:                  -8.190
REMARK INTRA:                  -0.730
REMARK UNBOUND:                -0.810
REMARK  Name = 
REMARK  5 active torsions:
REMARK  status: ('A' for Active; 'I' for Inactive)
REMARK    1  A    between atoms: C_2  and  C_4
REMARK    2  A    between atoms: C_7  and  N_8
REMARK    3  A    between atoms: N_8  and  C_9
REMARK    4  A    between atoms: C_9  and  C_10
REMARK    5  A    between atoms: C_14  and  N_15
REMARK                            x       y       z     vdW  Elec       q    Type
REMARK                         _______ _______ _______ _____ _____    ______ ____
ROOT
ATOM      1  N   UNL     1      47.204   5.032  15.141  0.00  0.00    +0.000 N 
ATOM      2  H   UNL     1      48.179   5.167  14.891  0.00  0.00    +0.000 HD
ENDROOT
BRANCH   1   6
ATOM      3  C   UNL     1      44.920   4.199  11.817  0.00  0.00    +0.000 A 
ATOM      4  C   UNL     1      45.559   3.180  12.506  0.00  0.00    +0.000 A 
ATOM      5  N   UNL     1      46.330   3.405  13.608  0.00  0.00    +0.000 NA
ATOM      6  C   UNL     1      46.453   4.690  14.007  0.00  0.00    +0.000 A 
ATOM      7  C   UNL     1      45.774   5.701  13.309  0.00  0.00    +0.000 A 
ATOM      8  N   UNL     1      45.009   5.500  12.202  0.00  0.00    +0.000 NA
BRANCH   3  10
ATOM      9  N   UNL     1      43.821   4.965   9.797  0.00  0.00    +0.000 N 
ATOM     10  C   UNL     1      44.117   3.893  10.601  0.00  0.00    +0.000 C 
ATOM     11  O   UNL     1      43.750   2.761  10.324  0.00  0.00    +0.000 OA
ATOM     12  H   UNL     1      43.284   4.824   8.952  0.00  0.00    +0.000 HD
ATOM     13  H   UNL     1      44.146   5.892  10.047  0.00  0.00    +0.000 HD
ENDBRANCH   3  10
ENDBRANCH   1   6
BRANCH   1  14
ATOM     14  C   UNL     1      47.080   4.127  16.283  0.00  0.00    +0.000 C 
BRANCH  14  15
ATOM     15  C   UNL     1      48.463   3.753  16.788  0.00  0.00    +0.000 A 
ATOM     16  C   UNL     1      48.886   2.417  16.728  0.00  0.00    +0.000 A 
ATOM     17  C   UNL     1      50.171   2.069  17.125  0.00  0.00    +0.000 A 
ATOM     18  C   UNL     1      51.054   3.059  17.557  0.00  0.00    +0.000 A 
ATOM     19  C   UNL     1      50.688   4.414  17.611  0.00  0.00    +0.000 A 
ATOM     20  C   UNL     1      49.368   4.735  17.250  0.00  0.00    +0.000 A 
BRANCH  19  21
ATOM     21  N   UNL     1      51.628   5.359  17.999  0.00  0.00    +0.000 N 
ATOM     22  C   UNL     1      51.268   6.699  18.461  0.00  0.00    +0.000 C 
ATOM     23  C   UNL     1      51.624   7.761  17.421  0.00  0.00    +0.000 C 
ATOM     24  C   UNL     1      53.069   7.625  16.946  0.00  0.00    +0.000 C 
ATOM     25  C   UNL     1      53.341   6.206  16.457  0.00  0.00    +0.000 C 
ATOM     26  C   UNL     1      53.013   5.182  17.544  0.00  0.00    +0.000 C 
ENDBRANCH  19  21
ENDBRANCH  14  15
ENDBRANCH   1  14
TORSDOF 5
ENDMDL
MODEL 8
REMARK VINA RESULT:    -6.201      4.216      5.624
REMARK INTER + INTRA:          -8.824
REMARK INTER:                  -8.139
REMARK INTRA:                  -0.685
REMARK UNBOUND:                -0.810
REMARK  Name = 
REMARK  5 active torsions:
REMARK  status: ('A' for Active; 'I' for Inactive)
REMARK    1  A    between atoms: C_2  and  C_4
REMARK    2  A    between atoms: C_7  and  N_8
REMARK    3  A    between atoms: N_8  and  C_9
REMARK    4  A    between atoms: C_9  and  C_10
REMARK    5  A    between atoms: C_14  and  N_15
REMARK                            x       y       z     vdW  Elec       q    Type
REMARK                         _______ _______ _______ _____ _____    ______ ____
ROOT
ATOM      1  N   UNL     1      46.169   5.579  13.989  0.00  0.00    +0.000 N 
ATOM      2  H   UNL     1      45.877   6.552  13.983  0.00  0.00    +0.000 HD
ENDROOT
BRANCH   1   6
ATOM      3  C   UNL     1      44.936   3.862  10.455  0.00  0.00    +0.000 A 
ATOM      4  C   UNL     1      44.890   3.144  11.641  0.00  0.00    +0.000 A 
ATOM      5  N   UNL     1      45.292   3.667  12.835  0.00  0.00    +0.000 NA
ATOM      6  C   UNL     1      45.750   4.937  12.815  0.00  0.00    +0.000 A 
ATOM      7  C   UNL     1      45.761   5.652  11.607  0.00  0.00    +0.000 A 
ATOM      8  N   UNL     1      45.375   5.147  10.404  0.00  0.00    +0.000 NA
BRANCH   3  10
ATOM      9  N   UNL     1      44.225   4.088   8.149  0.00  0.00    +0.000 N 
ATOM     10  C   UNL     1      44.513   3.226   9.177  0.00  0.00    +0.000 C 
ATOM     11  O   UNL     1      44.434   2.014   9.041  0.00  0.00    +0.000 OA
ATOM     12  H   UNL     1      43.938   3.720   7.253  0.00  0.00    +0.000 HD
ATOM     13  H   UNL     1      44.307   5.088   8.288  0.00  0.00    +0.000 HD
ENDBRANCH   3  10
ENDBRANCH   1   6
BRANCH   1  14
ATOM     14  C   UNL     1      47.593   5.465  14.304  0.00  0.00    +0.000 C 
BRANCH  14  15
ATOM     15  C   UNL     1      47.763   4.803  15.660  0.00  0.00    +0.000 A 
ATOM     16  C   UNL     1      47.665   3.408  15.768  0.00  0.00    +0.000 A 
ATOM     17  C   UNL     1      47.884   2.782  16.989  0.00  0.00    +0.000 A 
ATOM     18  C   UNL     1      48.231   3.543  18.106  0.00  0.00    +0.000 A 
ATOM     19  C   UNL     1      48.366   4.940  18.043  0.00  0.00    +0.000 A 
ATOM     20  C   UNL     1      48.095   5.555  16.809  0.00  0.00    +0.000 A 
BRANCH  19  21
ATOM     21  N   UNL     1      48.766   5.638  19.176  0.00  0.00    +0.000 N 
ATOM     22  C   UNL     1      48.399   5.232  20.532  0.00  0.00    +0.000 C 
ATOM     23  C   UNL     1      47.366   6.182  21.138  0.00  0.00    +0.000 C 
ATOM     24  C   UNL     1      47.797   7.642  21.010  0.00  0.00    +0.000 C 
ATOM     25  C   UNL     1      48.130   7.977  19.560  0.00  0.00    +0.000 C 
ATOM     26  C   UNL     1      49.198   7.032  19.011  0.00  0.00    +0.000 C 
ENDBRANCH  19  21
ENDBRANCH  14  15
ENDBRANCH   1  14
TORSDOF 5
ENDMDL
MODEL 9
REMARK VINA RESULT:    -6.095      3.757      6.409
REMARK INTER + INTRA:          -8.686
REMARK INTER:                  -7.868
REMARK INTRA:                  -0.818
REMARK UNBOUND:                -0.810
REMARK  Name = 
REMARK  5 active torsions:
REMARK  status: ('A' for Active; 'I' for Inactive)
REMARK    1  A    between atoms: C_2  and  C_4
REMARK    2  A    between atoms: C_7  and  N_8
REMARK    3  A    between atoms: N_8  and  C_9
REMARK    4  A    between atoms: C_9  and  C_10
REMARK    5  A    between atoms: C_14  and  N_15
REMARK                            x       y       z     vdW  Elec       q    Type
REMARK                         _______ _______ _______ _____ _____    ______ ____
ROOT
ATOM      1  N   UNL     1      48.359   6.489  12.963  0.00  0.00    +0.000 N 
ATOM      2  H   UNL     1      48.721   5.786  13.601  0.00  0.00    +0.000 HD
ENDROOT
BRANCH   1   6
ATOM      3  C   UNL     1      44.498   5.437  11.992  0.00  0.00    +0.000 A 
ATOM      4  C   UNL     1      45.095   6.542  11.406  0.00  0.00    +0.000 A 
ATOM      5  N   UNL     1      46.368   6.934  11.699  0.00  0.00    +0.000 NA
ATOM      6  C   UNL     1      47.037   6.189  12.605  0.00  0.00    +0.000 A 
ATOM      7  C   UNL     1      46.420   5.058  13.164  0.00  0.00    +0.000 A 
ATOM      8  N   UNL     1      45.149   4.656  12.895  0.00  0.00    +0.000 NA
BRANCH   3  10
ATOM      9  N   UNL     1      42.181   6.101  11.729  0.00  0.00    +0.000 N 
ATOM     10  C   UNL     1      43.093   5.078  11.656  0.00  0.00    +0.000 C 
ATOM     11  O   UNL     1      42.765   3.948  11.324  0.00  0.00    +0.000 OA
ATOM     12  H   UNL     1      41.211   5.924  11.507  0.00  0.00    +0.000 HD
ATOM     13  H   UNL     1      42.483   7.030  11.999  0.00  0.00    +0.000 HD
ENDBRANCH   3  10
ENDBRANCH   1   6
BRANCH   1  14
ATOM     14  C   UNL     1      48.585   7.835  13.489  0.00  0.00    +0.000 C 
BRANCH  14  15
ATOM     15  C   UNL     1      48.635   7.787  15.007  0.00  0.00    +0.000 A 
ATOM     16  C   UNL     1      48.446   8.964  15.745  0.00  0.00    +0.000 A 
ATOM     17  C   UNL     1      48.423   8.926  17.133  0.00  0.00    +0.000 A 
ATOM     18  C   UNL     1      48.558   7.705  17.795  0.00  0.00    +0.000 A 
ATOM     19  C   UNL     1      48.724   6.494  17.100  0.00  0.00    +0.000 A 
ATOM     20  C   UNL     1      48.791   6.565  15.699  0.00  0.00    +0.000 A 
BRANCH  19  21
ATOM     21  N   UNL     1      48.800   5.305  17.813  0.00  0.00    +0.000 N 
ATOM     22  C   UNL     1      50.063   4.734  18.279  0.00  0.00    +0.000 C 
ATOM     23  C   UNL     1      50.443   3.491  17.476  0.00  0.00    +0.000 C 
ATOM     24  C   UNL     1      49.288   2.493  17.400  0.00  0.00    +0.000 C 
ATOM     25  C   UNL     1      48.027   3.171  16.877  0.00  0.00    +0.000 C 
ATOM     26  C   UNL     1      47.661   4.381  17.736  0.00  0.00    +0.000 C 
ENDBRANCH  19  21
ENDBRANCH  14  15
ENDBRANCH   1  14
TORSDOF 5
ENDMDL
