MODEL 1
REMARK VINA RESULT:    -8.084      0.000      0.000
REMARK INTER + INTRA:         -10.822
REMARK INTER:                 -10.446
REMARK INTRA:                  -0.376
REMARK UNBOUND:                -0.376
REMARK  Name = 
REMARK  5 active torsions:
REMARK  status: ('A' for Active; 'I' for Inactive)
REMARK    1  A    between atoms: C_2  and  C_3
REMARK    2  A    between atoms: C_6  and  C_7
REMARK    3  A    between atoms: C_11  and  C_12
REMARK    4  A    between atoms: C_12  and  N_13
REMARK    5  A    between atoms: C_17  and  C_18
REMARK                            x       y       z     vdW  Elec       q    Type
REMARK                         _______ _______ _______ _____ _____    ______ ____
ROOT
ATOM      1  C   UNL     1      44.156   4.816  11.569  0.00  0.00    +0.000 C 
ATOM      2  C   UNL     1      42.976   5.591  11.004  0.00  0.00    +0.000 C 
ATOM      3  C   UNL     1      42.867   4.991  12.365  0.00  0.00    +0.000 C 
ENDROOT
BRANCH   1   4
ATOM      4  N   UNL     1      44.460   3.500  11.002  0.00  0.00    +0.000 N 
ATOM      5  C   UNL     1      45.112   3.273   9.790  0.00  0.00    +0.000 A 
ATOM      6  C   UNL     1      45.652   4.298   9.018  0.00  0.00    +0.000 A 
ATOM      7  C   UNL     1      46.347   3.997   7.846  0.00  0.00    +0.000 A 
ATOM      8  C   UNL     1      46.482   2.668   7.462  0.00  0.00    +0.000 A 
ATOM      9  C   UNL     1      45.926   1.702   8.285  0.00  0.00    +0.000 A 
ATOM     10  N   UNL     1      45.238   1.979   9.426  0.00  0.00    +0.000 NA
ATOM     11  H   UNL     1      44.057   2.643  11.361  0.00  0.00    +0.000 HD
BRANCH   8  12
ATOM     12  C   UNL     1      47.204   2.258   6.240  0.00  0.00    +0.000 C 
ATOM     13  N   UNL     1      47.090   3.071   5.145  0.00  0.00    +0.000 N 
ATOM     14  O   UNL     1      47.852   1.222   6.197  0.00  0.00    +0.000 OA
ATOM     15  H   UNL     1      46.392   3.797   5.070  0.00  0.00    +0.000 HD
ATOM     16  H   UNL     1      47.510   2.736   4.286  0.00  0.00    +0.000 HD
ENDBRANCH   8  12
ENDBRANCH   1   4
BRANCH   1  21
ATOM     17  C   UNL     1      47.025   5.989  13.601  0.00  0.00    +0.000 A 
ATOM     18  N   UNL     1      47.500   7.081  12.976  0.00  0.00    +0.000 NA
ATOM     19  C   UNL     1      46.884   7.422  11.833  0.00  0.00    +0.000 A 
ATOM     20  C   UNL     1      45.818   6.726  11.305  0.00  0.00    +0.000 A 
ATOM     21  C   UNL     1      45.375   5.624  12.018  0.00  0.00    +0.000 A 
ATOM     22  N   UNL     1      45.992   5.251  13.161  0.00  0.00    +0.000 NA
BRANCH  17  26
ATOM     23  C   UNL     1      48.688   4.853  17.409  0.00  0.00    +0.000 A 
ATOM     24  C   UNL     1      49.149   6.001  16.757  0.00  0.00    +0.000 A 
ATOM     25  C   UNL     1      48.624   6.361  15.511  0.00  0.00    +0.000 A 
ATOM     26  C   UNL     1      47.625   5.591  14.887  0.00  0.00    +0.000 A 
ATOM     27  C   UNL     1      47.192   4.430  15.561  0.00  0.00    +0.000 A 
ATOM     28  C   UNL     1      47.712   4.061  16.801  0.00  0.00    +0.000 A 
BRANCH  23  30
ATOM     29  N   UNL     1      49.613   4.210  19.738  0.00  0.00    +0.000 NA
ATOM     30  C   UNL     1      49.202   4.497  18.691  0.00  0.00    +0.000 C 
ENDBRANCH  23  30
ENDBRANCH  17  26
ENDBRANCH   1  21
TORSDOF 5
ENDMDL
MODEL 2
REMARK VINA RESULT:    -8.055      2.133      4.197
REMARK INTER + INTRA:         -10.786
REMARK INTER:                 -10.189
REMARK INTRA:                  -0.597
REMARK UNBOUND:                -0.376
REMARK  Name = 
REMARK  5 active torsions:
REMARK  status: ('A' for Active; 'I' for Inactive)
REMARK    1  A    between atoms: C_2  and  C_3
REMARK    2  A    between atoms: C_6  and  C_7
REMARK    3  A    between atoms: C_11  and  C_12
REMARK    4  A    between atoms: C_12  and  N_13
REMARK    5  A    between atoms: C_17  and  C_18
REMARK                            x       y       z     vdW  Elec       q    Type
REMARK                         _______ _______ _______ _____ _____    ______ ____
ROOT
ATOM      1  C   UNL     1      44.063   4.681  11.654  0.00  0.00    +0.000 C 
ATOM      2  C   UNL     1      43.285   5.808  10.992  0.00  0.00    +0.000 C 
ATOM      3  C   UNL     1      42.676   5.082  12.144  0.00  0.00    +0.000 C 
ENDROOT
BRANCH   1   4
ATOM      4  N   UNL     1      44.216   3.419  10.924  0.00  0.00    +0.000 N 
ATOM      5  C   UNL     1      44.934   3.252   9.741  0.00  0.00    +0.000 A 
ATOM      6  C   UNL     1      45.691   4.268   9.164  0.00  0.00    +0.000 A 
ATOM      7  C   UNL     1      46.436   4.016   8.011  0.00  0.00    +0.000 A 
ATOM      8  C   UNL     1      46.403   2.744   7.450  0.00  0.00    +0.000 A 
ATOM      9  C   UNL     1      45.634   1.782   8.084  0.00  0.00    +0.000 A 
ATOM     10  N   UNL     1      44.894   2.014   9.203  0.00  0.00    +0.000 NA
ATOM     11  H   UNL     1      43.656   2.600  11.126  0.00  0.00    +0.000 HD
BRANCH   8  12
ATOM     12  C   UNL     1      47.163   2.387   6.234  0.00  0.00    +0.000 C 
ATOM     13  N   UNL     1      47.023   3.207   5.147  0.00  0.00    +0.000 N 
ATOM     14  O   UNL     1      47.865   1.387   6.190  0.00  0.00    +0.000 OA
ATOM     15  H   UNL     1      46.289   3.896   5.070  0.00  0.00    +0.000 HD
ATOM     16  H   UNL     1      47.471   2.904   4.291  0.00  0.00    +0.000 HD
ENDBRANCH   8  12
ENDBRANCH   1   4
BRANCH   1  21
ATOM     17  C   UNL     1      47.113   6.421  12.838  0.00  0.00    +0.000 A 
ATOM     18  N   UNL     1      47.497   5.778  13.955  0.00  0.00    +0.000 NA
ATOM     19  C   UNL     1      46.710   4.766  14.354  0.00  0.00    +0.000 A 
ATOM     20  C   UNL     1      45.575   4.373  13.679  0.00  0.00    +0.000 A 
ATOM     21  C   UNL     1      45.258   5.072  12.526  0.00  0.00    +0.000 A 
ATOM     22  N   UNL     1      46.025   6.106  12.116  0.00  0.00    +0.000 NA
BRANCH  17  26
ATOM     23  C   UNL     1      49.648   9.599  11.412  0.00  0.00    +0.000 A 
ATOM     24  C   UNL     1      48.304   9.852  11.703  0.00  0.00    +0.000 A 
ATOM     25  C   UNL     1      47.474   8.816  12.148  0.00  0.00    +0.000 A 
ATOM     26  C   UNL     1      47.963   7.508  12.319  0.00  0.00    +0.000 A 
ATOM     27  C   UNL     1      49.318   7.280  12.000  0.00  0.00    +0.000 A 
ATOM     28  C   UNL     1      50.151   8.305  11.553  0.00  0.00    +0.000 A 
BRANCH  23  30
ATOM     29  N   UNL     1      51.205  11.513  10.631  0.00  0.00    +0.000 NA
ATOM     30  C   UNL     1      50.503  10.657  10.983  0.00  0.00    +0.000 C 
ENDBRANCH  23  30
ENDBRANCH  17  26
ENDBRANCH   1  21
TORSDOF 5
ENDMDL
MODEL 3
REMARK VINA RESULT:    -7.059      3.223      7.914
REMARK INTER + INTRA:          -9.498
REMARK INTER:                  -9.145
REMARK INTRA:                  -0.353
REMARK UNBOUND:                -0.376
REMARK  Name = 
REMARK  5 active torsions:
REMARK  status: ('A' for Active; 'I' for Inactive)
REMARK    1  A    between atoms: C_2  and  C_3
REMARK    2  A    between atoms: C_6  and  C_7
REMARK    3  A    between atoms: C_11  and  C_12
REMARK    4  A    between atoms: C_12  and  N_13
REMARK    5  A    between atoms: C_17  and  C_18
REMARK                            x       y       z     vdW  Elec       q    Type
REMARK                         _______ _______ _______ _____ _____    ______ ____
ROOT
ATOM      1  C   UNL     1      45.982   5.110  13.636  0.00  0.00    +0.000 C 
ATOM      2  C   UNL     1      47.329   4.475  13.945  0.00  0.00    +0.000 C 
ATOM      3  C   UNL     1      46.233   4.382  14.952  0.00  0.00    +0.000 C 
ENDROOT
BRANCH   1   4
ATOM      4  N   UNL     1      45.882   6.572  13.647  0.00  0.00    +0.000 N 
ATOM      5  C   UNL     1      46.772   7.447  13.023  0.00  0.00    +0.000 A 
ATOM      6  C   UNL     1      47.819   7.014  12.214  0.00  0.00    +0.000 A 
ATOM      7  C   UNL     1      48.634   7.945  11.570  0.00  0.00    +0.000 A 
ATOM      8  C   UNL     1      48.390   9.301  11.755  0.00  0.00    +0.000 A 
ATOM      9  C   UNL     1      47.325   9.656  12.567  0.00  0.00    +0.000 A 
ATOM     10  N   UNL     1      46.527   8.762  13.210  0.00  0.00    +0.000 NA
ATOM     11  H   UNL     1      45.257   7.073  14.265  0.00  0.00    +0.000 HD
BRANCH   8  12
ATOM     12  C   UNL     1      49.200  10.355  11.109  0.00  0.00    +0.000 C 
ATOM     13  N   UNL     1      50.557  10.182  11.102  0.00  0.00    +0.000 N 
ATOM     14  O   UNL     1      48.683  11.353  10.628  0.00  0.00    +0.000 OA
ATOM     15  H   UNL     1      51.028   9.501  11.681  0.00  0.00    +0.000 HD
ATOM     16  H   UNL     1      51.109  10.951  10.742  0.00  0.00    +0.000 HD
ENDBRANCH   8  12
ENDBRANCH   1   4
BRANCH   1  21
ATOM     17  C   UNL     1      44.884   3.506  10.480  0.00  0.00    +0.000 A 
ATOM     18  N   UNL     1      43.571   3.256  10.629  0.00  0.00    +0.000 NA
ATOM     19  C   UNL     1      43.037   3.589  11.815  0.00  0.00    +0.000 A 
ATOM     20  C   UNL     1      43.756   4.165  12.839  0.00  0.00    +0.000 A 
ATOM     21  C   UNL     1      45.099   4.410  12.602  0.00  0.00    +0.000 A 
ATOM     22  N   UNL     1      45.662   4.066  11.422  0.00  0.00    +0.000 NA
BRANCH  17  26
ATOM     23  C   UNL     1      46.829   2.616   6.742  0.00  0.00    +0.000 A 
ATOM     24  C   UNL     1      46.554   3.942   7.090  0.00  0.00    +0.000 A 
ATOM     25  C   UNL     1      45.905   4.232   8.296  0.00  0.00    +0.000 A 
ATOM     26  C   UNL     1      45.519   3.211   9.184  0.00  0.00    +0.000 A 
ATOM     27  C   UNL     1      45.794   1.883   8.796  0.00  0.00    +0.000 A 
ATOM     28  C   UNL     1      46.438   1.584   7.596  0.00  0.00    +0.000 A 
BRANCH  23  30
ATOM     29  N   UNL     1      48.072   2.068   4.539  0.00  0.00    +0.000 NA
ATOM     30  C   UNL     1      47.514   2.318   5.526  0.00  0.00    +0.000 C 
ENDBRANCH  23  30
ENDBRANCH  17  26
ENDBRANCH   1  21
TORSDOF 5
ENDMDL
MODEL 4
REMARK VINA RESULT:    -6.946      3.577      8.790
REMARK INTER + INTRA:          -9.352
REMARK INTER:                  -8.763
REMARK INTRA:                  -0.589
REMARK UNBOUND:                -0.376
REMARK  Name = 
REMARK  5 active torsions:
REMARK  status: ('A' for Active; 'I' for Inactive)
REMARK    1  A    between atoms: C_2  and  C_3
REMARK    2  A    between atoms: C_6  and  C_7
REMARK    3  A    between atoms: C_11  and  C_12
REMARK    4  A    between atoms: C_12  and  N_13
REMARK    5  A    between atoms: C_17  and  C_18
REMARK                            x       y       z     vdW  Elec       q    Type
REMARK                         _______ _______ _______ _____ _____    ______ ____
ROOT
ATOM      1  C   UNL     1      49.303   5.561  17.957  0.00  0.00    +0.000 C 
ATOM      2  C   UNL     1      48.100   4.777  18.457  0.00  0.00    +0.000 C 
ATOM      3  C   UNL     1      48.328   6.161  18.964  0.00  0.00    +0.000 C 
ENDROOT
BRANCH   1   4
ATOM      4  N   UNL     1      50.636   5.161  18.418  0.00  0.00    +0.000 N 
ATOM      5  C   UNL     1      51.217   3.909  18.220  0.00  0.00    +0.000 A 
ATOM      6  C   UNL     1      50.622   2.911  17.452  0.00  0.00    +0.000 A 
ATOM      7  C   UNL     1      51.286   1.702  17.242  0.00  0.00    +0.000 A 
ATOM      8  C   UNL     1      52.538   1.510  17.816  0.00  0.00    +0.000 A 
ATOM      9  C   UNL     1      53.070   2.551  18.559  0.00  0.00    +0.000 A 
ATOM     10  N   UNL     1      52.432   3.732  18.781  0.00  0.00    +0.000 NA
ATOM     11  H   UNL     1      51.172   5.707  19.080  0.00  0.00    +0.000 HD
BRANCH   8  12
ATOM     12  C   UNL     1      53.314   0.264  17.643  0.00  0.00    +0.000 C 
ATOM     13  N   UNL     1      53.149  -0.710  18.590  0.00  0.00    +0.000 N 
ATOM     14  O   UNL     1      54.093   0.120  16.712  0.00  0.00    +0.000 OA
ATOM     15  H   UNL     1      52.702  -0.541  19.480  0.00  0.00    +0.000 HD
ATOM     16  H   UNL     1      53.753  -1.520  18.516  0.00  0.00    +0.000 HD
ENDBRANCH   8  12
ENDBRANCH   1   4
BRANCH   1  21
ATOM     17  C   UNL     1      48.255   6.020  14.432  0.00  0.00    +0.000 A 
ATOM     18  N   UNL     1      49.132   6.887  13.894  0.00  0.00    +0.000 NA
ATOM     19  C   UNL     1      50.074   7.365  14.723  0.00  0.00    +0.000 A 
ATOM     20  C   UNL     1      50.176   7.004  16.048  0.00  0.00    +0.000 A 
ATOM     21  C   UNL     1      49.248   6.091  16.523  0.00  0.00    +0.000 A 
ATOM     22  N   UNL     1      48.279   5.611  15.711  0.00  0.00    +0.000 NA
BRANCH  17  26
ATOM     23  C   UNL     1      45.328   4.206  11.845  0.00  0.00    +0.000 A 
ATOM     24  C   UNL     1      45.699   5.541  11.655  0.00  0.00    +0.000 A 
ATOM     25  C   UNL     1      46.636   6.137  12.506  0.00  0.00    +0.000 A 
ATOM     26  C   UNL     1      47.228   5.420  13.562  0.00  0.00    +0.000 A 
ATOM     27  C   UNL     1      46.820   4.081  13.739  0.00  0.00    +0.000 A 
ATOM     28  C   UNL     1      45.885   3.479  12.898  0.00  0.00    +0.000 A 
BRANCH  23  30
ATOM     29  N   UNL     1      43.633   3.074  10.249  0.00  0.00    +0.000 NA
ATOM     30  C   UNL     1      44.393   3.586  10.964  0.00  0.00    +0.000 C 
ENDBRANCH  23  30
ENDBRANCH  17  26
ENDBRANCH   1  21
TORSDOF 5
ENDMDL
MODEL 5
REMARK VINA RESULT:    -6.883      3.506      5.601
REMARK INTER + INTRA:          -9.271
REMARK INTER:                  -8.707
REMARK INTRA:                  -0.564
REMARK UNBOUND:                -0.376
REMARK  Name = 
REMARK  5 active torsions:
REMARK  status: ('A' for Active; 'I' for Inactive)
REMARK    1  A    between atoms: C_2  and  C_3
REMARK    2  A    between atoms: C_6  and  C_7
REMARK    3  A    between atoms: C_11  and  C_12
REMARK    4  A    between atoms: C_12  and  N_13
REMARK    5  A    between atoms: C_17  and  C_18
REMARK                            x       y       z     vdW  Elec       q    Type
REMARK                         _______ _______ _______ _____ _____    ______ ____
ROOT
ATOM      1  C   UNL     1      48.562   7.785  13.922  0.00  0.00    +0.000 C 
ATOM      2  C   UNL     1      49.555   7.240  12.907  0.00  0.00    +0.000 C 
ATOM      3  C   UNL     1      49.554   8.700  13.212  0.00  0.00    +0.000 C 
ENDROOT
BRANCH   1   4
ATOM      4  N   UNL     1      47.147   7.850  13.545  0.00  0.00    +0.000 N 
ATOM      5  C   UNL     1      46.372   6.770  13.124  0.00  0.00    +0.000 A 
ATOM      6  C   UNL     1      46.842   5.459  13.115  0.00  0.00    +0.000 A 
ATOM      7  C   UNL     1      45.993   4.416  12.740  0.00  0.00    +0.000 A 
ATOM      8  C   UNL     1      44.685   4.708  12.371  0.00  0.00    +0.000 A 
ATOM      9  C   UNL     1      44.287   6.035  12.413  0.00  0.00    +0.000 A 
ATOM     10  N   UNL     1      45.104   7.064  12.767  0.00  0.00    +0.000 NA
ATOM     11  H   UNL     1      46.664   8.725  13.386  0.00  0.00    +0.000 HD
BRANCH   8  12
ATOM     12  C   UNL     1      43.718   3.668  11.964  0.00  0.00    +0.000 C 
ATOM     13  N   UNL     1      43.862   2.428  12.525  0.00  0.00    +0.000 N 
ATOM     14  O   UNL     1      42.844   3.896  11.139  0.00  0.00    +0.000 OA
ATOM     15  H   UNL     1      44.693   2.144  13.022  0.00  0.00    +0.000 HD
ATOM     16  H   UNL     1      43.255   1.699  12.171  0.00  0.00    +0.000 HD
ENDBRANCH   8  12
ENDBRANCH   1   4
BRANCH   1  21
ATOM     17  C   UNL     1      49.697   6.025  16.980  0.00  0.00    +0.000 A 
ATOM     18  N   UNL     1      49.246   6.756  18.016  0.00  0.00    +0.000 NA
ATOM     19  C   UNL     1      48.582   7.880  17.703  0.00  0.00    +0.000 A 
ATOM     20  C   UNL     1      48.347   8.288  16.409  0.00  0.00    +0.000 A 
ATOM     21  C   UNL     1      48.825   7.472  15.396  0.00  0.00    +0.000 A 
ATOM     22  N   UNL     1      49.512   6.346  15.688  0.00  0.00    +0.000 NA
BRANCH  17  26
ATOM     23  C   UNL     1      51.768   2.317  17.695  0.00  0.00    +0.000 A 
ATOM     24  C   UNL     1      50.397   2.312  17.423  0.00  0.00    +0.000 A 
ATOM     25  C   UNL     1      49.719   3.517  17.208  0.00  0.00    +0.000 A 
ATOM     26  C   UNL     1      50.388   4.754  17.256  0.00  0.00    +0.000 A 
ATOM     27  C   UNL     1      51.768   4.728  17.551  0.00  0.00    +0.000 A 
ATOM     28  C   UNL     1      52.452   3.532  17.768  0.00  0.00    +0.000 A 
BRANCH  23  30
ATOM     29  N   UNL     1      53.046   0.094  18.044  0.00  0.00    +0.000 NA
ATOM     30  C   UNL     1      52.469   1.089  17.888  0.00  0.00    +0.000 C 
ENDBRANCH  23  30
ENDBRANCH  17  26
ENDBRANCH   1  21
TORSDOF 5
ENDMDL
MODEL 6
REMARK VINA RESULT:    -6.515      3.438      7.806
REMARK INTER + INTRA:          -8.795
REMARK INTER:                  -9.012
REMARK INTRA:                   0.217
REMARK UNBOUND:                -0.376
REMARK  Name = 
REMARK  5 active torsions:
REMARK  status: ('A' for Active; 'I' for Inactive)
REMARK    1  A    between atoms: C_2  and  C_3
REMARK    2  A    between atoms: C_6  and  C_7
REMARK    3  A    between atoms: C_11  and  C_12
REMARK    4  A    between atoms: C_12  and  N_13
REMARK    5  A    between atoms: C_17  and  C_18
REMARK                            x       y       z     vdW  Elec       q    Type
REMARK                         _______ _______ _______ _____ _____    ______ ____
ROOT
ATOM      1  C   UNL     1      45.196   7.926  12.377  0.00  0.00    +0.000 C 
ATOM      2  C   UNL     1      44.316   9.157  12.524  0.00  0.00    +0.000 C 
ATOM      3  C   UNL     1      45.310   9.102  11.413  0.00  0.00    +0.000 C 
ENDROOT
BRANCH   1   4
ATOM      4  N   UNL     1      46.264   7.712  13.358  0.00  0.00    +0.000 N 
ATOM      5  C   UNL     1      47.628   7.865  13.113  0.00  0.00    +0.000 A 
ATOM      6  C   UNL     1      48.132   8.352  11.910  0.00  0.00    +0.000 A 
ATOM      7  C   UNL     1      49.506   8.540  11.753  0.00  0.00    +0.000 A 
ATOM      8  C   UNL     1      50.356   8.226  12.808  0.00  0.00    +0.000 A 
ATOM      9  C   UNL     1      49.781   7.754  13.977  0.00  0.00    +0.000 A 
ATOM     10  N   UNL     1      48.445   7.557  14.143  0.00  0.00    +0.000 NA
ATOM     11  H   UNL     1      46.105   7.255  14.248  0.00  0.00    +0.000 HD
BRANCH   8  12
ATOM     12  C   UNL     1      51.822   8.396  12.731  0.00  0.00    +0.000 C 
ATOM     13  N   UNL     1      52.563   7.900  13.769  0.00  0.00    +0.000 N 
ATOM     14  O   UNL     1      52.349   8.981  11.796  0.00  0.00    +0.000 OA
ATOM     15  H   UNL     1      52.156   7.624  14.651  0.00  0.00    +0.000 HD
ATOM     16  H   UNL     1      53.555   8.103  13.755  0.00  0.00    +0.000 HD
ENDBRANCH   8  12
ENDBRANCH   1   4
BRANCH   1  21
ATOM     17  C   UNL     1      44.595   4.851  10.397  0.00  0.00    +0.000 A 
ATOM     18  N   UNL     1      43.378   4.408  10.761  0.00  0.00    +0.000 NA
ATOM     19  C   UNL     1      42.751   5.118  11.712  0.00  0.00    +0.000 A 
ATOM     20  C   UNL     1      43.285   6.245  12.296  0.00  0.00    +0.000 A 
ATOM     21  C   UNL     1      44.534   6.649  11.854  0.00  0.00    +0.000 A 
ATOM     22  N   UNL     1      45.192   5.939  10.912  0.00  0.00    +0.000 NA
BRANCH  17  26
ATOM     23  C   UNL     1      46.769   2.756   7.324  0.00  0.00    +0.000 A 
ATOM     24  C   UNL     1      46.772   4.154   7.356  0.00  0.00    +0.000 A 
ATOM     25  C   UNL     1      46.051   4.837   8.343  0.00  0.00    +0.000 A 
ATOM     26  C   UNL     1      45.315   4.145   9.322  0.00  0.00    +0.000 A 
ATOM     27  C   UNL     1      45.316   2.736   9.253  0.00  0.00    +0.000 A 
ATOM     28  C   UNL     1      46.029   2.047   8.272  0.00  0.00    +0.000 A 
BRANCH  23  30
ATOM     29  N   UNL     1      48.143   1.483   5.538  0.00  0.00    +0.000 NA
ATOM     30  C   UNL     1      47.523   2.056   6.337  0.00  0.00    +0.000 C 
ENDBRANCH  23  30
ENDBRANCH  17  26
ENDBRANCH   1  21
TORSDOF 5
ENDMDL
MODEL 7
REMARK VINA RESULT:    -6.225      2.803      4.036
REMARK INTER + INTRA:          -8.421
REMARK INTER:                  -8.024
REMARK INTRA:                  -0.397
REMARK UNBOUND:                -0.376
REMARK  Name = 
REMARK  5 active torsions:
REMARK  status: ('A' for Active; 'I' for Inactive)
REMARK    1  A    between atoms: C_2  and  C_3
REMARK    2  A    between atoms: C_6  and  C_7
REMARK    3  A    between atoms: C_11  and  C_12
REMARK    4  A    between atoms: C_12  and  N_13
REMARK    5  A    between atoms: C_17  and  C_18
REMARK                            x       y       z     vdW  Elec       q    Type
REMARK                         _______ _______ _______ _____ _____    ______ ____
ROOT
ATOM      1  C   UNL     1      45.644   8.916  12.315  0.00  0.00    +0.000 C 
ATOM      2  C   UNL     1      45.114   9.453  10.995  0.00  0.00    +0.000 C 
ATOM      3  C   UNL     1      44.984  10.287  12.224  0.00  0.00    +0.000 C 
ENDROOT
BRANCH   1   4
ATOM      4  N   UNL     1      44.915   7.824  12.966  0.00  0.00    +0.000 N 
ATOM      5  C   UNL     1      44.640   6.582  12.394  0.00  0.00    +0.000 A 
ATOM      6  C   UNL     1      45.131   6.195  11.150  0.00  0.00    +0.000 A 
ATOM      7  C   UNL     1      44.870   4.914  10.664  0.00  0.00    +0.000 A 
ATOM      8  C   UNL     1      44.109   4.041  11.433  0.00  0.00    +0.000 A 
ATOM      9  C   UNL     1      43.662   4.493  12.664  0.00  0.00    +0.000 A 
ATOM     10  N   UNL     1      43.900   5.742  13.149  0.00  0.00    +0.000 NA
ATOM     11  H   UNL     1      44.390   7.951  13.823  0.00  0.00    +0.000 HD
BRANCH   8  12
ATOM     12  C   UNL     1      43.787   2.666  10.998  0.00  0.00    +0.000 C 
ATOM     13  N   UNL     1      44.473   2.175   9.921  0.00  0.00    +0.000 N 
ATOM     14  O   UNL     1      42.924   2.004  11.558  0.00  0.00    +0.000 OA
ATOM     15  H   UNL     1      45.014   2.760   9.301  0.00  0.00    +0.000 HD
ATOM     16  H   UNL     1      44.180   1.270   9.573  0.00  0.00    +0.000 HD
ENDBRANCH   8  12
ENDBRANCH   1   4
BRANCH   1  21
ATOM     17  C   UNL     1      48.986   8.109  13.700  0.00  0.00    +0.000 A 
ATOM     18  N   UNL     1      49.867   8.829  12.984  0.00  0.00    +0.000 NA
ATOM     19  C   UNL     1      49.354   9.574  11.991  0.00  0.00    +0.000 A 
ATOM     20  C   UNL     1      48.009   9.631  11.701  0.00  0.00    +0.000 A 
ATOM     21  C   UNL     1      47.163   8.877  12.496  0.00  0.00    +0.000 A 
ATOM     22  N   UNL     1      47.659   8.105  13.489  0.00  0.00    +0.000 NA
BRANCH  17  26
ATOM     23  C   UNL     1      50.375   5.840  17.088  0.00  0.00    +0.000 A 
ATOM     24  C   UNL     1      51.266   6.644  16.370  0.00  0.00    +0.000 A 
ATOM     25  C   UNL     1      50.820   7.368  15.258  0.00  0.00    +0.000 A 
ATOM     26  C   UNL     1      49.479   7.311  14.837  0.00  0.00    +0.000 A 
ATOM     27  C   UNL     1      48.608   6.477  15.569  0.00  0.00    +0.000 A 
ATOM     28  C   UNL     1      49.044   5.750  16.677  0.00  0.00    +0.000 A 
BRANCH  23  30
ATOM     29  N   UNL     1      51.175   4.531  19.172  0.00  0.00    +0.000 NA
ATOM     30  C   UNL     1      50.819   5.121  18.237  0.00  0.00    +0.000 C 
ENDBRANCH  23  30
ENDBRANCH  17  26
ENDBRANCH   1  21
TORSDOF 5
ENDMDL
MODEL 8
REMARK VINA RESULT:    -6.108      2.502      7.766
REMARK INTER + INTRA:          -8.269
REMARK INTER:                  -8.460
REMARK INTRA:                   0.191
REMARK UNBOUND:                -0.376
REMARK  Name = 
REMARK  5 active torsions:
REMARK  status: ('A' for Active; 'I' for Inactive)
REMARK    1  A    between atoms: C_2  and  C_3
REMARK    2  A    between atoms: C_6  and  C_7
REMARK    3  A    between atoms: C_11  and  C_12
REMARK    4  A    between atoms: C_12  and  N_13
REMARK    5  A    between atoms: C_17  and  C_18
REMARK                            x       y       z     vdW  Elec       q    Type
REMARK                         _______ _______ _______ _____ _____    ______ ____
ROOT
ATOM      1  C   UNL     1      45.419   7.863  12.225  0.00  0.00    +0.000 C 
ATOM      2  C   UNL     1      44.543   9.012  12.699  0.00  0.00    +0.000 C 
ATOM      3  C   UNL     1      45.313   9.159  11.430  0.00  0.00    +0.000 C 
ENDROOT
BRANCH   1   4
ATOM      4  N   UNL     1      46.658   7.583  12.956  0.00  0.00    +0.000 N 
ATOM      5  C   UNL     1      46.876   6.484  13.786  0.00  0.00    +0.000 A 
ATOM      6  C   UNL     1      45.954   5.449  13.931  0.00  0.00    +0.000 A 
ATOM      7  C   UNL     1      46.261   4.347  14.729  0.00  0.00    +0.000 A 
ATOM      8  C   UNL     1      47.490   4.304  15.379  0.00  0.00    +0.000 A 
ATOM      9  C   UNL     1      48.359   5.365  15.180  0.00  0.00    +0.000 A 
ATOM     10  N   UNL     1      48.071   6.451  14.413  0.00  0.00    +0.000 NA
ATOM     11  H   UNL     1      47.397   8.267  13.062  0.00  0.00    +0.000 HD
BRANCH   8  12
ATOM     12  C   UNL     1      47.900   3.175  16.240  0.00  0.00    +0.000 C 
ATOM     13  N   UNL     1      47.112   2.899  17.324  0.00  0.00    +0.000 N 
ATOM     14  O   UNL     1      48.915   2.533  16.011  0.00  0.00    +0.000 OA
ATOM     15  H   UNL     1      46.411   3.538  17.670  0.00  0.00    +0.000 HD
ATOM     16  H   UNL     1      47.450   2.187  17.960  0.00  0.00    +0.000 HD
ENDBRANCH   8  12
ENDBRANCH   1   4
BRANCH   1  21
ATOM     17  C   UNL     1      44.733   4.853  10.173  0.00  0.00    +0.000 A 
ATOM     18  N   UNL     1      43.483   4.467  10.487  0.00  0.00    +0.000 NA
ATOM     19  C   UNL     1      42.860   5.194  11.429  0.00  0.00    +0.000 A 
ATOM     20  C   UNL     1      43.429   6.283  12.050  0.00  0.00    +0.000 A 
ATOM     21  C   UNL     1      44.712   6.630  11.658  0.00  0.00    +0.000 A 
ATOM     22  N   UNL     1      45.366   5.902  10.726  0.00  0.00    +0.000 NA
BRANCH  17  26
ATOM     23  C   UNL     1      46.906   2.702   7.139  0.00  0.00    +0.000 A 
ATOM     24  C   UNL     1      46.939   4.099   7.166  0.00  0.00    +0.000 A 
ATOM     25  C   UNL     1      46.219   4.801   8.140  0.00  0.00    +0.000 A 
ATOM     26  C   UNL     1      45.453   4.129   9.110  0.00  0.00    +0.000 A 
ATOM     27  C   UNL     1      45.424   2.720   9.046  0.00  0.00    +0.000 A 
ATOM     28  C   UNL     1      46.136   2.012   8.078  0.00  0.00    +0.000 A 
BRANCH  23  30
ATOM     29  N   UNL     1      48.275   1.391   5.377  0.00  0.00    +0.000 NA
ATOM     30  C   UNL     1      47.659   1.982   6.164  0.00  0.00    +0.000 C 
ENDBRANCH  23  30
ENDBRANCH  17  26
ENDBRANCH   1  21
TORSDOF 5
ENDMDL
MODEL 9
REMARK VINA RESULT:    -5.812      4.037      7.112
REMARK INTER + INTRA:          -7.887
REMARK INTER:                  -7.932
REMARK INTRA:                   0.045
REMARK UNBOUND:                -0.376
REMARK  Name = 
REMARK  5 active torsions:
REMARK  status: ('A' for Active; 'I' for Inactive)
REMARK    1  A    between atoms: C_2  and  C_3
REMARK    2  A    between atoms: C_6  and  C_7
REMARK    3  A    between atoms: C_11  and  C_12
REMARK    4  A    between atoms: C_12  and  N_13
REMARK    5  A    between atoms: C_17  and  C_18
REMARK                            x       y       z     vdW  Elec       q    Type
REMARK                         _______ _______ _______ _____ _____    ______ ____
ROOT
ATOM      1  C   UNL     1      45.886   4.032  12.921  0.00  0.00    +0.000 C 
ATOM      2  C   UNL     1      45.194   3.370  11.739  0.00  0.00    +0.000 C 
ATOM      3  C   UNL     1      44.427   3.594  12.998  0.00  0.00    +0.000 C 
ENDROOT
BRANCH   1   4
ATOM      4  N   UNL     1      46.892   3.264  13.659  0.00  0.00    +0.000 N 
ATOM      5  C   UNL     1      47.304   3.519  14.966  0.00  0.00    +0.000 A 
ATOM      6  C   UNL     1      46.713   4.489  15.772  0.00  0.00    +0.000 A 
ATOM      7  C   UNL     1      47.132   4.650  17.093  0.00  0.00    +0.000 A 
ATOM      8  C   UNL     1      48.147   3.837  17.584  0.00  0.00    +0.000 A 
ATOM      9  C   UNL     1      48.681   2.888  16.728  0.00  0.00    +0.000 A 
ATOM     10  N   UNL     1      48.291   2.725  15.434  0.00  0.00    +0.000 NA
ATOM     11  H   UNL     1      47.506   2.595  13.211  0.00  0.00    +0.000 HD
BRANCH   8  12
ATOM     12  C   UNL     1      48.650   3.935  18.970  0.00  0.00    +0.000 C 
ATOM     13  N   UNL     1      48.304   2.930  19.832  0.00  0.00    +0.000 N 
ATOM     14  O   UNL     1      49.323   4.887  19.340  0.00  0.00    +0.000 OA
ATOM     15  H   UNL     1      47.574   2.262  19.632  0.00  0.00    +0.000 HD
ATOM     16  H   UNL     1      48.573   3.052  20.801  0.00  0.00    +0.000 HD
ENDBRANCH   8  12
ENDBRANCH   1   4
BRANCH   1  21
ATOM     17  C   UNL     1      47.719   7.244  12.680  0.00  0.00    +0.000 A 
ATOM     18  N   UNL     1      46.785   8.210  12.749  0.00  0.00    +0.000 NA
ATOM     19  C   UNL     1      45.512   7.795  12.840  0.00  0.00    +0.000 A 
ATOM     20  C   UNL     1      45.144   6.468  12.875  0.00  0.00    +0.000 A 
ATOM     21  C   UNL     1      46.165   5.533  12.818  0.00  0.00    +0.000 A 
ATOM     22  N   UNL     1      47.453   5.928  12.708  0.00  0.00    +0.000 NA
BRANCH  17  26
ATOM     23  C   UNL     1      51.896   8.284  12.506  0.00  0.00    +0.000 A 
ATOM     24  C   UNL     1      51.247   8.194  13.741  0.00  0.00    +0.000 A 
ATOM     25  C   UNL     1      49.885   7.875  13.799  0.00  0.00    +0.000 A 
ATOM     26  C   UNL     1      49.140   7.634  12.630  0.00  0.00    +0.000 A 
ATOM     27  C   UNL     1      49.817   7.749  11.398  0.00  0.00    +0.000 A 
ATOM     28  C   UNL     1      51.173   8.069  11.331  0.00  0.00    +0.000 A 
BRANCH  23  30
ATOM     29  N   UNL     1      54.422   8.832  12.388  0.00  0.00    +0.000 NA
ATOM     30  C   UNL     1      53.289   8.583  12.444  0.00  0.00    +0.000 C 
ENDBRANCH  23  30
ENDBRANCH  17  26
ENDBRANCH   1  21
TORSDOF 5
ENDMDL
