MODEL 1
REMARK VINA RESULT:    -7.982      0.000      0.000
REMARK INTER + INTRA:         -13.060
REMARK INTER:                 -11.715
REMARK INTRA:                  -1.345
REMARK UNBOUND:                -1.345
REMARK  Name = 
REMARK  9 active torsions:
REMARK  status: ('A' for Active; 'I' for Inactive)
REMARK    1  A    between atoms: C_1  and  O_2
REMARK    2  A    between atoms: O_2  and  C_3
REMARK    3  A    between atoms: C_10  and  C_11
REMARK    4  A    between atoms: N_13  and  C_14
REMARK    5  A    between atoms: C_14  and  C_15
REMARK    6  A    between atoms: C_18  and  N_19
REMARK    7  A    between atoms: N_19  and  C_20
REMARK    8  A    between atoms: C_20  and  C_21
REMARK    9  A    between atoms: C_21  and  N_22
REMARK                            x       y       z     vdW  Elec       q    Type
REMARK                         _______ _______ _______ _____ _____    ______ ____
ROOT
ATOM      1  C   UNL     1      47.282   8.302  13.571  0.00  0.00    +0.000 C 
ENDROOT
BRANCH   1   2
ATOM      2  C   UNL     1      46.398   7.539  12.618  0.00  0.00    +0.000 A 
ATOM      3  C   UNL     1      46.946   6.642  11.695  0.00  0.00    +0.000 A 
ATOM      4  C   UNL     1      46.118   5.878  10.862  0.00  0.00    +0.000 A 
ATOM      5  C   UNL     1      44.725   5.974  10.942  0.00  0.00    +0.000 A 
ATOM      6  C   UNL     1      44.191   6.961  11.777  0.00  0.00    +0.000 A 
ATOM      7  C   UNL     1      45.011   7.725  12.617  0.00  0.00    +0.000 A 
BRANCH   5   8
ATOM      8  N   UNL     1      43.841   5.206  10.174  0.00  0.00    +0.000 N 
ATOM      9  H   UNL     1      43.388   5.758   9.443  0.00  0.00    +0.000 HD
BRANCH   8  10
ATOM     10  C   UNL     1      44.340   3.940   9.624  0.00  0.00    +0.000 C 
BRANCH  10  11
ATOM     11  C   UNL     1      44.449   4.022   8.081  0.00  0.00    +0.000 C 
BRANCH  11  12
ATOM     12  N   UNL     1      45.353   3.008   7.492  0.00  0.00    +0.000 NA
ATOM     13  C   UNL     1      46.521   3.616   6.839  0.00  0.00    +0.000 C 
ATOM     14  C   UNL     1      47.337   2.545   6.118  0.00  0.00    +0.000 C 
ATOM     15  C   UNL     1      47.784   1.450   7.076  0.00  0.00    +0.000 C 
ATOM     16  C   UNL     1      46.601   0.915   7.878  0.00  0.00    +0.000 C 
ATOM     17  C   UNL     1      45.793   2.047   8.519  0.00  0.00    +0.000 C 
ENDBRANCH  11  12
ENDBRANCH  10  11
ENDBRANCH   8  10
ENDBRANCH   5   8
ENDBRANCH   1   2
BRANCH   1  20
ATOM     18  C   UNL     1      48.892   6.900  14.800  0.00  0.00    +0.000 C 
ATOM     19  O   UNL     1      49.739   7.031  13.922  0.00  0.00    +0.000 OA
ATOM     20  N   UNL     1      47.661   7.493  14.698  0.00  0.00    +0.000 N 
ATOM     21  H   UNL     1      46.948   7.294  15.385  0.00  0.00    +0.000 HD
BRANCH  18  29
ATOM     22  C   UNL     1      47.295   4.233  16.277  0.00  0.00    +0.000 A 
ATOM     23  N   UNL     1      46.858   3.237  17.070  0.00  0.00    +0.000 NA
ATOM     24  C   UNL     1      47.538   2.978  18.187  0.00  0.00    +0.000 A 
ATOM     25  N   UNL     1      48.630   3.602  18.625  0.00  0.00    +0.000 NA
ATOM     26  C   UNL     1      49.033   4.587  17.806  0.00  0.00    +0.000 A 
ATOM     27  S   UNL     1      50.418   5.490  18.196  0.00  0.00    +0.000 S 
ATOM     28  C   UNL     1      50.252   6.446  16.802  0.00  0.00    +0.000 A 
ATOM     29  C   UNL     1      49.156   6.108  16.015  0.00  0.00    +0.000 A 
ATOM     30  C   UNL     1      48.439   4.984  16.611  0.00  0.00    +0.000 A 
BRANCH  22  32
ATOM     31  C   UNL     1      47.087   3.620  14.024  0.00  0.00    +0.000 C 
ATOM     32  O   UNL     1      46.637   4.456  15.086  0.00  0.00    +0.000 OA
ENDBRANCH  22  32
ENDBRANCH  18  29
ENDBRANCH   1  20
TORSDOF 8
ENDMDL
MODEL 2
REMARK VINA RESULT:    -7.519      1.476      1.796
REMARK INTER + INTRA:         -12.381
REMARK INTER:                 -11.279
REMARK INTRA:                  -1.102
REMARK UNBOUND:                -1.345
REMARK  Name = 
REMARK  9 active torsions:
REMARK  status: ('A' for Active; 'I' for Inactive)
REMARK    1  A    between atoms: C_1  and  O_2
REMARK    2  A    between atoms: O_2  and  C_3
REMARK    3  A    between atoms: C_10  and  C_11
REMARK    4  A    between atoms: N_13  and  C_14
REMARK    5  A    between atoms: C_14  and  C_15
REMARK    6  A    between atoms: C_18  and  N_19
REMARK    7  A    between atoms: N_19  and  C_20
REMARK    8  A    between atoms: C_20  and  C_21
REMARK    9  A    between atoms: C_21  and  N_22
REMARK                            x       y       z     vdW  Elec       q    Type
REMARK                         _______ _______ _______ _____ _____    ______ ____
ROOT
ATOM      1  C   UNL     1      47.543   7.783  13.198  0.00  0.00    +0.000 C 
ENDROOT
BRANCH   1   2
ATOM      2  C   UNL     1      46.454   6.856  12.722  0.00  0.00    +0.000 A 
ATOM      3  C   UNL     1      45.329   7.356  12.055  0.00  0.00    +0.000 A 
ATOM      4  C   UNL     1      44.355   6.486  11.547  0.00  0.00    +0.000 A 
ATOM      5  C   UNL     1      44.486   5.100  11.671  0.00  0.00    +0.000 A 
ATOM      6  C   UNL     1      45.546   4.617  12.446  0.00  0.00    +0.000 A 
ATOM      7  C   UNL     1      46.528   5.478  12.953  0.00  0.00    +0.000 A 
BRANCH   5   8
ATOM      8  N   UNL     1      43.575   4.176  11.146  0.00  0.00    +0.000 N 
ATOM      9  H   UNL     1      42.736   4.630  10.778  0.00  0.00    +0.000 HD
BRANCH   8  10
ATOM     10  C   UNL     1      44.083   3.188  10.186  0.00  0.00    +0.000 C 
BRANCH  10  11
ATOM     11  C   UNL     1      44.439   3.868   8.840  0.00  0.00    +0.000 C 
BRANCH  11  12
ATOM     12  N   UNL     1      45.285   3.035   7.956  0.00  0.00    +0.000 NA
ATOM     13  C   UNL     1      46.380   3.803   7.347  0.00  0.00    +0.000 C 
ATOM     14  C   UNL     1      47.125   2.942   6.330  0.00  0.00    +0.000 C 
ATOM     15  C   UNL     1      47.670   1.673   6.972  0.00  0.00    +0.000 C 
ATOM     16  C   UNL     1      46.574   0.943   7.743  0.00  0.00    +0.000 C 
ATOM     17  C   UNL     1      45.829   1.882   8.695  0.00  0.00    +0.000 C 
ENDBRANCH  11  12
ENDBRANCH  10  11
ENDBRANCH   8  10
ENDBRANCH   5   8
ENDBRANCH   1   2
BRANCH   1  20
ATOM     18  C   UNL     1      48.763   7.179  15.252  0.00  0.00    +0.000 C 
ATOM     19  O   UNL     1      49.680   6.678  14.609  0.00  0.00    +0.000 OA
ATOM     20  N   UNL     1      47.678   7.740  14.630  0.00  0.00    +0.000 N 
ATOM     21  H   UNL     1      46.894   8.061  15.178  0.00  0.00    +0.000 HD
BRANCH  18  29
ATOM     22  C   UNL     1      48.768   4.737  17.676  0.00  0.00    +0.000 A 
ATOM     23  N   UNL     1      48.736   4.005  18.805  0.00  0.00    +0.000 NA
ATOM     24  C   UNL     1      48.708   4.650  19.972  0.00  0.00    +0.000 A 
ATOM     25  N   UNL     1      48.710   5.968  20.161  0.00  0.00    +0.000 NA
ATOM     26  C   UNL     1      48.744   6.661  19.011  0.00  0.00    +0.000 A 
ATOM     27  S   UNL     1      48.762   8.359  19.054  0.00  0.00    +0.000 S 
ATOM     28  C   UNL     1      48.787   8.454  17.358  0.00  0.00    +0.000 A 
ATOM     29  C   UNL     1      48.783   7.215  16.725  0.00  0.00    +0.000 A 
ATOM     30  C   UNL     1      48.773   6.145  17.719  0.00  0.00    +0.000 A 
BRANCH  22  32
ATOM     31  C   UNL     1      47.618   3.623  15.964  0.00  0.00    +0.000 C 
ATOM     32  O   UNL     1      48.870   4.075  16.472  0.00  0.00    +0.000 OA
ENDBRANCH  22  32
ENDBRANCH  18  29
ENDBRANCH   1  20
TORSDOF 8
ENDMDL
MODEL 3
REMARK VINA RESULT:    -7.170      2.493      3.254
REMARK INTER + INTRA:         -11.869
REMARK INTER:                 -10.668
REMARK INTRA:                  -1.201
REMARK UNBOUND:                -1.345
REMARK  Name = 
REMARK  9 active torsions:
REMARK  status: ('A' for Active; 'I' for Inactive)
REMARK    1  A    between atoms: C_1  and  O_2
REMARK    2  A    between atoms: O_2  and  C_3
REMARK    3  A    between atoms: C_10  and  C_11
REMARK    4  A    between atoms: N_13  and  C_14
REMARK    5  A    between atoms: C_14  and  C_15
REMARK    6  A    between atoms: C_18  and  N_19
REMARK    7  A    between atoms: N_19  and  C_20
REMARK    8  A    between atoms: C_20  and  C_21
REMARK    9  A    between atoms: C_21  and  N_22
REMARK                            x       y       z     vdW  Elec       q    Type
REMARK                         _______ _______ _______ _____ _____    ______ ____
ROOT
ATOM      1  C   UNL     1      48.417   6.807  13.860  0.00  0.00    +0.000 C 
ENDROOT
BRANCH   1   2
ATOM      2  C   UNL     1      47.287   6.187  13.078  0.00  0.00    +0.000 A 
ATOM      3  C   UNL     1      46.660   5.020  13.529  0.00  0.00    +0.000 A 
ATOM      4  C   UNL     1      45.562   4.487  12.840  0.00  0.00    +0.000 A 
ATOM      5  C   UNL     1      45.049   5.114  11.700  0.00  0.00    +0.000 A 
ATOM      6  C   UNL     1      45.757   6.206  11.188  0.00  0.00    +0.000 A 
ATOM      7  C   UNL     1      46.853   6.749  11.872  0.00  0.00    +0.000 A 
BRANCH   5   8
ATOM      8  N   UNL     1      43.928   4.661  10.995  0.00  0.00    +0.000 N 
ATOM      9  H   UNL     1      43.117   5.270  11.131  0.00  0.00    +0.000 HD
BRANCH   8  10
ATOM     10  C   UNL     1      44.098   4.348   9.571  0.00  0.00    +0.000 C 
BRANCH  10  11
ATOM     11  C   UNL     1      44.522   2.870   9.385  0.00  0.00    +0.000 C 
BRANCH  11  12
ATOM     12  N   UNL     1      45.311   2.625   8.157  0.00  0.00    +0.000 NA
ATOM     13  C   UNL     1      46.091   3.803   7.752  0.00  0.00    +0.000 C 
ATOM     14  C   UNL     1      46.762   3.551   6.403  0.00  0.00    +0.000 C 
ATOM     15  C   UNL     1      47.658   2.322   6.451  0.00  0.00    +0.000 C 
ATOM     16  C   UNL     1      46.904   1.123   7.019  0.00  0.00    +0.000 C 
ATOM     17  C   UNL     1      46.205   1.467   8.337  0.00  0.00    +0.000 C 
ENDBRANCH  11  12
ENDBRANCH  10  11
ENDBRANCH   8  10
ENDBRANCH   5   8
ENDBRANCH   1   2
BRANCH   1  20
ATOM     18  C   UNL     1      49.055   6.497  16.219  0.00  0.00    +0.000 C 
ATOM     19  O   UNL     1      50.191   6.151  15.909  0.00  0.00    +0.000 OA
ATOM     20  N   UNL     1      48.127   6.833  15.269  0.00  0.00    +0.000 N 
ATOM     21  H   UNL     1      47.173   7.022  15.542  0.00  0.00    +0.000 HD
BRANCH  18  29
ATOM     22  C   UNL     1      47.807   9.046  18.166  0.00  0.00    +0.000 A 
ATOM     23  N   UNL     1      47.352   9.852  19.143  0.00  0.00    +0.000 NA
ATOM     24  C   UNL     1      47.200   9.338  20.364  0.00  0.00    +0.000 A 
ATOM     25  N   UNL     1      47.450   8.086  20.744  0.00  0.00    +0.000 NA
ATOM     26  C   UNL     1      47.901   7.315  19.741  0.00  0.00    +0.000 A 
ATOM     27  S   UNL     1      48.263   5.682  20.035  0.00  0.00    +0.000 S 
ATOM     28  C   UNL     1      48.736   5.442  18.421  0.00  0.00    +0.000 A 
ATOM     29  C   UNL     1      48.632   6.580  17.629  0.00  0.00    +0.000 A 
ATOM     30  C   UNL     1      48.116   7.695  18.419  0.00  0.00    +0.000 A 
BRANCH  22  32
ATOM     31  C   UNL     1      49.160  10.146  16.600  0.00  0.00    +0.000 C 
ATOM     32  O   UNL     1      47.897   9.554  16.888  0.00  0.00    +0.000 OA
ENDBRANCH  22  32
ENDBRANCH  18  29
ENDBRANCH   1  20
TORSDOF 8
ENDMDL
MODEL 4
REMARK VINA RESULT:    -7.052      1.953      2.699
REMARK INTER + INTRA:         -11.695
REMARK INTER:                 -10.635
REMARK INTRA:                  -1.061
REMARK UNBOUND:                -1.345
REMARK  Name = 
REMARK  9 active torsions:
REMARK  status: ('A' for Active; 'I' for Inactive)
REMARK    1  A    between atoms: C_1  and  O_2
REMARK    2  A    between atoms: O_2  and  C_3
REMARK    3  A    between atoms: C_10  and  C_11
REMARK    4  A    between atoms: N_13  and  C_14
REMARK    5  A    between atoms: C_14  and  C_15
REMARK    6  A    between atoms: C_18  and  N_19
REMARK    7  A    between atoms: N_19  and  C_20
REMARK    8  A    between atoms: C_20  and  C_21
REMARK    9  A    between atoms: C_21  and  N_22
REMARK                            x       y       z     vdW  Elec       q    Type
REMARK                         _______ _______ _______ _____ _____    ______ ____
ROOT
ATOM      1  C   UNL     1      47.876   7.514  13.554  0.00  0.00    +0.000 C 
ENDROOT
BRANCH   1   2
ATOM      2  C   UNL     1      47.077   6.347  13.035  0.00  0.00    +0.000 A 
ATOM      3  C   UNL     1      47.087   5.117  13.703  0.00  0.00    +0.000 A 
ATOM      4  C   UNL     1      46.285   4.056  13.261  0.00  0.00    +0.000 A 
ATOM      5  C   UNL     1      45.439   4.200  12.157  0.00  0.00    +0.000 A 
ATOM      6  C   UNL     1      45.528   5.387  11.424  0.00  0.00    +0.000 A 
ATOM      7  C   UNL     1      46.323   6.455  11.860  0.00  0.00    +0.000 A 
BRANCH   5   8
ATOM      8  N   UNL     1      44.579   3.198  11.694  0.00  0.00    +0.000 N 
ATOM      9  H   UNL     1      43.789   3.048  12.325  0.00  0.00    +0.000 HD
BRANCH   8  10
ATOM     10  C   UNL     1      44.113   3.287  10.305  0.00  0.00    +0.000 C 
BRANCH  10  11
ATOM     11  C   UNL     1      44.587   2.057   9.491  0.00  0.00    +0.000 C 
BRANCH  11  12
ATOM     12  N   UNL     1      45.749   2.331   8.616  0.00  0.00    +0.000 NA
ATOM     13  C   UNL     1      46.251   1.115   7.960  0.00  0.00    +0.000 C 
ATOM     14  C   UNL     1      47.537   1.423   7.196  0.00  0.00    +0.000 C 
ATOM     15  C   UNL     1      47.318   2.520   6.164  0.00  0.00    +0.000 C 
ATOM     16  C   UNL     1      46.651   3.736   6.800  0.00  0.00    +0.000 C 
ATOM     17  C   UNL     1      45.406   3.344   7.602  0.00  0.00    +0.000 C 
ENDBRANCH  11  12
ENDBRANCH  10  11
ENDBRANCH   8  10
ENDBRANCH   5   8
ENDBRANCH   1   2
BRANCH   1  20
ATOM     18  C   UNL     1      49.398   7.354  15.484  0.00  0.00    +0.000 C 
ATOM     19  O   UNL     1      48.631   7.995  16.195  0.00  0.00    +0.000 OA
ATOM     20  N   UNL     1      49.097   7.078  14.176  0.00  0.00    +0.000 N 
ATOM     21  H   UNL     1      49.784   6.633  13.585  0.00  0.00    +0.000 HD
BRANCH  18  29
ATOM     22  C   UNL     1      50.211   4.907  17.764  0.00  0.00    +0.000 A 
ATOM     23  N   UNL     1      50.797   4.052  18.622  0.00  0.00    +0.000 NA
ATOM     24  C   UNL     1      52.127   4.070  18.718  0.00  0.00    +0.000 A 
ATOM     25  N   UNL     1      52.969   4.851  18.045  0.00  0.00    +0.000 NA
ATOM     26  C   UNL     1      52.345   5.687  17.199  0.00  0.00    +0.000 A 
ATOM     27  S   UNL     1      53.260   6.755  16.245  0.00  0.00    +0.000 S 
ATOM     28  C   UNL     1      51.860   7.406  15.538  0.00  0.00    +0.000 A 
ATOM     29  C   UNL     1      50.678   6.836  16.001  0.00  0.00    +0.000 A 
ATOM     30  C   UNL     1      50.975   5.797  16.983  0.00  0.00    +0.000 A 
BRANCH  22  32
ATOM     31  C   UNL     1      48.397   3.635  16.997  0.00  0.00    +0.000 C 
ATOM     32  O   UNL     1      48.843   4.842  17.610  0.00  0.00    +0.000 OA
ENDBRANCH  22  32
ENDBRANCH  18  29
ENDBRANCH   1  20
TORSDOF 8
ENDMDL
MODEL 5
REMARK VINA RESULT:    -6.951      2.152      3.469
REMARK INTER + INTRA:         -11.547
REMARK INTER:                 -10.442
REMARK INTRA:                  -1.105
REMARK UNBOUND:                -1.345
REMARK  Name = 
REMARK  9 active torsions:
REMARK  status: ('A' for Active; 'I' for Inactive)
REMARK    1  A    between atoms: C_1  and  O_2
REMARK    2  A    between atoms: O_2  and  C_3
REMARK    3  A    between atoms: C_10  and  C_11
REMARK    4  A    between atoms: N_13  and  C_14
REMARK    5  A    between atoms: C_14  and  C_15
REMARK    6  A    between atoms: C_18  and  N_19
REMARK    7  A    between atoms: N_19  and  C_20
REMARK    8  A    between atoms: C_20  and  C_21
REMARK    9  A    between atoms: C_21  and  N_22
REMARK                            x       y       z     vdW  Elec       q    Type
REMARK                         _______ _______ _______ _____ _____    ______ ____
ROOT
ATOM      1  C   UNL     1      47.282   4.029  15.216  0.00  0.00    +0.000 C 
ENDROOT
BRANCH   1   2
ATOM      2  C   UNL     1      46.634   4.527  13.950  0.00  0.00    +0.000 A 
ATOM      3  C   UNL     1      46.919   5.803  13.453  0.00  0.00    +0.000 A 
ATOM      4  C   UNL     1      46.374   6.236  12.237  0.00  0.00    +0.000 A 
ATOM      5  C   UNL     1      45.550   5.401  11.476  0.00  0.00    +0.000 A 
ATOM      6  C   UNL     1      45.172   4.178  12.038  0.00  0.00    +0.000 A 
ATOM      7  C   UNL     1      45.716   3.735  13.251  0.00  0.00    +0.000 A 
BRANCH   5   8
ATOM      8  N   UNL     1      45.014   5.753  10.232  0.00  0.00    +0.000 N 
ATOM      9  H   UNL     1      44.934   6.766  10.120  0.00  0.00    +0.000 HD
BRANCH   8  10
ATOM     10  C   UNL     1      45.616   5.153   9.035  0.00  0.00    +0.000 C 
BRANCH  10  11
ATOM     11  C   UNL     1      44.723   4.011   8.489  0.00  0.00    +0.000 C 
BRANCH  11  12
ATOM     12  N   UNL     1      45.456   3.016   7.675  0.00  0.00    +0.000 NA
ATOM     13  C   UNL     1      46.542   3.626   6.895  0.00  0.00    +0.000 C 
ATOM     14  C   UNL     1      47.165   2.591   5.961  0.00  0.00    +0.000 C 
ATOM     15  C   UNL     1      47.690   1.390   6.735  0.00  0.00    +0.000 C 
ATOM     16  C   UNL     1      46.617   0.839   7.671  0.00  0.00    +0.000 C 
ATOM     17  C   UNL     1      45.994   1.942   8.530  0.00  0.00    +0.000 C 
ENDBRANCH  11  12
ENDBRANCH  10  11
ENDBRANCH   8  10
ENDBRANCH   5   8
ENDBRANCH   1   2
BRANCH   1  20
ATOM     18  C   UNL     1      48.525   5.171  17.010  0.00  0.00    +0.000 C 
ATOM     19  O   UNL     1      49.421   4.334  16.979  0.00  0.00    +0.000 OA
ATOM     20  N   UNL     1      47.441   5.088  16.176  0.00  0.00    +0.000 N 
ATOM     21  H   UNL     1      46.672   5.733  16.284  0.00  0.00    +0.000 HD
BRANCH  18  29
ATOM     22  C   UNL     1      48.755   8.575  16.554  0.00  0.00    +0.000 A 
ATOM     23  N   UNL     1      48.876   9.911  16.663  0.00  0.00    +0.000 NA
ATOM     24  C   UNL     1      48.926  10.440  17.886  0.00  0.00    +0.000 A 
ATOM     25  N   UNL     1      48.866   9.788  19.045  0.00  0.00    +0.000 NA
ATOM     26  C   UNL     1      48.744   8.459  18.893  0.00  0.00    +0.000 A 
ATOM     27  S   UNL     1      48.642   7.462  20.264  0.00  0.00    +0.000 S 
ATOM     28  C   UNL     1      48.533   6.065  19.304  0.00  0.00    +0.000 A 
ATOM     29  C   UNL     1      48.571   6.316  17.937  0.00  0.00    +0.000 A 
ATOM     30  C   UNL     1      48.681   7.753  17.695  0.00  0.00    +0.000 A 
BRANCH  22  32
ATOM     31  C   UNL     1      49.882   7.743  14.674  0.00  0.00    +0.000 C 
ATOM     32  O   UNL     1      48.631   8.031  15.293  0.00  0.00    +0.000 OA
ENDBRANCH  22  32
ENDBRANCH  18  29
ENDBRANCH   1  20
TORSDOF 8
ENDMDL
MODEL 6
REMARK VINA RESULT:    -6.618      2.603      3.285
REMARK INTER + INTRA:         -11.058
REMARK INTER:                 -10.002
REMARK INTRA:                  -1.056
REMARK UNBOUND:                -1.345
REMARK  Name = 
REMARK  9 active torsions:
REMARK  status: ('A' for Active; 'I' for Inactive)
REMARK    1  A    between atoms: C_1  and  O_2
REMARK    2  A    between atoms: O_2  and  C_3
REMARK    3  A    between atoms: C_10  and  C_11
REMARK    4  A    between atoms: N_13  and  C_14
REMARK    5  A    between atoms: C_14  and  C_15
REMARK    6  A    between atoms: C_18  and  N_19
REMARK    7  A    between atoms: N_19  and  C_20
REMARK    8  A    between atoms: C_20  and  C_21
REMARK    9  A    between atoms: C_21  and  N_22
REMARK                            x       y       z     vdW  Elec       q    Type
REMARK                         _______ _______ _______ _____ _____    ______ ____
ROOT
ATOM      1  C   UNL     1      47.915   4.778  14.930  0.00  0.00    +0.000 C 
ENDROOT
BRANCH   1   2
ATOM      2  C   UNL     1      46.875   4.889  13.845  0.00  0.00    +0.000 A 
ATOM      3  C   UNL     1      46.563   6.129  13.275  0.00  0.00    +0.000 A 
ATOM      4  C   UNL     1      45.651   6.220  12.215  0.00  0.00    +0.000 A 
ATOM      5  C   UNL     1      45.044   5.078  11.683  0.00  0.00    +0.000 A 
ATOM      6  C   UNL     1      45.266   3.862  12.338  0.00  0.00    +0.000 A 
ATOM      7  C   UNL     1      46.180   3.761  13.395  0.00  0.00    +0.000 A 
BRANCH   5   8
ATOM      8  N   UNL     1      44.163   5.094  10.596  0.00  0.00    +0.000 N 
ATOM      9  H   UNL     1      44.260   5.943  10.035  0.00  0.00    +0.000 HD
BRANCH   8  10
ATOM     10  C   UNL     1      44.127   3.909   9.730  0.00  0.00    +0.000 C 
BRANCH  10  11
ATOM     11  C   UNL     1      44.649   4.253   8.313  0.00  0.00    +0.000 C 
BRANCH  11  12
ATOM     12  N   UNL     1      45.375   3.142   7.658  0.00  0.00    +0.000 NA
ATOM     13  C   UNL     1      46.563   3.607   6.927  0.00  0.00    +0.000 C 
ATOM     14  C   UNL     1      47.185   2.452   6.146  0.00  0.00    +0.000 C 
ATOM     15  C   UNL     1      47.557   1.297   7.067  0.00  0.00    +0.000 C 
ATOM     16  C   UNL     1      46.375   0.905   7.947  0.00  0.00    +0.000 C 
ATOM     17  C   UNL     1      45.762   2.121   8.648  0.00  0.00    +0.000 C 
ENDBRANCH  11  12
ENDBRANCH  10  11
ENDBRANCH   8  10
ENDBRANCH   5   8
ENDBRANCH   1   2
BRANCH   1  20
ATOM     18  C   UNL     1      48.877   6.711  16.115  0.00  0.00    +0.000 C 
ATOM     19  O   UNL     1      49.962   6.564  15.561  0.00  0.00    +0.000 OA
ATOM     20  N   UNL     1      47.824   5.873  15.858  0.00  0.00    +0.000 N 
ATOM     21  H   UNL     1      46.973   5.955  16.395  0.00  0.00    +0.000 HD
BRANCH  18  29
ATOM     22  C   UNL     1      47.969   6.783  19.434  0.00  0.00    +0.000 A 
ATOM     23  N   UNL     1      47.594   7.096  20.688  0.00  0.00    +0.000 NA
ATOM     24  C   UNL     1      47.490   8.386  21.010  0.00  0.00    +0.000 A 
ATOM     25  N   UNL     1      47.721   9.432  20.219  0.00  0.00    +0.000 NA
ATOM     26  C   UNL     1      48.094   9.077  18.978  0.00  0.00    +0.000 A 
ATOM     27  S   UNL     1      48.441  10.279  17.830  0.00  0.00    +0.000 S 
ATOM     28  C   UNL     1      48.783   9.116  16.639  0.00  0.00    +0.000 A 
ATOM     29  C   UNL     1      48.644   7.803  17.078  0.00  0.00    +0.000 A 
ATOM     30  C   UNL     1      48.247   7.785  18.484  0.00  0.00    +0.000 A 
BRANCH  22  32
ATOM     31  C   UNL     1      48.623   4.670  20.211  0.00  0.00    +0.000 C 
ATOM     32  O   UNL     1      48.148   5.453  19.119  0.00  0.00    +0.000 OA
ENDBRANCH  22  32
ENDBRANCH  18  29
ENDBRANCH   1  20
TORSDOF 8
ENDMDL
MODEL 7
REMARK VINA RESULT:    -6.374      3.116      5.593
REMARK INTER + INTRA:         -10.700
REMARK INTER:                  -9.519
REMARK INTRA:                  -1.181
REMARK UNBOUND:                -1.345
REMARK  Name = 
REMARK  9 active torsions:
REMARK  status: ('A' for Active; 'I' for Inactive)
REMARK    1  A    between atoms: C_1  and  O_2
REMARK    2  A    between atoms: O_2  and  C_3
REMARK    3  A    between atoms: C_10  and  C_11
REMARK    4  A    between atoms: N_13  and  C_14
REMARK    5  A    between atoms: C_14  and  C_15
REMARK    6  A    between atoms: C_18  and  N_19
REMARK    7  A    between atoms: N_19  and  C_20
REMARK    8  A    between atoms: C_20  and  C_21
REMARK    9  A    between atoms: C_21  and  N_22
REMARK                            x       y       z     vdW  Elec       q    Type
REMARK                         _______ _______ _______ _____ _____    ______ ____
ROOT
ATOM      1  C   UNL     1      47.815   3.276  17.205  0.00  0.00    +0.000 C 
ENDROOT
BRANCH   1   2
ATOM      2  C   UNL     1      47.765   4.331  16.130  0.00  0.00    +0.000 A 
ATOM      3  C   UNL     1      48.361   5.582  16.326  0.00  0.00    +0.000 A 
ATOM      4  C   UNL     1      48.380   6.534  15.298  0.00  0.00    +0.000 A 
ATOM      5  C   UNL     1      47.825   6.257  14.045  0.00  0.00    +0.000 A 
ATOM      6  C   UNL     1      47.124   5.055  13.899  0.00  0.00    +0.000 A 
ATOM      7  C   UNL     1      47.105   4.095  14.919  0.00  0.00    +0.000 A 
BRANCH   5   8
ATOM      8  N   UNL     1      47.852   7.144  12.962  0.00  0.00    +0.000 N 
ATOM      9  H   UNL     1      48.805   7.418  12.715  0.00  0.00    +0.000 HD
BRANCH   8  10
ATOM     10  C   UNL     1      47.098   6.774  11.759  0.00  0.00    +0.000 C 
BRANCH  10  11
ATOM     11  C   UNL     1      45.685   7.408  11.784  0.00  0.00    +0.000 C 
BRANCH  11  12
ATOM     12  N   UNL     1      44.589   6.431  11.595  0.00  0.00    +0.000 NA
ATOM     13  C   UNL     1      44.998   5.289  10.765  0.00  0.00    +0.000 C 
ATOM     14  C   UNL     1      43.795   4.394  10.473  0.00  0.00    +0.000 C 
ATOM     15  C   UNL     1      43.147   3.899  11.759  0.00  0.00    +0.000 C 
ATOM     16  C   UNL     1      42.859   5.064  12.702  0.00  0.00    +0.000 C 
ATOM     17  C   UNL     1      44.090   5.954  12.897  0.00  0.00    +0.000 C 
ENDBRANCH  11  12
ENDBRANCH  10  11
ENDBRANCH   8  10
ENDBRANCH   5   8
ENDBRANCH   1   2
BRANCH   1  20
ATOM     18  C   UNL     1      50.040   2.245  16.976  0.00  0.00    +0.000 C 
ATOM     19  O   UNL     1      49.714   1.673  15.940  0.00  0.00    +0.000 OA
ATOM     20  N   UNL     1      49.161   3.048  17.655  0.00  0.00    +0.000 N 
ATOM     21  H   UNL     1      49.421   3.431  18.553  0.00  0.00    +0.000 HD
BRANCH  18  29
ATOM     22  C   UNL     1      52.231   4.463  18.431  0.00  0.00    +0.000 A 
ATOM     23  N   UNL     1      53.273   5.109  18.988  0.00  0.00    +0.000 NA
ATOM     24  C   UNL     1      54.375   4.409  19.257  0.00  0.00    +0.000 A 
ATOM     25  N   UNL     1      54.576   3.111  19.038  0.00  0.00    +0.000 NA
ATOM     26  C   UNL     1      53.513   2.504  18.483  0.00  0.00    +0.000 A 
ATOM     27  S   UNL     1      53.580   0.842  18.139  0.00  0.00    +0.000 S 
ATOM     28  C   UNL     1      52.004   0.857  17.505  0.00  0.00    +0.000 A 
ATOM     29  C   UNL     1      51.395   2.107  17.539  0.00  0.00    +0.000 A 
ATOM     30  C   UNL     1      52.297   3.087  18.140  0.00  0.00    +0.000 A 
BRANCH  22  32
ATOM     31  C   UNL     1      50.657   5.943  19.342  0.00  0.00    +0.000 C 
ATOM     32  O   UNL     1      51.065   5.167  18.218  0.00  0.00    +0.000 OA
ENDBRANCH  22  32
ENDBRANCH  18  29
ENDBRANCH   1  20
TORSDOF 8
ENDMDL
MODEL 8
REMARK VINA RESULT:    -6.350      4.208      9.273
REMARK INTER + INTRA:         -10.665
REMARK INTER:                  -9.679
REMARK INTRA:                  -0.986
REMARK UNBOUND:                -1.345
REMARK  Name = 
REMARK  9 active torsions:
REMARK  status: ('A' for Active; 'I' for Inactive)
REMARK    1  A    between atoms: C_1  and  O_2
REMARK    2  A    between atoms: O_2  and  C_3
REMARK    3  A    between atoms: C_10  and  C_11
REMARK    4  A    between atoms: N_13  and  C_14
REMARK    5  A    between atoms: C_14  and  C_15
REMARK    6  A    between atoms: C_18  and  N_19
REMARK    7  A    between atoms: N_19  and  C_20
REMARK    8  A    between atoms: C_20  and  C_21
REMARK    9  A    between atoms: C_21  and  N_22
REMARK                            x       y       z     vdW  Elec       q    Type
REMARK                         _______ _______ _______ _____ _____    ______ ____
ROOT
ATOM      1  C   UNL     1      47.199   3.382  16.872  0.00  0.00    +0.000 C 
ENDROOT
BRANCH   1   2
ATOM      2  C   UNL     1      48.636   3.484  17.313  0.00  0.00    +0.000 A 
ATOM      3  C   UNL     1      49.532   2.434  17.085  0.00  0.00    +0.000 A 
ATOM      4  C   UNL     1      50.885   2.560  17.428  0.00  0.00    +0.000 A 
ATOM      5  C   UNL     1      51.382   3.742  17.986  0.00  0.00    +0.000 A 
ATOM      6  C   UNL     1      50.459   4.737  18.325  0.00  0.00    +0.000 A 
ATOM      7  C   UNL     1      49.106   4.621  17.981  0.00  0.00    +0.000 A 
BRANCH   5   8
ATOM      8  N   UNL     1      52.729   3.951  18.307  0.00  0.00    +0.000 N 
ATOM      9  H   UNL     1      52.990   4.937  18.245  0.00  0.00    +0.000 HD
BRANCH   8  10
ATOM     10  C   UNL     1      53.231   3.367  19.557  0.00  0.00    +0.000 C 
BRANCH  10  11
ATOM     11  C   UNL     1      54.534   2.570  19.301  0.00  0.00    +0.000 C 
BRANCH  11  12
ATOM     12  N   UNL     1      54.310   1.232  18.710  0.00  0.00    +0.000 NA
ATOM     13  C   UNL     1      54.634   1.194  17.277  0.00  0.00    +0.000 C 
ATOM     14  C   UNL     1      54.242  -0.157  16.684  0.00  0.00    +0.000 C 
ATOM     15  C   UNL     1      54.937  -1.303  17.407  0.00  0.00    +0.000 C 
ATOM     16  C   UNL     1      54.739  -1.189  18.915  0.00  0.00    +0.000 C 
ATOM     17  C   UNL     1      55.091   0.210  19.429  0.00  0.00    +0.000 C 
ENDBRANCH  11  12
ENDBRANCH  10  11
ENDBRANCH   8  10
ENDBRANCH   5   8
ENDBRANCH   1   2
BRANCH   1  20
ATOM     18  C   UNL     1      46.931   4.255  14.585  0.00  0.00    +0.000 C 
ATOM     19  O   UNL     1      47.295   3.191  14.092  0.00  0.00    +0.000 OA
ATOM     20  N   UNL     1      46.860   4.425  15.942  0.00  0.00    +0.000 N 
ATOM     21  H   UNL     1      46.650   5.336  16.324  0.00  0.00    +0.000 HD
BRANCH  18  29
ATOM     22  C   UNL     1      44.167   4.937  12.651  0.00  0.00    +0.000 A 
ATOM     23  N   UNL     1      43.241   5.433  11.810  0.00  0.00    +0.000 NA
ATOM     24  C   UNL     1      43.478   6.614  11.239  0.00  0.00    +0.000 A 
ATOM     25  N   UNL     1      44.550   7.386  11.407  0.00  0.00    +0.000 NA
ATOM     26  C   UNL     1      45.448   6.857  12.254  0.00  0.00    +0.000 A 
ATOM     27  S   UNL     1      46.877   7.707  12.601  0.00  0.00    +0.000 S 
ATOM     28  C   UNL     1      47.420   6.474  13.636  0.00  0.00    +0.000 A 
ATOM     29  C   UNL     1      46.542   5.401  13.744  0.00  0.00    +0.000 A 
ATOM     30  C   UNL     1      45.355   5.642  12.927  0.00  0.00    +0.000 A 
BRANCH  22  32
ATOM     31  C   UNL     1      43.552   2.687  12.414  0.00  0.00    +0.000 C 
ATOM     32  O   UNL     1      43.893   3.751  13.298  0.00  0.00    +0.000 OA
ENDBRANCH  22  32
ENDBRANCH  18  29
ENDBRANCH   1  20
TORSDOF 8
ENDMDL
MODEL 9
REMARK VINA RESULT:    -6.214      3.584      8.695
REMARK INTER + INTRA:         -10.466
REMARK INTER:                  -8.884
REMARK INTRA:                  -1.582
REMARK UNBOUND:                -1.345
REMARK  Name = 
REMARK  9 active torsions:
REMARK  status: ('A' for Active; 'I' for Inactive)
REMARK    1  A    between atoms: C_1  and  O_2
REMARK    2  A    between atoms: O_2  and  C_3
REMARK    3  A    between atoms: C_10  and  C_11
REMARK    4  A    between atoms: N_13  and  C_14
REMARK    5  A    between atoms: C_14  and  C_15
REMARK    6  A    between atoms: C_18  and  N_19
REMARK    7  A    between atoms: N_19  and  C_20
REMARK    8  A    between atoms: C_20  and  C_21
REMARK    9  A    between atoms: C_21  and  N_22
REMARK                            x       y       z     vdW  Elec       q    Type
REMARK                         _______ _______ _______ _____ _____    ______ ____
ROOT
ATOM      1  C   UNL     1      47.180   3.335  16.815  0.00  0.00    +0.000 C 
ENDROOT
BRANCH   1   2
ATOM      2  C   UNL     1      48.462   3.645  17.544  0.00  0.00    +0.000 A 
ATOM      3  C   UNL     1      49.656   3.002  17.198  0.00  0.00    +0.000 A 
ATOM      4  C   UNL     1      50.861   3.345  17.826  0.00  0.00    +0.000 A 
ATOM      5  C   UNL     1      50.910   4.349  18.798  0.00  0.00    +0.000 A 
ATOM      6  C   UNL     1      49.696   4.897  19.225  0.00  0.00    +0.000 A 
ATOM      7  C   UNL     1      48.487   4.564  18.599  0.00  0.00    +0.000 A 
BRANCH   5   8
ATOM      8  N   UNL     1      52.086   4.773  19.428  0.00  0.00    +0.000 N 
ATOM      9  H   UNL     1      52.905   4.260  19.097  0.00  0.00    +0.000 HD
BRANCH   8  10
ATOM     10  C   UNL     1      52.362   6.214  19.457  0.00  0.00    +0.000 C 
BRANCH  10  11
ATOM     11  C   UNL     1      52.898   6.695  18.085  0.00  0.00    +0.000 C 
BRANCH  11  12
ATOM     12  N   UNL     1      51.919   7.485  17.306  0.00  0.00    +0.000 NA
ATOM     13  C   UNL     1      51.286   6.694  16.241  0.00  0.00    +0.000 C 
ATOM     14  C   UNL     1      50.404   7.590  15.373  0.00  0.00    +0.000 C 
ATOM     15  C   UNL     1      49.340   8.293  16.204  0.00  0.00    +0.000 C 
ATOM     16  C   UNL     1      49.967   8.992  17.407  0.00  0.00    +0.000 C 
ATOM     17  C   UNL     1      50.887   8.052  18.192  0.00  0.00    +0.000 C 
ENDBRANCH  11  12
ENDBRANCH  10  11
ENDBRANCH   8  10
ENDBRANCH   5   8
ENDBRANCH   1   2
BRANCH   1  20
ATOM     18  C   UNL     1      46.909   4.225  14.534  0.00  0.00    +0.000 C 
ATOM     19  O   UNL     1      47.280   3.168  14.033  0.00  0.00    +0.000 OA
ATOM     20  N   UNL     1      46.835   4.384  15.893  0.00  0.00    +0.000 N 
ATOM     21  H   UNL     1      46.619   5.290  16.283  0.00  0.00    +0.000 HD
BRANCH  18  29
ATOM     22  C   UNL     1      44.104   4.941  12.672  0.00  0.00    +0.000 A 
ATOM     23  N   UNL     1      43.163   5.448  11.854  0.00  0.00    +0.000 NA
ATOM     24  C   UNL     1      43.400   6.625  11.276  0.00  0.00    +0.000 A 
ATOM     25  N   UNL     1      44.486   7.384  11.415  0.00  0.00    +0.000 NA
ATOM     26  C   UNL     1      45.399   6.844  12.240  0.00  0.00    +0.000 A 
ATOM     27  S   UNL     1      46.847   7.676  12.549  0.00  0.00    +0.000 S 
ATOM     28  C   UNL     1      47.401   6.437  13.571  0.00  0.00    +0.000 A 
ATOM     29  C   UNL     1      46.512   5.375  13.702  0.00  0.00    +0.000 A 
ATOM     30  C   UNL     1      45.308   5.631  12.916  0.00  0.00    +0.000 A 
BRANCH  22  32
ATOM     31  C   UNL     1      43.619   2.659  12.448  0.00  0.00    +0.000 C 
ATOM     32  O   UNL     1      43.832   3.759  13.328  0.00  0.00    +0.000 OA
ENDBRANCH  22  32
ENDBRANCH  18  29
ENDBRANCH   1  20
TORSDOF 8
ENDMDL
