MODEL 1
REMARK VINA RESULT:    -6.920      0.000      0.000
REMARK INTER + INTRA:          -8.563
REMARK INTER:                  -8.134
REMARK INTRA:                  -0.430
REMARK UNBOUND:                -0.430
REMARK  Name = 
REMARK  3 active torsions:
REMARK  status: ('A' for Active; 'I' for Inactive)
REMARK    1  A    between atoms: C_4  and  C_5
REMARK    2  A    between atoms: C_5  and  N_6
REMARK    3  A    between atoms: N_6  and  C_7
REMARK                            x       y       z     vdW  Elec       q    Type
REMARK                         _______ _______ _______ _____ _____    ______ ____
ROOT
ATOM      1  N   UNL     1      44.905   2.124   9.607  0.00  0.00    +0.000 N 
ATOM      2  H   UNL     1      45.362   1.632  10.371  0.00  0.00    +0.000 HD
ENDROOT
BRANCH   1   3
ATOM      3  C   UNL     1      45.735   2.231   8.484  0.00  0.00    +0.000 A 
ATOM      4  C   UNL     1      45.801   3.367   7.668  0.00  0.00    +0.000 A 
ATOM      5  C   UNL     1      46.611   3.398   6.527  0.00  0.00    +0.000 A 
ATOM      6  C   UNL     1      47.335   2.272   6.154  0.00  0.00    +0.000 A 
ATOM      7  C   UNL     1      47.243   1.114   6.919  0.00  0.00    +0.000 A 
ATOM      8  C   UNL     1      46.443   1.094   8.067  0.00  0.00    +0.000 A 
ENDBRANCH   1   3
BRANCH   1   9
ATOM      9  C   UNL     1      44.151   3.285  10.055  0.00  0.00    +0.000 C 
BRANCH   9  13
ATOM     10  C   UNL     1      46.494   5.458  12.959  0.00  0.00    +0.000 A 
ATOM     11  C   UNL     1      46.071   4.159  13.234  0.00  0.00    +0.000 A 
ATOM     12  C   UNL     1      45.291   3.467  12.306  0.00  0.00    +0.000 A 
ATOM     13  C   UNL     1      44.929   4.064  11.090  0.00  0.00    +0.000 A 
ATOM     14  C   UNL     1      45.352   5.378  10.831  0.00  0.00    +0.000 A 
ATOM     15  C   UNL     1      46.131   6.069  11.760  0.00  0.00    +0.000 A 
ENDBRANCH   9  13
ENDBRANCH   1   9
TORSDOF 3
ENDMDL
MODEL 2
REMARK VINA RESULT:    -6.886      0.845      5.368
REMARK INTER + INTRA:          -8.524
REMARK INTER:                  -8.113
REMARK INTRA:                  -0.411
REMARK UNBOUND:                -0.430
REMARK  Name = 
REMARK  3 active torsions:
REMARK  status: ('A' for Active; 'I' for Inactive)
REMARK    1  A    between atoms: C_4  and  C_5
REMARK    2  A    between atoms: C_5  and  N_6
REMARK    3  A    between atoms: N_6  and  C_7
REMARK                            x       y       z     vdW  Elec       q    Type
REMARK                         _______ _______ _______ _____ _____    ______ ____
ROOT
ATOM      1  N   UNL     1      44.950   2.525  10.623  0.00  0.00    +0.000 N 
ATOM      2  H   UNL     1      44.648   1.742  11.198  0.00  0.00    +0.000 HD
ENDROOT
BRANCH   1   3
ATOM      3  C   UNL     1      44.883   3.740  11.316  0.00  0.00    +0.000 A 
ATOM      4  C   UNL     1      44.423   4.936  10.751  0.00  0.00    +0.000 A 
ATOM      5  C   UNL     1      44.427   6.133  11.477  0.00  0.00    +0.000 A 
ATOM      6  C   UNL     1      44.937   6.164  12.769  0.00  0.00    +0.000 A 
ATOM      7  C   UNL     1      45.449   4.999  13.332  0.00  0.00    +0.000 A 
ATOM      8  C   UNL     1      45.428   3.803  12.607  0.00  0.00    +0.000 A 
ENDBRANCH   1   3
BRANCH   1   9
ATOM      9  C   UNL     1      44.449   2.449   9.258  0.00  0.00    +0.000 C 
BRANCH   9  13
ATOM     10  C   UNL     1      47.619   2.397   6.326  0.00  0.00    +0.000 A 
ATOM     11  C   UNL     1      47.381   1.275   7.117  0.00  0.00    +0.000 A 
ATOM     12  C   UNL     1      46.373   1.301   8.082  0.00  0.00    +0.000 A 
ATOM     13  C   UNL     1      45.589   2.449   8.266  0.00  0.00    +0.000 A 
ATOM     14  C   UNL     1      45.847   3.577   7.471  0.00  0.00    +0.000 A 
ATOM     15  C   UNL     1      46.856   3.549   6.507  0.00  0.00    +0.000 A 
ENDBRANCH   9  13
ENDBRANCH   1   9
TORSDOF 3
ENDMDL
MODEL 3
REMARK VINA RESULT:    -6.886      0.107      1.286
REMARK INTER + INTRA:          -8.523
REMARK INTER:                  -8.130
REMARK INTRA:                  -0.393
REMARK UNBOUND:                -0.430
REMARK  Name = 
REMARK  3 active torsions:
REMARK  status: ('A' for Active; 'I' for Inactive)
REMARK    1  A    between atoms: C_4  and  C_5
REMARK    2  A    between atoms: C_5  and  N_6
REMARK    3  A    between atoms: N_6  and  C_7
REMARK                            x       y       z     vdW  Elec       q    Type
REMARK                         _______ _______ _______ _____ _____    ______ ____
ROOT
ATOM      1  N   UNL     1      44.921   2.165   9.661  0.00  0.00    +0.000 N 
ATOM      2  H   UNL     1      45.449   1.763  10.432  0.00  0.00    +0.000 HD
ENDROOT
BRANCH   1   3
ATOM      3  C   UNL     1      45.662   2.181   8.472  0.00  0.00    +0.000 A 
ATOM      4  C   UNL     1      46.436   1.105   8.021  0.00  0.00    +0.000 A 
ATOM      5  C   UNL     1      47.198   1.197   6.850  0.00  0.00    +0.000 A 
ATOM      6  C   UNL     1      47.237   2.387   6.134  0.00  0.00    +0.000 A 
ATOM      7  C   UNL     1      46.517   3.486   6.592  0.00  0.00    +0.000 A 
ATOM      8  C   UNL     1      45.746   3.384   7.755  0.00  0.00    +0.000 A 
ENDBRANCH   1   3
BRANCH   1   9
ATOM      9  C   UNL     1      44.163   3.345  10.049  0.00  0.00    +0.000 C 
BRANCH   9  13
ATOM     10  C   UNL     1      46.413   5.568  12.990  0.00  0.00    +0.000 A 
ATOM     11  C   UNL     1      46.017   4.259  13.257  0.00  0.00    +0.000 A 
ATOM     12  C   UNL     1      45.267   3.550  12.317  0.00  0.00    +0.000 A 
ATOM     13  C   UNL     1      44.908   4.141  11.097  0.00  0.00    +0.000 A 
ATOM     14  C   UNL     1      45.303   5.464  10.845  0.00  0.00    +0.000 A 
ATOM     15  C   UNL     1      46.052   6.172  11.787  0.00  0.00    +0.000 A 
ENDBRANCH   9  13
ENDBRANCH   1   9
TORSDOF 3
ENDMDL
MODEL 4
REMARK VINA RESULT:    -6.712      1.051      1.842
REMARK INTER + INTRA:          -8.319
REMARK INTER:                  -7.851
REMARK INTRA:                  -0.468
REMARK UNBOUND:                -0.430
REMARK  Name = 
REMARK  3 active torsions:
REMARK  status: ('A' for Active; 'I' for Inactive)
REMARK    1  A    between atoms: C_4  and  C_5
REMARK    2  A    between atoms: C_5  and  N_6
REMARK    3  A    between atoms: N_6  and  C_7
REMARK                            x       y       z     vdW  Elec       q    Type
REMARK                         _______ _______ _______ _____ _____    ______ ____
ROOT
ATOM      1  N   UNL     1      44.092   4.501   9.133  0.00  0.00    +0.000 N 
ATOM      2  H   UNL     1      43.277   4.575   8.528  0.00  0.00    +0.000 HD
ENDROOT
BRANCH   1   3
ATOM      3  C   UNL     1      45.062   3.644   8.600  0.00  0.00    +0.000 A 
ATOM      4  C   UNL     1      46.023   4.039   7.662  0.00  0.00    +0.000 A 
ATOM      5  C   UNL     1      46.937   3.124   7.124  0.00  0.00    +0.000 A 
ATOM      6  C   UNL     1      46.874   1.783   7.482  0.00  0.00    +0.000 A 
ATOM      7  C   UNL     1      45.894   1.357   8.373  0.00  0.00    +0.000 A 
ATOM      8  C   UNL     1      44.993   2.279   8.917  0.00  0.00    +0.000 A 
ENDBRANCH   1   3
BRANCH   1   9
ATOM      9  C   UNL     1      43.742   4.401  10.542  0.00  0.00    +0.000 C 
BRANCH   9  13
ATOM     10  C   UNL     1      47.017   5.528  13.122  0.00  0.00    +0.000 A 
ATOM     11  C   UNL     1      46.644   6.356  12.065  0.00  0.00    +0.000 A 
ATOM     12  C   UNL     1      45.602   5.979  11.216  0.00  0.00    +0.000 A 
ATOM     13  C   UNL     1      44.919   4.770  11.415  0.00  0.00    +0.000 A 
ATOM     14  C   UNL     1      45.313   3.940  12.477  0.00  0.00    +0.000 A 
ATOM     15  C   UNL     1      46.355   4.318  13.325  0.00  0.00    +0.000 A 
ENDBRANCH   9  13
ENDBRANCH   1   9
TORSDOF 3
ENDMDL
MODEL 5
REMARK VINA RESULT:    -6.448      1.414      5.507
REMARK INTER + INTRA:          -8.008
REMARK INTER:                  -7.531
REMARK INTRA:                  -0.477
REMARK UNBOUND:                -0.430
REMARK  Name = 
REMARK  3 active torsions:
REMARK  status: ('A' for Active; 'I' for Inactive)
REMARK    1  A    between atoms: C_4  and  C_5
REMARK    2  A    between atoms: C_5  and  N_6
REMARK    3  A    between atoms: N_6  and  C_7
REMARK                            x       y       z     vdW  Elec       q    Type
REMARK                         _______ _______ _______ _____ _____    ______ ____
ROOT
ATOM      1  N   UNL     1      44.522   5.611  10.536  0.00  0.00    +0.000 N 
ATOM      2  H   UNL     1      44.794   6.222   9.770  0.00  0.00    +0.000 HD
ENDROOT
BRANCH   1   3
ATOM      3  C   UNL     1      45.492   5.574  11.546  0.00  0.00    +0.000 A 
ATOM      4  C   UNL     1      45.390   4.785  12.698  0.00  0.00    +0.000 A 
ATOM      5  C   UNL     1      46.367   4.828  13.699  0.00  0.00    +0.000 A 
ATOM      6  C   UNL     1      47.443   5.700  13.587  0.00  0.00    +0.000 A 
ATOM      7  C   UNL     1      47.538   6.533  12.477  0.00  0.00    +0.000 A 
ATOM      8  C   UNL     1      46.566   6.475  11.472  0.00  0.00    +0.000 A 
ENDBRANCH   1   3
BRANCH   1   9
ATOM      9  C   UNL     1      43.915   4.369  10.079  0.00  0.00    +0.000 C 
BRANCH   9  13
ATOM     10  C   UNL     1      46.670   2.287   7.486  0.00  0.00    +0.000 A 
ATOM     11  C   UNL     1      46.506   3.666   7.368  0.00  0.00    +0.000 A 
ATOM     12  C   UNL     1      45.596   4.335   8.189  0.00  0.00    +0.000 A 
ATOM     13  C   UNL     1      44.841   3.633   9.140  0.00  0.00    +0.000 A 
ATOM     14  C   UNL     1      45.008   2.242   9.240  0.00  0.00    +0.000 A 
ATOM     15  C   UNL     1      45.917   1.575   8.418  0.00  0.00    +0.000 A 
ENDBRANCH   9  13
ENDBRANCH   1   9
TORSDOF 3
ENDMDL
MODEL 6
REMARK VINA RESULT:    -5.663      1.743      2.855
REMARK INTER + INTRA:          -7.086
REMARK INTER:                  -6.771
REMARK INTRA:                  -0.314
REMARK UNBOUND:                -0.430
REMARK  Name = 
REMARK  3 active torsions:
REMARK  status: ('A' for Active; 'I' for Inactive)
REMARK    1  A    between atoms: C_4  and  C_5
REMARK    2  A    between atoms: C_5  and  N_6
REMARK    3  A    between atoms: N_6  and  C_7
REMARK                            x       y       z     vdW  Elec       q    Type
REMARK                         _______ _______ _______ _____ _____    ______ ____
ROOT
ATOM      1  N   UNL     1      44.630   5.144   9.818  0.00  0.00    +0.000 N 
ATOM      2  H   UNL     1      43.702   5.398   9.486  0.00  0.00    +0.000 HD
ENDROOT
BRANCH   1   3
ATOM      3  C   UNL     1      45.186   4.102   9.066  0.00  0.00    +0.000 A 
ATOM      4  C   UNL     1      45.036   2.746   9.382  0.00  0.00    +0.000 A 
ATOM      5  C   UNL     1      45.659   1.748   8.624  0.00  0.00    +0.000 A 
ATOM      6  C   UNL     1      46.484   2.092   7.560  0.00  0.00    +0.000 A 
ATOM      7  C   UNL     1      46.691   3.435   7.260  0.00  0.00    +0.000 A 
ATOM      8  C   UNL     1      46.054   4.427   8.013  0.00  0.00    +0.000 A 
ENDBRANCH   1   3
BRANCH   1   9
ATOM      9  C   UNL     1      44.720   5.109  11.270  0.00  0.00    +0.000 C 
BRANCH   9  13
ATOM     10  C   UNL     1      46.750   8.559  12.890  0.00  0.00    +0.000 A 
ATOM     11  C   UNL     1      45.473   8.691  12.348  0.00  0.00    +0.000 A 
ATOM     12  C   UNL     1      44.828   7.581  11.801  0.00  0.00    +0.000 A 
ATOM     13  C   UNL     1      45.451   6.324  11.793  0.00  0.00    +0.000 A 
ATOM     14  C   UNL     1      46.742   6.208  12.331  0.00  0.00    +0.000 A 
ATOM     15  C   UNL     1      47.386   7.319  12.877  0.00  0.00    +0.000 A 
ENDBRANCH   9  13
ENDBRANCH   1   9
TORSDOF 3
ENDMDL
MODEL 7
REMARK VINA RESULT:    -5.280      1.796      5.807
REMARK INTER + INTRA:          -6.636
REMARK INTER:                  -6.221
REMARK INTRA:                  -0.414
REMARK UNBOUND:                -0.430
REMARK  Name = 
REMARK  3 active torsions:
REMARK  status: ('A' for Active; 'I' for Inactive)
REMARK    1  A    between atoms: C_4  and  C_5
REMARK    2  A    between atoms: C_5  and  N_6
REMARK    3  A    between atoms: N_6  and  C_7
REMARK                            x       y       z     vdW  Elec       q    Type
REMARK                         _______ _______ _______ _____ _____    ______ ____
ROOT
ATOM      1  N   UNL     1      45.250   4.451  12.672  0.00  0.00    +0.000 N 
ATOM      2  H   UNL     1      45.104   3.922  13.528  0.00  0.00    +0.000 HD
ENDROOT
BRANCH   1   3
ATOM      3  C   UNL     1      45.776   5.723  12.926  0.00  0.00    +0.000 A 
ATOM      4  C   UNL     1      45.079   6.916  12.697  0.00  0.00    +0.000 A 
ATOM      5  C   UNL     1      45.674   8.163  12.922  0.00  0.00    +0.000 A 
ATOM      6  C   UNL     1      46.998   8.239  13.336  0.00  0.00    +0.000 A 
ATOM      7  C   UNL     1      47.728   7.069  13.521  0.00  0.00    +0.000 A 
ATOM      8  C   UNL     1      47.122   5.825  13.308  0.00  0.00    +0.000 A 
ENDBRANCH   1   3
BRANCH   1   9
ATOM      9  C   UNL     1      44.156   4.303  11.723  0.00  0.00    +0.000 C 
BRANCH   9  13
ATOM     10  C   UNL     1      45.760   3.036   7.919  0.00  0.00    +0.000 A 
ATOM     11  C   UNL     1      45.817   4.379   8.288  0.00  0.00    +0.000 A 
ATOM     12  C   UNL     1      45.275   4.792   9.507  0.00  0.00    +0.000 A 
ATOM     13  C   UNL     1      44.672   3.866  10.371  0.00  0.00    +0.000 A 
ATOM     14  C   UNL     1      44.611   2.519   9.981  0.00  0.00    +0.000 A 
ATOM     15  C   UNL     1      45.153   2.108   8.762  0.00  0.00    +0.000 A 
ENDBRANCH   9  13
ENDBRANCH   1   9
TORSDOF 3
ENDMDL
MODEL 8
REMARK VINA RESULT:    -5.077      2.161      5.982
REMARK INTER + INTRA:          -6.397
REMARK INTER:                  -6.030
REMARK INTRA:                  -0.367
REMARK UNBOUND:                -0.430
REMARK  Name = 
REMARK  3 active torsions:
REMARK  status: ('A' for Active; 'I' for Inactive)
REMARK    1  A    between atoms: C_4  and  C_5
REMARK    2  A    between atoms: C_5  and  N_6
REMARK    3  A    between atoms: N_6  and  C_7
REMARK                            x       y       z     vdW  Elec       q    Type
REMARK                         _______ _______ _______ _____ _____    ______ ____
ROOT
ATOM      1  N   UNL     1      45.799   3.874  13.279  0.00  0.00    +0.000 N 
ATOM      2  H   UNL     1      45.518   3.097  13.872  0.00  0.00    +0.000 HD
ENDROOT
BRANCH   1   3
ATOM      3  C   UNL     1      46.672   4.747  13.940  0.00  0.00    +0.000 A 
ATOM      4  C   UNL     1      47.257   5.869  13.340  0.00  0.00    +0.000 A 
ATOM      5  C   UNL     1      48.163   6.678  14.035  0.00  0.00    +0.000 A 
ATOM      6  C   UNL     1      48.538   6.350  15.333  0.00  0.00    +0.000 A 
ATOM      7  C   UNL     1      48.010   5.211  15.932  0.00  0.00    +0.000 A 
ATOM      8  C   UNL     1      47.093   4.415  15.237  0.00  0.00    +0.000 A 
ENDBRANCH   1   3
BRANCH   1   9
ATOM      9  C   UNL     1      44.696   4.416  12.498  0.00  0.00    +0.000 C 
BRANCH   9  13
ATOM     10  C   UNL     1      45.047   3.536   8.285  0.00  0.00    +0.000 A 
ATOM     11  C   UNL     1      44.497   2.593   9.152  0.00  0.00    +0.000 A 
ATOM     12  C   UNL     1      44.408   2.868  10.518  0.00  0.00    +0.000 A 
ATOM     13  C   UNL     1      44.865   4.090  11.032  0.00  0.00    +0.000 A 
ATOM     14  C   UNL     1      45.427   5.026  10.149  0.00  0.00    +0.000 A 
ATOM     15  C   UNL     1      45.516   4.749   8.784  0.00  0.00    +0.000 A 
ENDBRANCH   9  13
ENDBRANCH   1   9
TORSDOF 3
ENDMDL
MODEL 9
REMARK VINA RESULT:    -5.062      2.362      3.912
REMARK INTER + INTRA:          -6.380
REMARK INTER:                  -6.056
REMARK INTRA:                  -0.324
REMARK UNBOUND:                -0.430
REMARK  Name = 
REMARK  3 active torsions:
REMARK  status: ('A' for Active; 'I' for Inactive)
REMARK    1  A    between atoms: C_4  and  C_5
REMARK    2  A    between atoms: C_5  and  N_6
REMARK    3  A    between atoms: N_6  and  C_7
REMARK                            x       y       z     vdW  Elec       q    Type
REMARK                         _______ _______ _______ _____ _____    ______ ____
ROOT
ATOM      1  N   UNL     1      44.790   6.118  10.704  0.00  0.00    +0.000 N 
ATOM      2  H   UNL     1      43.885   6.574  10.619  0.00  0.00    +0.000 HD
ENDROOT
BRANCH   1   3
ATOM      3  C   UNL     1      44.802   4.861  10.087  0.00  0.00    +0.000 A 
ATOM      4  C   UNL     1      44.264   3.704  10.662  0.00  0.00    +0.000 A 
ATOM      5  C   UNL     1      44.352   2.463  10.020  0.00  0.00    +0.000 A 
ATOM      6  C   UNL     1      45.023   2.349   8.808  0.00  0.00    +0.000 A 
ATOM      7  C   UNL     1      45.611   3.476   8.243  0.00  0.00    +0.000 A 
ATOM      8  C   UNL     1      45.507   4.716   8.882  0.00  0.00    +0.000 A 
ENDBRANCH   1   3
BRANCH   1   9
ATOM      9  C   UNL     1      45.378   6.273  12.027  0.00  0.00    +0.000 C 
BRANCH   9  13
ATOM     10  C   UNL     1      48.382   9.371  11.870  0.00  0.00    +0.000 A 
ATOM     11  C   UNL     1      48.738   8.041  11.653  0.00  0.00    +0.000 A 
ATOM     12  C   UNL     1      47.771   7.037  11.729  0.00  0.00    +0.000 A 
ATOM     13  C   UNL     1      46.436   7.352  12.021  0.00  0.00    +0.000 A 
ATOM     14  C   UNL     1      46.093   8.694  12.249  0.00  0.00    +0.000 A 
ATOM     15  C   UNL     1      47.062   9.696  12.173  0.00  0.00    +0.000 A 
ENDBRANCH   9  13
ENDBRANCH   1   9
TORSDOF 3
ENDMDL
