MODEL 1
REMARK VINA RESULT:    -7.170      0.000      0.000
REMARK INTER + INTRA:          -9.947
REMARK INTER:                  -9.266
REMARK INTRA:                  -0.681
REMARK UNBOUND:                -0.681
REMARK  Name = 
REMARK  9 active torsions:
REMARK  status: ('A' for Active; 'I' for Inactive)
REMARK    1  A    between atoms: C_1  and  C_2
REMARK    2  A    between atoms: C_2  and  C_3
REMARK    3  A    between atoms: C_5  and  N_6
REMARK    4  A    between atoms: C_9  and  C_10
REMARK    5  A    between atoms: C_10  and  C_11
REMARK    6  A    between atoms: C_10  and  C_12
REMARK    7  A    between atoms: C_10  and  C_13
REMARK    8  A    between atoms: C_13  and  N_14
REMARK    9  A    between atoms: C_19  and  C_20
REMARK                            x       y       z     vdW  Elec       q    Type
REMARK                         _______ _______ _______ _____ _____    ______ ____
ROOT
ATOM      1  C   UNL     1      47.711   8.454  12.414  0.00  0.00    +0.000 C 
ATOM      2  C   UNL     1      47.837   8.293  13.949  0.00  0.00    +0.000 C 
ATOM      3  C   UNL     1      46.771   9.651  12.133  0.00  0.00    +0.000 C 
ENDROOT
BRANCH   1   7
ATOM      4  N   UNL     1      52.034   6.827  10.573  0.00  0.00    +0.000 N 
ATOM      5  C   UNL     1      51.237   7.920  10.968  0.00  0.00    +0.000 A 
ATOM      6  C   UNL     1      49.988   7.668  11.535  0.00  0.00    +0.000 A 
ATOM      7  C   UNL     1      49.109   8.729  11.823  0.00  0.00    +0.000 A 
ATOM      8  C   UNL     1      49.571  10.015  11.517  0.00  0.00    +0.000 A 
ATOM      9  C   UNL     1      50.854  10.182  11.025  0.00  0.00    +0.000 A 
ATOM     10  N   UNL     1      51.684   9.166  10.738  0.00  0.00    +0.000 NA
ATOM     11  H   UNL     1      52.378   6.371  11.414  0.00  0.00    +0.000 HD
BRANCH   4  16
ATOM     12  C   UNL     1      54.878   6.676   7.162  0.00  0.00    +0.000 C 
ATOM     13  C   UNL     1      53.718   5.929   7.816  0.00  0.00    +0.000 C 
ATOM     14  C   UNL     1      53.354   4.664   7.045  0.00  0.00    +0.000 C 
ATOM     15  C   UNL     1      52.501   6.836   8.139  0.00  0.00    +0.000 C 
ATOM     16  C   UNL     1      53.055   6.999   9.578  0.00  0.00    +0.000 C 
ATOM     17  C   UNL     1      53.872   5.709   9.351  0.00  0.00    +0.000 C 
ENDBRANCH   4  16
ENDBRANCH   1   7
BRANCH   1  18
ATOM     18  C   UNL     1      47.019   7.154  11.884  0.00  0.00    +0.000 C 
BRANCH  18  19
ATOM     19  N   UNL     1      46.234   6.478  12.914  0.00  0.00    +0.000 N 
ATOM     20  C   UNL     1      45.141   5.775  12.445  0.00  0.00    +0.000 A 
ATOM     21  N   UNL     1      44.039   5.829  13.204  0.00  0.00    +0.000 NA
ATOM     22  C   UNL     1      42.972   5.105  12.808  0.00  0.00    +0.000 A 
ATOM     23  C   UNL     1      42.969   4.331  11.680  0.00  0.00    +0.000 A 
ATOM     24  C   UNL     1      44.141   4.360  10.967  0.00  0.00    +0.000 A 
ATOM     25  N   UNL     1      45.235   5.079  11.313  0.00  0.00    +0.000 NA
ATOM     26  H   UNL     1      45.899   7.052  13.679  0.00  0.00    +0.000 HD
BRANCH  24  27
ATOM     27  C   UNL     1      44.271   3.545   9.718  0.00  0.00    +0.000 C 
ATOM     28  N   UNL     1      44.154   4.251   8.549  0.00  0.00    +0.000 N 
ATOM     29  O   UNL     1      44.475   2.344   9.736  0.00  0.00    +0.000 OA
ATOM     30  H   UNL     1      44.043   5.259   8.582  0.00  0.00    +0.000 HD
ATOM     31  H   UNL     1      44.284   3.775   7.668  0.00  0.00    +0.000 HD
ENDBRANCH  24  27
ENDBRANCH  18  19
ENDBRANCH   1  18
TORSDOF 5
ENDMDL
MODEL 2
REMARK VINA RESULT:    -6.988      4.373      7.578
REMARK INTER + INTRA:          -9.713
REMARK INTER:                  -8.801
REMARK INTRA:                  -0.912
REMARK UNBOUND:                -0.681
REMARK  Name = 
REMARK  9 active torsions:
REMARK  status: ('A' for Active; 'I' for Inactive)
REMARK    1  A    between atoms: C_1  and  C_2
REMARK    2  A    between atoms: C_2  and  C_3
REMARK    3  A    between atoms: C_5  and  N_6
REMARK    4  A    between atoms: C_9  and  C_10
REMARK    5  A    between atoms: C_10  and  C_11
REMARK    6  A    between atoms: C_10  and  C_12
REMARK    7  A    between atoms: C_10  and  C_13
REMARK    8  A    between atoms: C_13  and  N_14
REMARK    9  A    between atoms: C_19  and  C_20
REMARK                            x       y       z     vdW  Elec       q    Type
REMARK                         _______ _______ _______ _____ _____    ______ ____
ROOT
ATOM      1  C   UNL     1      50.573   8.159  15.207  0.00  0.00    +0.000 C 
ATOM      2  C   UNL     1      51.803   8.889  14.612  0.00  0.00    +0.000 C 
ATOM      3  C   UNL     1      49.855   9.136  16.169  0.00  0.00    +0.000 C 
ENDROOT
BRANCH   1   7
ATOM      4  N   UNL     1      46.492   5.840  13.565  0.00  0.00    +0.000 N 
ATOM      5  C   UNL     1      47.653   6.580  13.261  0.00  0.00    +0.000 A 
ATOM      6  C   UNL     1      48.527   6.912  14.296  0.00  0.00    +0.000 A 
ATOM      7  C   UNL     1      49.626   7.757  14.058  0.00  0.00    +0.000 A 
ATOM      8  C   UNL     1      49.778   8.218  12.745  0.00  0.00    +0.000 A 
ATOM      9  C   UNL     1      48.907   7.781  11.760  0.00  0.00    +0.000 A 
ATOM     10  N   UNL     1      47.851   6.985  11.995  0.00  0.00    +0.000 NA
ATOM     11  H   UNL     1      46.776   4.890  13.786  0.00  0.00    +0.000 HD
BRANCH   4  16
ATOM     12  C   UNL     1      42.889   5.195  11.045  0.00  0.00    +0.000 C 
ATOM     13  C   UNL     1      43.884   4.479  11.957  0.00  0.00    +0.000 C 
ATOM     14  C   UNL     1      43.555   2.997  12.098  0.00  0.00    +0.000 C 
ATOM     15  C   UNL     1      44.111   5.201  13.312  0.00  0.00    +0.000 C 
ATOM     16  C   UNL     1      45.354   5.890  12.691  0.00  0.00    +0.000 C 
ATOM     17  C   UNL     1      45.381   4.766  11.634  0.00  0.00    +0.000 C 
ENDBRANCH   4  16
ENDBRANCH   1   7
BRANCH   1  18
ATOM     18  C   UNL     1      51.128   6.962  16.049  0.00  0.00    +0.000 C 
BRANCH  18  19
ATOM     19  N   UNL     1      50.490   6.856  17.359  0.00  0.00    +0.000 N 
ATOM     20  C   UNL     1      49.795   5.681  17.575  0.00  0.00    +0.000 A 
ATOM     21  N   UNL     1      48.646   5.796  18.253  0.00  0.00    +0.000 NA
ATOM     22  C   UNL     1      47.972   4.661  18.534  0.00  0.00    +0.000 A 
ATOM     23  C   UNL     1      48.406   3.420  18.159  0.00  0.00    +0.000 A 
ATOM     24  C   UNL     1      49.584   3.417  17.455  0.00  0.00    +0.000 A 
ATOM     25  N   UNL     1      50.292   4.526  17.136  0.00  0.00    +0.000 NA
ATOM     26  H   UNL     1      49.866   7.610  17.623  0.00  0.00    +0.000 HD
BRANCH  24  27
ATOM     27  C   UNL     1      50.173   2.119  16.997  0.00  0.00    +0.000 C 
ATOM     28  N   UNL     1      51.122   1.587  17.830  0.00  0.00    +0.000 N 
ATOM     29  O   UNL     1      49.829   1.570  15.966  0.00  0.00    +0.000 OA
ATOM     30  H   UNL     1      51.335   2.050  18.708  0.00  0.00    +0.000 HD
ATOM     31  H   UNL     1      51.524   0.687  17.611  0.00  0.00    +0.000 HD
ENDBRANCH  24  27
ENDBRANCH  18  19
ENDBRANCH   1  18
TORSDOF 5
ENDMDL
MODEL 3
REMARK VINA RESULT:    -6.824      3.817      5.998
REMARK INTER + INTRA:          -9.499
REMARK INTER:                  -8.800
REMARK INTRA:                  -0.699
REMARK UNBOUND:                -0.681
REMARK  Name = 
REMARK  9 active torsions:
REMARK  status: ('A' for Active; 'I' for Inactive)
REMARK    1  A    between atoms: C_1  and  C_2
REMARK    2  A    between atoms: C_2  and  C_3
REMARK    3  A    between atoms: C_5  and  N_6
REMARK    4  A    between atoms: C_9  and  C_10
REMARK    5  A    between atoms: C_10  and  C_11
REMARK    6  A    between atoms: C_10  and  C_12
REMARK    7  A    between atoms: C_10  and  C_13
REMARK    8  A    between atoms: C_13  and  N_14
REMARK    9  A    between atoms: C_19  and  C_20
REMARK                            x       y       z     vdW  Elec       q    Type
REMARK                         _______ _______ _______ _____ _____    ______ ____
ROOT
ATOM      1  C   UNL     1      47.773   7.779  12.540  0.00  0.00    +0.000 C 
ATOM      2  C   UNL     1      46.890   9.024  12.272  0.00  0.00    +0.000 C 
ATOM      3  C   UNL     1      48.971   7.821  11.560  0.00  0.00    +0.000 C 
ENDROOT
BRANCH   1   7
ATOM      4  N   UNL     1      49.174   5.483  16.722  0.00  0.00    +0.000 N 
ATOM      5  C   UNL     1      48.918   6.696  16.050  0.00  0.00    +0.000 A 
ATOM      6  C   UNL     1      48.426   6.648  14.746  0.00  0.00    +0.000 A 
ATOM      7  C   UNL     1      48.280   7.830  13.996  0.00  0.00    +0.000 A 
ATOM      8  C   UNL     1      48.644   9.019  14.638  0.00  0.00    +0.000 A 
ATOM      9  C   UNL     1      49.053   8.985  15.961  0.00  0.00    +0.000 A 
ATOM     10  N   UNL     1      49.205   7.853  16.669  0.00  0.00    +0.000 NA
ATOM     11  H   UNL     1      48.280   5.057  16.951  0.00  0.00    +0.000 HD
BRANCH   4  16
ATOM     12  C   UNL     1      52.334   4.687  19.744  0.00  0.00    +0.000 C 
ATOM     13  C   UNL     1      51.697   4.134  18.470  0.00  0.00    +0.000 C 
ATOM     14  C   UNL     1      52.366   2.839  18.021  0.00  0.00    +0.000 C 
ATOM     15  C   UNL     1      51.556   5.189  17.341  0.00  0.00    +0.000 C 
ATOM     16  C   UNL     1      50.102   5.446  17.816  0.00  0.00    +0.000 C 
ATOM     17  C   UNL     1      50.141   4.063  18.502  0.00  0.00    +0.000 C 
ENDBRANCH   4  16
ENDBRANCH   1   7
BRANCH   1  18
ATOM     18  C   UNL     1      46.900   6.528  12.191  0.00  0.00    +0.000 C 
BRANCH  18  19
ATOM     19  N   UNL     1      46.251   6.645  10.888  0.00  0.00    +0.000 N 
ATOM     20  C   UNL     1      45.616   5.498  10.449  0.00  0.00    +0.000 A 
ATOM     21  N   UNL     1      45.719   5.235   9.140  0.00  0.00    +0.000 NA
ATOM     22  C   UNL     1      45.061   4.157   8.667  0.00  0.00    +0.000 A 
ATOM     23  C   UNL     1      44.307   3.332   9.457  0.00  0.00    +0.000 A 
ATOM     24  C   UNL     1      44.283   3.682  10.784  0.00  0.00    +0.000 A 
ATOM     25  N   UNL     1      44.935   4.745  11.311  0.00  0.00    +0.000 NA
ATOM     26  H   UNL     1      46.829   6.963  10.119  0.00  0.00    +0.000 HD
BRANCH  24  27
ATOM     27  C   UNL     1      43.483   2.867  11.752  0.00  0.00    +0.000 C 
ATOM     28  N   UNL     1      43.519   3.307  13.049  0.00  0.00    +0.000 N 
ATOM     29  O   UNL     1      42.840   1.890  11.413  0.00  0.00    +0.000 OA
ATOM     30  H   UNL     1      44.022   4.160  13.276  0.00  0.00    +0.000 HD
ATOM     31  H   UNL     1      42.961   2.838  13.747  0.00  0.00    +0.000 HD
ENDBRANCH  24  27
ENDBRANCH  18  19
ENDBRANCH   1  18
TORSDOF 5
ENDMDL
MODEL 4
REMARK VINA RESULT:    -6.683      4.159      7.091
REMARK INTER + INTRA:          -9.318
REMARK INTER:                  -8.978
REMARK INTRA:                  -0.340
REMARK UNBOUND:                -0.681
REMARK  Name = 
REMARK  9 active torsions:
REMARK  status: ('A' for Active; 'I' for Inactive)
REMARK    1  A    between atoms: C_1  and  C_2
REMARK    2  A    between atoms: C_2  and  C_3
REMARK    3  A    between atoms: C_5  and  N_6
REMARK    4  A    between atoms: C_9  and  C_10
REMARK    5  A    between atoms: C_10  and  C_11
REMARK    6  A    between atoms: C_10  and  C_12
REMARK    7  A    between atoms: C_10  and  C_13
REMARK    8  A    between atoms: C_13  and  N_14
REMARK    9  A    between atoms: C_19  and  C_20
REMARK                            x       y       z     vdW  Elec       q    Type
REMARK                         _______ _______ _______ _____ _____    ______ ____
ROOT
ATOM      1  C   UNL     1      46.876   7.438  12.666  0.00  0.00    +0.000 C 
ATOM      2  C   UNL     1      47.155   8.859  13.215  0.00  0.00    +0.000 C 
ATOM      3  C   UNL     1      47.732   7.240  11.392  0.00  0.00    +0.000 C 
ENDROOT
BRANCH   1   7
ATOM      4  N   UNL     1      49.258   6.238  16.862  0.00  0.00    +0.000 N 
ATOM      5  C   UNL     1      48.480   5.816  15.764  0.00  0.00    +0.000 A 
ATOM      6  C   UNL     1      48.152   6.747  14.778  0.00  0.00    +0.000 A 
ATOM      7  C   UNL     1      47.272   6.401  13.736  0.00  0.00    +0.000 A 
ATOM      8  C   UNL     1      46.774   5.093  13.757  0.00  0.00    +0.000 A 
ATOM      9  C   UNL     1      47.208   4.210  14.730  0.00  0.00    +0.000 A 
ATOM     10  N   UNL     1      48.038   4.548  15.732  0.00  0.00    +0.000 NA
ATOM     11  H   UNL     1      50.206   6.395  16.531  0.00  0.00    +0.000 HD
BRANCH   4  16
ATOM     12  C   UNL     1      48.712   4.640  20.973  0.00  0.00    +0.000 C 
ATOM     13  C   UNL     1      48.448   5.861  20.094  0.00  0.00    +0.000 C 
ATOM     14  C   UNL     1      47.718   6.960  20.859  0.00  0.00    +0.000 C 
ATOM     15  C   UNL     1      47.798   5.512  18.729  0.00  0.00    +0.000 C 
ATOM     16  C   UNL     1      49.215   5.510  18.099  0.00  0.00    +0.000 C 
ATOM     17  C   UNL     1      49.687   6.365  19.295  0.00  0.00    +0.000 C 
ENDBRANCH   4  16
ENDBRANCH   1   7
BRANCH   1  18
ATOM     18  C   UNL     1      45.367   7.409  12.250  0.00  0.00    +0.000 C 
BRANCH  18  19
ATOM     19  N   UNL     1      45.182   7.073  10.840  0.00  0.00    +0.000 N 
ATOM     20  C   UNL     1      45.073   5.721  10.573  0.00  0.00    +0.000 A 
ATOM     21  N   UNL     1      45.672   5.294   9.454  0.00  0.00    +0.000 NA
ATOM     22  C   UNL     1      45.534   3.992   9.132  0.00  0.00    +0.000 A 
ATOM     23  C   UNL     1      44.822   3.103   9.889  0.00  0.00    +0.000 A 
ATOM     24  C   UNL     1      44.263   3.640  11.022  0.00  0.00    +0.000 A 
ATOM     25  N   UNL     1      44.381   4.936  11.398  0.00  0.00    +0.000 NA
ATOM     26  H   UNL     1      45.870   7.438  10.192  0.00  0.00    +0.000 HD
BRANCH  24  27
ATOM     27  C   UNL     1      43.447   2.774  11.930  0.00  0.00    +0.000 C 
ATOM     28  N   UNL     1      43.480   3.127  13.253  0.00  0.00    +0.000 N 
ATOM     29  O   UNL     1      42.792   1.831  11.523  0.00  0.00    +0.000 OA
ATOM     30  H   UNL     1      43.992   3.957  13.538  0.00  0.00    +0.000 HD
ATOM     31  H   UNL     1      42.911   2.621  13.915  0.00  0.00    +0.000 HD
ENDBRANCH  24  27
ENDBRANCH  18  19
ENDBRANCH   1  18
TORSDOF 5
ENDMDL
MODEL 5
REMARK VINA RESULT:    -6.679      3.767      5.796
REMARK INTER + INTRA:          -9.312
REMARK INTER:                  -8.697
REMARK INTRA:                  -0.615
REMARK UNBOUND:                -0.681
REMARK  Name = 
REMARK  9 active torsions:
REMARK  status: ('A' for Active; 'I' for Inactive)
REMARK    1  A    between atoms: C_1  and  C_2
REMARK    2  A    between atoms: C_2  and  C_3
REMARK    3  A    between atoms: C_5  and  N_6
REMARK    4  A    between atoms: C_9  and  C_10
REMARK    5  A    between atoms: C_10  and  C_11
REMARK    6  A    between atoms: C_10  and  C_12
REMARK    7  A    between atoms: C_10  and  C_13
REMARK    8  A    between atoms: C_13  and  N_14
REMARK    9  A    between atoms: C_19  and  C_20
REMARK                            x       y       z     vdW  Elec       q    Type
REMARK                         _______ _______ _______ _____ _____    ______ ____
ROOT
ATOM      1  C   UNL     1      47.769   8.238  12.683  0.00  0.00    +0.000 C 
ATOM      2  C   UNL     1      48.103   9.683  12.235  0.00  0.00    +0.000 C 
ATOM      3  C   UNL     1      48.616   7.264  11.829  0.00  0.00    +0.000 C 
ENDROOT
BRANCH   1   7
ATOM      4  N   UNL     1      49.201   5.421  16.523  0.00  0.00    +0.000 N 
ATOM      5  C   UNL     1      48.782   6.684  16.054  0.00  0.00    +0.000 A 
ATOM      6  C   UNL     1      48.424   6.815  14.712  0.00  0.00    +0.000 A 
ATOM      7  C   UNL     1      48.127   8.082  14.175  0.00  0.00    +0.000 A 
ATOM      8  C   UNL     1      48.205   9.162  15.061  0.00  0.00    +0.000 A 
ATOM      9  C   UNL     1      48.496   8.935  16.395  0.00  0.00    +0.000 A 
ATOM     10  N   UNL     1      48.793   7.726  16.901  0.00  0.00    +0.000 NA
ATOM     11  H   UNL     1      48.385   4.816  16.560  0.00  0.00    +0.000 HD
BRANCH   4  16
ATOM     12  C   UNL     1      52.094   4.487  19.764  0.00  0.00    +0.000 C 
ATOM     13  C   UNL     1      51.615   4.031  18.386  0.00  0.00    +0.000 C 
ATOM     14  C   UNL     1      52.396   2.818  17.891  0.00  0.00    +0.000 C 
ATOM     15  C   UNL     1      51.525   5.182  17.350  0.00  0.00    +0.000 C 
ATOM     16  C   UNL     1      50.020   5.322  17.698  0.00  0.00    +0.000 C 
ATOM     17  C   UNL     1      50.070   3.883  18.254  0.00  0.00    +0.000 C 
ENDBRANCH   4  16
ENDBRANCH   1   7
BRANCH   1  18
ATOM     18  C   UNL     1      46.259   8.002  12.342  0.00  0.00    +0.000 C 
BRANCH  18  19
ATOM     19  N   UNL     1      45.685   6.885  13.087  0.00  0.00    +0.000 N 
ATOM     20  C   UNL     1      44.919   6.016  12.333  0.00  0.00    +0.000 A 
ATOM     21  N   UNL     1      43.818   5.538  12.928  0.00  0.00    +0.000 NA
ATOM     22  C   UNL     1      43.080   4.640  12.244  0.00  0.00    +0.000 A 
ATOM     23  C   UNL     1      43.402   4.206  10.988  0.00  0.00    +0.000 A 
ATOM     24  C   UNL     1      44.538   4.771  10.464  0.00  0.00    +0.000 A 
ATOM     25  N   UNL     1      45.307   5.685  11.103  0.00  0.00    +0.000 NA
ATOM     26  H   UNL     1      45.132   7.120  13.903  0.00  0.00    +0.000 HD
BRANCH  24  27
ATOM     27  C   UNL     1      45.006   4.371   9.100  0.00  0.00    +0.000 C 
ATOM     28  N   UNL     1      44.384   3.270   8.573  0.00  0.00    +0.000 N 
ATOM     29  O   UNL     1      45.870   4.982   8.497  0.00  0.00    +0.000 OA
ATOM     30  H   UNL     1      43.628   2.827   9.086  0.00  0.00    +0.000 HD
ATOM     31  H   UNL     1      44.611   2.975   7.634  0.00  0.00    +0.000 HD
ENDBRANCH  24  27
ENDBRANCH  18  19
ENDBRANCH   1  18
TORSDOF 5
ENDMDL
MODEL 6
REMARK VINA RESULT:    -6.509      4.020      7.370
REMARK INTER + INTRA:          -9.093
REMARK INTER:                  -8.662
REMARK INTRA:                  -0.432
REMARK UNBOUND:                -0.681
REMARK  Name = 
REMARK  9 active torsions:
REMARK  status: ('A' for Active; 'I' for Inactive)
REMARK    1  A    between atoms: C_1  and  C_2
REMARK    2  A    between atoms: C_2  and  C_3
REMARK    3  A    between atoms: C_5  and  N_6
REMARK    4  A    between atoms: C_9  and  C_10
REMARK    5  A    between atoms: C_10  and  C_11
REMARK    6  A    between atoms: C_10  and  C_12
REMARK    7  A    between atoms: C_10  and  C_13
REMARK    8  A    between atoms: C_13  and  N_14
REMARK    9  A    between atoms: C_19  and  C_20
REMARK                            x       y       z     vdW  Elec       q    Type
REMARK                         _______ _______ _______ _____ _____    ______ ____
ROOT
ATOM      1  C   UNL     1      48.526   7.785  13.132  0.00  0.00    +0.000 C 
ATOM      2  C   UNL     1      49.120   8.158  11.751  0.00  0.00    +0.000 C 
ATOM      3  C   UNL     1      47.897   9.061  13.743  0.00  0.00    +0.000 C 
ENDROOT
BRANCH   1   7
ATOM      4  N   UNL     1      45.179   5.474  10.271  0.00  0.00    +0.000 N 
ATOM      5  C   UNL     1      45.777   5.613  11.540  0.00  0.00    +0.000 A 
ATOM      6  C   UNL     1      46.730   6.615  11.726  0.00  0.00    +0.000 A 
ATOM      7  C   UNL     1      47.444   6.704  12.936  0.00  0.00    +0.000 A 
ATOM      8  C   UNL     1      47.131   5.749  13.909  0.00  0.00    +0.000 A 
ATOM      9  C   UNL     1      46.119   4.834  13.672  0.00  0.00    +0.000 A 
ATOM     10  N   UNL     1      45.449   4.744  12.510  0.00  0.00    +0.000 NA
ATOM     11  H   UNL     1      44.548   6.260  10.136  0.00  0.00    +0.000 HD
BRANCH   4  16
ATOM     12  C   UNL     1      44.101   1.460   8.698  0.00  0.00    +0.000 C 
ATOM     13  C   UNL     1      45.216   2.505   8.716  0.00  0.00    +0.000 C 
ATOM     14  C   UNL     1      46.437   2.041   7.928  0.00  0.00    +0.000 C 
ATOM     15  C   UNL     1      45.551   3.028  10.138  0.00  0.00    +0.000 C 
ATOM     16  C   UNL     1      44.596   4.222   9.880  0.00  0.00    +0.000 C 
ATOM     17  C   UNL     1      44.754   3.952   8.369  0.00  0.00    +0.000 C 
ENDBRANCH   4  16
ENDBRANCH   1   7
BRANCH   1  18
ATOM     18  C   UNL     1      49.730   7.353  14.034  0.00  0.00    +0.000 C 
BRANCH  18  19
ATOM     19  N   UNL     1      49.726   8.025  15.331  0.00  0.00    +0.000 N 
ATOM     20  C   UNL     1      49.308   7.242  16.391  0.00  0.00    +0.000 A 
ATOM     21  N   UNL     1      48.554   7.856  17.312  0.00  0.00    +0.000 NA
ATOM     22  C   UNL     1      48.180   7.138  18.390  0.00  0.00    +0.000 A 
ATOM     23  C   UNL     1      48.531   5.829  18.578  0.00  0.00    +0.000 A 
ATOM     24  C   UNL     1      49.289   5.293  17.568  0.00  0.00    +0.000 A 
ATOM     25  N   UNL     1      49.681   5.965  16.460  0.00  0.00    +0.000 NA
ATOM     26  H   UNL     1      49.205   8.892  15.392  0.00  0.00    +0.000 HD
BRANCH  24  27
ATOM     27  C   UNL     1      49.750   3.871  17.659  0.00  0.00    +0.000 C 
ATOM     28  N   UNL     1      49.125   3.119  18.619  0.00  0.00    +0.000 N 
ATOM     29  O   UNL     1      50.610   3.412  16.929  0.00  0.00    +0.000 OA
ATOM     30  H   UNL     1      48.373   3.528  19.165  0.00  0.00    +0.000 HD
ATOM     31  H   UNL     1      49.348   2.138  18.702  0.00  0.00    +0.000 HD
ENDBRANCH  24  27
ENDBRANCH  18  19
ENDBRANCH   1  18
TORSDOF 5
ENDMDL
MODEL 7
REMARK VINA RESULT:    -6.481      4.143      7.248
REMARK INTER + INTRA:          -9.057
REMARK INTER:                  -8.156
REMARK INTRA:                  -0.901
REMARK UNBOUND:                -0.681
REMARK  Name = 
REMARK  9 active torsions:
REMARK  status: ('A' for Active; 'I' for Inactive)
REMARK    1  A    between atoms: C_1  and  C_2
REMARK    2  A    between atoms: C_2  and  C_3
REMARK    3  A    between atoms: C_5  and  N_6
REMARK    4  A    between atoms: C_9  and  C_10
REMARK    5  A    between atoms: C_10  and  C_11
REMARK    6  A    between atoms: C_10  and  C_12
REMARK    7  A    between atoms: C_10  and  C_13
REMARK    8  A    between atoms: C_13  and  N_14
REMARK    9  A    between atoms: C_19  and  C_20
REMARK                            x       y       z     vdW  Elec       q    Type
REMARK                         _______ _______ _______ _____ _____    ______ ____
ROOT
ATOM      1  C   UNL     1      50.278   8.907  14.657  0.00  0.00    +0.000 C 
ATOM      2  C   UNL     1      51.501   8.484  13.805  0.00  0.00    +0.000 C 
ATOM      3  C   UNL     1      50.416  10.415  14.978  0.00  0.00    +0.000 C 
ENDROOT
BRANCH   1   7
ATOM      4  N   UNL     1      47.016   5.790  12.566  0.00  0.00    +0.000 N 
ATOM      5  C   UNL     1      47.429   7.120  12.787  0.00  0.00    +0.000 A 
ATOM      6  C   UNL     1      48.612   7.346  13.491  0.00  0.00    +0.000 A 
ATOM      7  C   UNL     1      48.992   8.654  13.844  0.00  0.00    +0.000 A 
ATOM      8  C   UNL     1      48.127   9.678  13.442  0.00  0.00    +0.000 A 
ATOM      9  C   UNL     1      47.011   9.374  12.681  0.00  0.00    +0.000 A 
ATOM     10  N   UNL     1      46.645   8.122  12.358  0.00  0.00    +0.000 NA
ATOM     11  H   UNL     1      47.641   5.378  11.878  0.00  0.00    +0.000 HD
BRANCH   4  16
ATOM     12  C   UNL     1      43.039   4.269  11.295  0.00  0.00    +0.000 C 
ATOM     13  C   UNL     1      44.540   4.060  11.110  0.00  0.00    +0.000 C 
ATOM     14  C   UNL     1      44.837   2.906  10.158  0.00  0.00    +0.000 C 
ATOM     15  C   UNL     1      45.323   3.983  12.448  0.00  0.00    +0.000 C 
ATOM     16  C   UNL     1      45.635   5.496  12.306  0.00  0.00    +0.000 C 
ATOM     17  C   UNL     1      45.342   5.359  10.797  0.00  0.00    +0.000 C 
ENDBRANCH   4  16
ENDBRANCH   1   7
BRANCH   1  18
ATOM     18  C   UNL     1      50.373   8.110  16.001  0.00  0.00    +0.000 C 
BRANCH  18  19
ATOM     19  N   UNL     1      51.058   6.829  15.845  0.00  0.00    +0.000 N 
ATOM     20  C   UNL     1      50.534   5.794  16.597  0.00  0.00    +0.000 A 
ATOM     21  N   UNL     1      51.424   4.948  17.131  0.00  0.00    +0.000 NA
ATOM     22  C   UNL     1      50.945   3.892  17.820  0.00  0.00    +0.000 A 
ATOM     23  C   UNL     1      49.609   3.654  17.994  0.00  0.00    +0.000 A 
ATOM     24  C   UNL     1      48.785   4.590  17.421  0.00  0.00    +0.000 A 
ATOM     25  N   UNL     1      49.214   5.674  16.731  0.00  0.00    +0.000 NA
ATOM     26  H   UNL     1      52.058   6.825  16.011  0.00  0.00    +0.000 HD
BRANCH  24  27
ATOM     27  C   UNL     1      47.300   4.437  17.529  0.00  0.00    +0.000 C 
ATOM     28  N   UNL     1      46.689   5.300  18.400  0.00  0.00    +0.000 N 
ATOM     29  O   UNL     1      46.676   3.614  16.883  0.00  0.00    +0.000 OA
ATOM     30  H   UNL     1      47.242   6.009  18.873  0.00  0.00    +0.000 HD
ATOM     31  H   UNL     1      45.683   5.290  18.484  0.00  0.00    +0.000 HD
ENDBRANCH  24  27
ENDBRANCH  18  19
ENDBRANCH   1  18
TORSDOF 5
ENDMDL
MODEL 8
REMARK VINA RESULT:    -5.837      3.678      6.336
REMARK INTER + INTRA:          -8.224
REMARK INTER:                  -7.510
REMARK INTRA:                  -0.714
REMARK UNBOUND:                -0.681
REMARK  Name = 
REMARK  9 active torsions:
REMARK  status: ('A' for Active; 'I' for Inactive)
REMARK    1  A    between atoms: C_1  and  C_2
REMARK    2  A    between atoms: C_2  and  C_3
REMARK    3  A    between atoms: C_5  and  N_6
REMARK    4  A    between atoms: C_9  and  C_10
REMARK    5  A    between atoms: C_10  and  C_11
REMARK    6  A    between atoms: C_10  and  C_12
REMARK    7  A    between atoms: C_10  and  C_13
REMARK    8  A    between atoms: C_13  and  N_14
REMARK    9  A    between atoms: C_19  and  C_20
REMARK                            x       y       z     vdW  Elec       q    Type
REMARK                         _______ _______ _______ _____ _____    ______ ____
ROOT
ATOM      1  C   UNL     1      48.979   9.532  12.499  0.00  0.00    +0.000 C 
ATOM      2  C   UNL     1      48.097  10.735  12.917  0.00  0.00    +0.000 C 
ATOM      3  C   UNL     1      50.145  10.069  11.635  0.00  0.00    +0.000 C 
ENDROOT
BRANCH   1   7
ATOM      4  N   UNL     1      48.263   7.448  16.957  0.00  0.00    +0.000 N 
ATOM      5  C   UNL     1      49.171   7.877  15.968  0.00  0.00    +0.000 A 
ATOM      6  C   UNL     1      48.674   8.525  14.837  0.00  0.00    +0.000 A 
ATOM      7  C   UNL     1      49.530   8.851  13.768  0.00  0.00    +0.000 A 
ATOM      8  C   UNL     1      50.875   8.498  13.925  0.00  0.00    +0.000 A 
ATOM      9  C   UNL     1      51.300   7.924  15.111  0.00  0.00    +0.000 A 
ATOM     10  N   UNL     1      50.477   7.601  16.123  0.00  0.00    +0.000 NA
ATOM     11  H   UNL     1      47.914   8.273  17.439  0.00  0.00    +0.000 HD
BRANCH   4  16
ATOM     12  C   UNL     1      48.869   3.711  19.285  0.00  0.00    +0.000 C 
ATOM     13  C   UNL     1      48.089   4.306  18.113  0.00  0.00    +0.000 C 
ATOM     14  C   UNL     1      47.179   3.273  17.459  0.00  0.00    +0.000 C 
ATOM     15  C   UNL     1      48.981   5.081  17.107  0.00  0.00    +0.000 C 
ATOM     16  C   UNL     1      48.622   6.390  17.858  0.00  0.00    +0.000 C 
ATOM     17  C   UNL     1      47.385   5.661  18.424  0.00  0.00    +0.000 C 
ENDBRANCH   4  16
ENDBRANCH   1   7
BRANCH   1  18
ATOM     18  C   UNL     1      48.085   8.615  11.598  0.00  0.00    +0.000 C 
BRANCH  18  19
ATOM     19  N   UNL     1      48.363   7.195  11.795  0.00  0.00    +0.000 N 
ATOM     20  C   UNL     1      47.311   6.463  12.314  0.00  0.00    +0.000 A 
ATOM     21  N   UNL     1      47.638   5.517  13.204  0.00  0.00    +0.000 NA
ATOM     22  C   UNL     1      46.644   4.743  13.685  0.00  0.00    +0.000 A 
ATOM     23  C   UNL     1      45.336   4.883  13.309  0.00  0.00    +0.000 A 
ATOM     24  C   UNL     1      45.108   5.892  12.406  0.00  0.00    +0.000 A 
ATOM     25  N   UNL     1      46.068   6.705  11.903  0.00  0.00    +0.000 NA
ATOM     26  H   UNL     1      49.176   6.964  12.355  0.00  0.00    +0.000 HD
BRANCH  24  27
ATOM     27  C   UNL     1      43.720   6.141  11.905  0.00  0.00    +0.000 C 
ATOM     28  N   UNL     1      43.544   7.332  11.252  0.00  0.00    +0.000 N 
ATOM     29  O   UNL     1      42.815   5.341  12.056  0.00  0.00    +0.000 OA
ATOM     30  H   UNL     1      44.341   7.942  11.097  0.00  0.00    +0.000 HD
ATOM     31  H   UNL     1      42.646   7.543  10.840  0.00  0.00    +0.000 HD
ENDBRANCH  24  27
ENDBRANCH  18  19
ENDBRANCH   1  18
TORSDOF 5
ENDMDL
MODEL 9
REMARK VINA RESULT:    -5.812      3.541      4.824
REMARK INTER + INTRA:          -8.193
REMARK INTER:                  -7.335
REMARK INTRA:                  -0.858
REMARK UNBOUND:                -0.681
REMARK  Name = 
REMARK  9 active torsions:
REMARK  status: ('A' for Active; 'I' for Inactive)
REMARK    1  A    between atoms: C_1  and  C_2
REMARK    2  A    between atoms: C_2  and  C_3
REMARK    3  A    between atoms: C_5  and  N_6
REMARK    4  A    between atoms: C_9  and  C_10
REMARK    5  A    between atoms: C_10  and  C_11
REMARK    6  A    between atoms: C_10  and  C_12
REMARK    7  A    between atoms: C_10  and  C_13
REMARK    8  A    between atoms: C_13  and  N_14
REMARK    9  A    between atoms: C_19  and  C_20
REMARK                            x       y       z     vdW  Elec       q    Type
REMARK                         _______ _______ _______ _____ _____    ______ ____
ROOT
ATOM      1  C   UNL     1      46.837   6.648  12.319  0.00  0.00    +0.000 C 
ATOM      2  C   UNL     1      45.793   7.397  13.186  0.00  0.00    +0.000 C 
ATOM      3  C   UNL     1      46.146   6.215  11.004  0.00  0.00    +0.000 C 
ENDROOT
BRANCH   1   7
ATOM      4  N   UNL     1      51.650   7.427  11.341  0.00  0.00    +0.000 N 
ATOM      5  C   UNL     1      50.372   7.974  11.580  0.00  0.00    +0.000 A 
ATOM      6  C   UNL     1      49.322   7.112  11.894  0.00  0.00    +0.000 A 
ATOM      7  C   UNL     1      48.008   7.603  12.012  0.00  0.00    +0.000 A 
ATOM      8  C   UNL     1      47.842   8.978  11.807  0.00  0.00    +0.000 A 
ATOM      9  C   UNL     1      48.949   9.775  11.573  0.00  0.00    +0.000 A 
ATOM     10  N   UNL     1      50.200   9.300  11.447  0.00  0.00    +0.000 NA
ATOM     11  H   UNL     1      52.024   7.106  12.230  0.00  0.00    +0.000 HD
BRANCH   4  16
ATOM     12  C   UNL     1      54.859   8.932   8.661  0.00  0.00    +0.000 C 
ATOM     13  C   UNL     1      54.200   7.655   9.176  0.00  0.00    +0.000 C 
ATOM     14  C   UNL     1      54.832   6.408   8.566  0.00  0.00    +0.000 C 
ATOM     15  C   UNL     1      52.651   7.678   9.088  0.00  0.00    +0.000 C 
ATOM     16  C   UNL     1      52.613   8.154  10.563  0.00  0.00    +0.000 C 
ATOM     17  C   UNL     1      54.040   7.587  10.725  0.00  0.00    +0.000 C 
ENDBRANCH   4  16
ENDBRANCH   1   7
BRANCH   1  18
ATOM     18  C   UNL     1      47.232   5.358  13.112  0.00  0.00    +0.000 C 
BRANCH  18  19
ATOM     19  N   UNL     1      46.434   5.178  14.322  0.00  0.00    +0.000 N 
ATOM     20  C   UNL     1      47.146   4.773  15.435  0.00  0.00    +0.000 A 
ATOM     21  N   UNL     1      46.536   3.885  16.231  0.00  0.00    +0.000 NA
ATOM     22  C   UNL     1      47.178   3.515  17.358  0.00  0.00    +0.000 A 
ATOM     23  C   UNL     1      48.407   3.998  17.715  0.00  0.00    +0.000 A 
ATOM     24  C   UNL     1      48.949   4.888  16.822  0.00  0.00    +0.000 A 
ATOM     25  N   UNL     1      48.353   5.284  15.672  0.00  0.00    +0.000 NA
ATOM     26  H   UNL     1      45.636   4.557  14.252  0.00  0.00    +0.000 HD
BRANCH  24  27
ATOM     27  C   UNL     1      50.286   5.501  17.103  0.00  0.00    +0.000 C 
ATOM     28  N   UNL     1      50.260   6.839  17.398  0.00  0.00    +0.000 N 
ATOM     29  O   UNL     1      51.320   4.858  17.080  0.00  0.00    +0.000 OA
ATOM     30  H   UNL     1      49.369   7.321  17.463  0.00  0.00    +0.000 HD
ATOM     31  H   UNL     1      51.119   7.307  17.650  0.00  0.00    +0.000 HD
ENDBRANCH  24  27
ENDBRANCH  18  19
ENDBRANCH   1  18
TORSDOF 5
ENDMDL
