MODEL 1
REMARK VINA RESULT:    -7.665      0.000      0.000
REMARK INTER + INTRA:         -10.664
REMARK INTER:                 -10.129
REMARK INTRA:                  -0.535
REMARK UNBOUND:                -0.535
REMARK  Name = 
REMARK  6 active torsions:
REMARK  status: ('A' for Active; 'I' for Inactive)
REMARK    1  A    between atoms: O_1  and  C_2
REMARK    2  A    between atoms: C_2  and  C_3
REMARK    3  A    between atoms: C_3  and  O_4
REMARK    4  A    between atoms: O_4  and  C_5
REMARK    5  A    between atoms: C_9  and  C_10
REMARK    6  A    between atoms: C_10  and  N_11
REMARK                            x       y       z     vdW  Elec       q    Type
REMARK                         _______ _______ _______ _____ _____    ______ ____
ROOT
ATOM      1  C   UNL     1      45.642   3.769   8.189  0.00  0.00    +0.000 A 
ATOM      2  C   UNL     1      45.138   2.490   8.420  0.00  0.00    +0.000 A 
ATOM      3  C   UNL     1      44.346   2.237   9.539  0.00  0.00    +0.000 A 
ATOM      4  C   UNL     1      44.081   3.252  10.455  0.00  0.00    +0.000 A 
ATOM      5  C   UNL     1      44.625   4.531  10.273  0.00  0.00    +0.000 A 
ATOM      6  C   UNL     1      45.379   4.786   9.115  0.00  0.00    +0.000 A 
ENDROOT
BRANCH   1   7
ATOM      7  O   UNL     1      46.403   4.140   7.110  0.00  0.00    +0.000 OA
BRANCH   7   8
ATOM      8  C   UNL     1      46.746   3.089   6.204  0.00  0.00    +0.000 C 
BRANCH   8   9
ATOM      9  C   UNL     1      48.075   2.466   6.611  0.00  0.00    +0.000 C 
BRANCH   9  10
ATOM     10  O   UNL     1      48.595   1.708   5.525  0.00  0.00    +0.000 OA
ATOM     11  H   UNL     1      49.038   2.333   4.926  0.00  0.00    +0.000 HD
ENDBRANCH   9  10
ENDBRANCH   8   9
ENDBRANCH   7   8
ENDBRANCH   1   7
BRANCH   5  12
ATOM     12  C   UNL     1      44.445   5.597  11.326  0.00  0.00    +0.000 C 
BRANCH  12  13
ATOM     13  N   UNL     1      45.469   5.511  12.365  0.00  0.00    +0.000 N 
ATOM     14  C   UNL     1      45.402   4.650  13.437  0.00  0.00    +0.000 A 
ATOM     15  C   UNL     1      46.572   4.766  14.159  0.00  0.00    +0.000 A 
ATOM     16  C   UNL     1      47.381   5.715  13.497  0.00  0.00    +0.000 A 
ATOM     17  N   UNL     1      48.626   6.133  13.828  0.00  0.00    +0.000 NA
ATOM     18  C   UNL     1      49.162   7.044  12.987  0.00  0.00    +0.000 A 
ATOM     19  C   UNL     1      48.538   7.562  11.862  0.00  0.00    +0.000 A 
ATOM     20  C   UNL     1      47.255   7.131  11.530  0.00  0.00    +0.000 A 
ATOM     21  C   UNL     1      46.680   6.176  12.381  0.00  0.00    +0.000 A 
ENDBRANCH  12  13
ENDBRANCH   5  12
TORSDOF 6
ENDMDL
MODEL 2
REMARK VINA RESULT:    -7.102      1.060      1.892
REMARK INTER + INTRA:          -9.920
REMARK INTER:                  -9.394
REMARK INTRA:                  -0.526
REMARK UNBOUND:                -0.535
REMARK  Name = 
REMARK  6 active torsions:
REMARK  status: ('A' for Active; 'I' for Inactive)
REMARK    1  A    between atoms: O_1  and  C_2
REMARK    2  A    between atoms: C_2  and  C_3
REMARK    3  A    between atoms: C_3  and  O_4
REMARK    4  A    between atoms: O_4  and  C_5
REMARK    5  A    between atoms: C_9  and  C_10
REMARK    6  A    between atoms: C_10  and  N_11
REMARK                            x       y       z     vdW  Elec       q    Type
REMARK                         _______ _______ _______ _____ _____    ______ ____
ROOT
ATOM      1  C   UNL     1      45.489   3.617   8.308  0.00  0.00    +0.000 A 
ATOM      2  C   UNL     1      45.244   2.292   8.665  0.00  0.00    +0.000 A 
ATOM      3  C   UNL     1      44.422   1.996   9.752  0.00  0.00    +0.000 A 
ATOM      4  C   UNL     1      43.868   3.023  10.512  0.00  0.00    +0.000 A 
ATOM      5  C   UNL     1      44.147   4.362  10.206  0.00  0.00    +0.000 A 
ATOM      6  C   UNL     1      44.935   4.647   9.077  0.00  0.00    +0.000 A 
ENDROOT
BRANCH   1   7
ATOM      7  O   UNL     1      46.252   4.025   7.243  0.00  0.00    +0.000 OA
BRANCH   7   8
ATOM      8  C   UNL     1      46.614   3.001   6.314  0.00  0.00    +0.000 C 
BRANCH   8   9
ATOM      9  C   UNL     1      47.979   2.431   6.676  0.00  0.00    +0.000 C 
BRANCH   9  10
ATOM     10  O   UNL     1      48.598   1.904   5.507  0.00  0.00    +0.000 OA
ATOM     11  H   UNL     1      49.176   2.601   5.151  0.00  0.00    +0.000 HD
ENDBRANCH   9  10
ENDBRANCH   8   9
ENDBRANCH   7   8
ENDBRANCH   1   7
BRANCH   5  12
ATOM     12  C   UNL     1      43.652   5.472  11.100  0.00  0.00    +0.000 C 
BRANCH  12  13
ATOM     13  N   UNL     1      44.757   6.238  11.675  0.00  0.00    +0.000 N 
ATOM     14  C   UNL     1      44.972   7.575  11.427  0.00  0.00    +0.000 A 
ATOM     15  C   UNL     1      46.035   7.992  12.201  0.00  0.00    +0.000 A 
ATOM     16  C   UNL     1      46.468   6.879  12.955  0.00  0.00    +0.000 A 
ATOM     17  N   UNL     1      47.467   6.821  13.868  0.00  0.00    +0.000 NA
ATOM     18  C   UNL     1      47.638   5.613  14.447  0.00  0.00    +0.000 A 
ATOM     19  C   UNL     1      46.894   4.476  14.166  0.00  0.00    +0.000 A 
ATOM     20  C   UNL     1      45.871   4.542  13.222  0.00  0.00    +0.000 A 
ATOM     21  C   UNL     1      45.665   5.789  12.614  0.00  0.00    +0.000 A 
ENDBRANCH  12  13
ENDBRANCH   5  12
TORSDOF 6
ENDMDL
MODEL 3
REMARK VINA RESULT:    -7.044      3.321      6.499
REMARK INTER + INTRA:          -9.844
REMARK INTER:                  -9.100
REMARK INTRA:                  -0.744
REMARK UNBOUND:                -0.535
REMARK  Name = 
REMARK  6 active torsions:
REMARK  status: ('A' for Active; 'I' for Inactive)
REMARK    1  A    between atoms: O_1  and  C_2
REMARK    2  A    between atoms: C_2  and  C_3
REMARK    3  A    between atoms: C_3  and  O_4
REMARK    4  A    between atoms: O_4  and  C_5
REMARK    5  A    between atoms: C_9  and  C_10
REMARK    6  A    between atoms: C_10  and  N_11
REMARK                            x       y       z     vdW  Elec       q    Type
REMARK                         _______ _______ _______ _____ _____    ______ ____
ROOT
ATOM      1  C   UNL     1      47.756   5.938  13.891  0.00  0.00    +0.000 A 
ATOM      2  C   UNL     1      48.577   6.794  13.161  0.00  0.00    +0.000 A 
ATOM      3  C   UNL     1      48.055   7.538  12.103  0.00  0.00    +0.000 A 
ATOM      4  C   UNL     1      46.717   7.402  11.744  0.00  0.00    +0.000 A 
ATOM      5  C   UNL     1      45.886   6.504  12.427  0.00  0.00    +0.000 A 
ATOM      6  C   UNL     1      46.412   5.798  13.523  0.00  0.00    +0.000 A 
ENDROOT
BRANCH   1   7
ATOM      7  O   UNL     1      48.150   5.183  14.967  0.00  0.00    +0.000 OA
BRANCH   7   8
ATOM      8  C   UNL     1      47.170   4.275  15.477  0.00  0.00    +0.000 C 
BRANCH   8   9
ATOM      9  C   UNL     1      47.222   4.258  16.999  0.00  0.00    +0.000 C 
BRANCH   9  10
ATOM     10  O   UNL     1      46.480   3.144  17.486  0.00  0.00    +0.000 OA
ATOM     11  H   UNL     1      46.235   2.606  16.714  0.00  0.00    +0.000 HD
ENDBRANCH   9  10
ENDBRANCH   8   9
ENDBRANCH   7   8
ENDBRANCH   1   7
BRANCH   5  12
ATOM     12  C   UNL     1      44.472   6.261  11.961  0.00  0.00    +0.000 C 
BRANCH  12  13
ATOM     13  N   UNL     1      44.274   4.880  11.523  0.00  0.00    +0.000 N 
ATOM     14  C   UNL     1      43.528   3.956  12.219  0.00  0.00    +0.000 A 
ATOM     15  C   UNL     1      43.476   2.795  11.476  0.00  0.00    +0.000 A 
ATOM     16  C   UNL     1      44.199   3.026  10.285  0.00  0.00    +0.000 A 
ATOM     17  N   UNL     1      44.398   2.180   9.246  0.00  0.00    +0.000 NA
ATOM     18  C   UNL     1      45.122   2.691   8.227  0.00  0.00    +0.000 A 
ATOM     19  C   UNL     1      45.660   3.970   8.187  0.00  0.00    +0.000 A 
ATOM     20  C   UNL     1      45.455   4.833   9.262  0.00  0.00    +0.000 A 
ATOM     21  C   UNL     1      44.696   4.330  10.329  0.00  0.00    +0.000 A 
ENDBRANCH  12  13
ENDBRANCH   5  12
TORSDOF 6
ENDMDL
MODEL 4
REMARK VINA RESULT:    -6.382      3.307      6.348
REMARK INTER + INTRA:          -8.968
REMARK INTER:                  -8.636
REMARK INTRA:                  -0.333
REMARK UNBOUND:                -0.535
REMARK  Name = 
REMARK  6 active torsions:
REMARK  status: ('A' for Active; 'I' for Inactive)
REMARK    1  A    between atoms: O_1  and  C_2
REMARK    2  A    between atoms: C_2  and  C_3
REMARK    3  A    between atoms: C_3  and  O_4
REMARK    4  A    between atoms: O_4  and  C_5
REMARK    5  A    between atoms: C_9  and  C_10
REMARK    6  A    between atoms: C_10  and  N_11
REMARK                            x       y       z     vdW  Elec       q    Type
REMARK                         _______ _______ _______ _____ _____    ______ ____
ROOT
ATOM      1  C   UNL     1      45.149   5.050  13.027  0.00  0.00    +0.000 A 
ATOM      2  C   UNL     1      43.944   5.737  13.159  0.00  0.00    +0.000 A 
ATOM      3  C   UNL     1      42.833   5.363  12.404  0.00  0.00    +0.000 A 
ATOM      4  C   UNL     1      42.930   4.323  11.483  0.00  0.00    +0.000 A 
ATOM      5  C   UNL     1      44.147   3.656  11.291  0.00  0.00    +0.000 A 
ATOM      6  C   UNL     1      45.245   4.009  12.095  0.00  0.00    +0.000 A 
ENDROOT
BRANCH   1   7
ATOM      7  O   UNL     1      46.294   5.308  13.738  0.00  0.00    +0.000 OA
BRANCH   7   8
ATOM      8  C   UNL     1      47.299   6.049  13.041  0.00  0.00    +0.000 C 
BRANCH   8   9
ATOM      9  C   UNL     1      48.012   6.988  14.005  0.00  0.00    +0.000 C 
BRANCH   9  10
ATOM     10  O   UNL     1      49.108   6.307  14.606  0.00  0.00    +0.000 OA
ATOM     11  H   UNL     1      48.976   5.357  14.448  0.00  0.00    +0.000 HD
ENDBRANCH   9  10
ENDBRANCH   8   9
ENDBRANCH   7   8
ENDBRANCH   1   7
BRANCH   5  12
ATOM     12  C   UNL     1      44.289   2.616  10.207  0.00  0.00    +0.000 C 
BRANCH  12  13
ATOM     13  N   UNL     1      45.122   3.093   9.104  0.00  0.00    +0.000 N 
ATOM     14  C   UNL     1      45.300   4.423   8.798  0.00  0.00    +0.000 A 
ATOM     15  C   UNL     1      46.214   4.511   7.769  0.00  0.00    +0.000 A 
ATOM     16  C   UNL     1      46.616   3.196   7.451  0.00  0.00    +0.000 A 
ATOM     17  N   UNL     1      47.516   2.795   6.521  0.00  0.00    +0.000 NA
ATOM     18  C   UNL     1      47.709   1.460   6.456  0.00  0.00    +0.000 A 
ATOM     19  C   UNL     1      47.063   0.516   7.241  0.00  0.00    +0.000 A 
ATOM     20  C   UNL     1      46.134   0.936   8.192  0.00  0.00    +0.000 A 
ATOM     21  C   UNL     1      45.923   2.319   8.287  0.00  0.00    +0.000 A 
ENDBRANCH  12  13
ENDBRANCH   5  12
TORSDOF 6
ENDMDL
MODEL 5
REMARK VINA RESULT:    -6.334      3.318      6.371
REMARK INTER + INTRA:          -8.905
REMARK INTER:                  -8.252
REMARK INTRA:                  -0.653
REMARK UNBOUND:                -0.535
REMARK  Name = 
REMARK  6 active torsions:
REMARK  status: ('A' for Active; 'I' for Inactive)
REMARK    1  A    between atoms: O_1  and  C_2
REMARK    2  A    between atoms: C_2  and  C_3
REMARK    3  A    between atoms: C_3  and  O_4
REMARK    4  A    between atoms: O_4  and  C_5
REMARK    5  A    between atoms: C_9  and  C_10
REMARK    6  A    between atoms: C_10  and  N_11
REMARK                            x       y       z     vdW  Elec       q    Type
REMARK                         _______ _______ _______ _____ _____    ______ ____
ROOT
ATOM      1  C   UNL     1      46.179   4.910  13.344  0.00  0.00    +0.000 A 
ATOM      2  C   UNL     1      46.816   6.135  13.157  0.00  0.00    +0.000 A 
ATOM      3  C   UNL     1      46.517   6.923  12.046  0.00  0.00    +0.000 A 
ATOM      4  C   UNL     1      45.605   6.474  11.094  0.00  0.00    +0.000 A 
ATOM      5  C   UNL     1      44.995   5.220  11.231  0.00  0.00    +0.000 A 
ATOM      6  C   UNL     1      45.267   4.459  12.382  0.00  0.00    +0.000 A 
ENDROOT
BRANCH   1   7
ATOM      7  O   UNL     1      46.370   4.068  14.411  0.00  0.00    +0.000 OA
BRANCH   7   8
ATOM      8  C   UNL     1      47.383   4.466  15.337  0.00  0.00    +0.000 C 
BRANCH   8   9
ATOM      9  C   UNL     1      47.543   3.405  16.418  0.00  0.00    +0.000 C 
BRANCH   9  10
ATOM     10  O   UNL     1      48.722   2.647  16.168  0.00  0.00    +0.000 OA
ATOM     11  H   UNL     1      48.523   1.725  16.402  0.00  0.00    +0.000 HD
ENDBRANCH   9  10
ENDBRANCH   8   9
ENDBRANCH   7   8
ENDBRANCH   1   7
BRANCH   5  12
ATOM     12  C   UNL     1      44.104   4.677  10.141  0.00  0.00    +0.000 C 
BRANCH  12  13
ATOM     13  N   UNL     1      44.669   3.475   9.528  0.00  0.00    +0.000 N 
ATOM     14  C   UNL     1      44.226   2.199   9.794  0.00  0.00    +0.000 A 
ATOM     15  C   UNL     1      44.911   1.325   8.977  0.00  0.00    +0.000 A 
ATOM     16  C   UNL     1      45.786   2.094   8.178  0.00  0.00    +0.000 A 
ATOM     17  N   UNL     1      46.637   1.667   7.215  0.00  0.00    +0.000 NA
ATOM     18  C   UNL     1      47.338   2.645   6.602  0.00  0.00    +0.000 A 
ATOM     19  C   UNL     1      47.252   3.999   6.894  0.00  0.00    +0.000 A 
ATOM     20  C   UNL     1      46.377   4.430   7.891  0.00  0.00    +0.000 A 
ATOM     21  C   UNL     1      45.628   3.435   8.535  0.00  0.00    +0.000 A 
ENDBRANCH  12  13
ENDBRANCH   5  12
TORSDOF 6
ENDMDL
MODEL 6
REMARK VINA RESULT:    -6.025      3.201      6.347
REMARK INTER + INTRA:          -8.497
REMARK INTER:                  -7.866
REMARK INTRA:                  -0.632
REMARK UNBOUND:                -0.535
REMARK  Name = 
REMARK  6 active torsions:
REMARK  status: ('A' for Active; 'I' for Inactive)
REMARK    1  A    between atoms: O_1  and  C_2
REMARK    2  A    between atoms: C_2  and  C_3
REMARK    3  A    between atoms: C_3  and  O_4
REMARK    4  A    between atoms: O_4  and  C_5
REMARK    5  A    between atoms: C_9  and  C_10
REMARK    6  A    between atoms: C_10  and  N_11
REMARK                            x       y       z     vdW  Elec       q    Type
REMARK                         _______ _______ _______ _____ _____    ______ ____
ROOT
ATOM      1  C   UNL     1      46.412   6.569  12.179  0.00  0.00    +0.000 A 
ATOM      2  C   UNL     1      46.310   5.833  13.357  0.00  0.00    +0.000 A 
ATOM      3  C   UNL     1      45.638   4.612  13.370  0.00  0.00    +0.000 A 
ATOM      4  C   UNL     1      45.029   4.135  12.211  0.00  0.00    +0.000 A 
ATOM      5  C   UNL     1      45.069   4.886  11.029  0.00  0.00    +0.000 A 
ATOM      6  C   UNL     1      45.794   6.090  11.017  0.00  0.00    +0.000 A 
ENDROOT
BRANCH   1   7
ATOM      7  O   UNL     1      47.074   7.763  12.041  0.00  0.00    +0.000 OA
BRANCH   7   8
ATOM      8  C   UNL     1      46.599   8.831  12.865  0.00  0.00    +0.000 C 
BRANCH   8   9
ATOM      9  C   UNL     1      45.674   9.735  12.060  0.00  0.00    +0.000 C 
BRANCH   9  10
ATOM     10  O   UNL     1      44.442   9.891  12.755  0.00  0.00    +0.000 OA
ATOM     11  H   UNL     1      44.375   9.156  13.388  0.00  0.00    +0.000 HD
ENDBRANCH   9  10
ENDBRANCH   8   9
ENDBRANCH   7   8
ENDBRANCH   1   7
BRANCH   5  12
ATOM     12  C   UNL     1      44.306   4.434   9.808  0.00  0.00    +0.000 C 
BRANCH  12  13
ATOM     13  N   UNL     1      44.897   3.237   9.211  0.00  0.00    +0.000 N 
ATOM     14  C   UNL     1      44.473   1.956   9.483  0.00  0.00    +0.000 A 
ATOM     15  C   UNL     1      45.182   1.087   8.680  0.00  0.00    +0.000 A 
ATOM     16  C   UNL     1      46.052   1.864   7.886  0.00  0.00    +0.000 A 
ATOM     17  N   UNL     1      46.921   1.444   6.935  0.00  0.00    +0.000 NA
ATOM     18  C   UNL     1      47.613   2.429   6.322  0.00  0.00    +0.000 A 
ATOM     19  C   UNL     1      47.500   3.783   6.602  0.00  0.00    +0.000 A 
ATOM     20  C   UNL     1      46.607   4.207   7.585  0.00  0.00    +0.000 A 
ATOM     21  C   UNL     1      45.868   3.205   8.229  0.00  0.00    +0.000 A 
ENDBRANCH  12  13
ENDBRANCH   5  12
TORSDOF 6
ENDMDL
MODEL 7
REMARK VINA RESULT:    -5.997      1.615      1.939
REMARK INTER + INTRA:          -8.460
REMARK INTER:                  -7.805
REMARK INTRA:                  -0.655
REMARK UNBOUND:                -0.535
REMARK  Name = 
REMARK  6 active torsions:
REMARK  status: ('A' for Active; 'I' for Inactive)
REMARK    1  A    between atoms: O_1  and  C_2
REMARK    2  A    between atoms: C_2  and  C_3
REMARK    3  A    between atoms: C_3  and  O_4
REMARK    4  A    between atoms: O_4  and  C_5
REMARK    5  A    between atoms: C_9  and  C_10
REMARK    6  A    between atoms: C_10  and  N_11
REMARK                            x       y       z     vdW  Elec       q    Type
REMARK                         _______ _______ _______ _____ _____    ______ ____
ROOT
ATOM      1  C   UNL     1      44.896   4.064   9.518  0.00  0.00    +0.000 A 
ATOM      2  C   UNL     1      44.357   2.810   9.796  0.00  0.00    +0.000 A 
ATOM      3  C   UNL     1      43.720   2.572  11.013  0.00  0.00    +0.000 A 
ATOM      4  C   UNL     1      43.651   3.575  11.977  0.00  0.00    +0.000 A 
ATOM      5  C   UNL     1      44.237   4.826  11.741  0.00  0.00    +0.000 A 
ATOM      6  C   UNL     1      44.830   5.069  10.491  0.00  0.00    +0.000 A 
ENDROOT
BRANCH   1   7
ATOM      7  O   UNL     1      45.515   4.422   8.347  0.00  0.00    +0.000 OA
BRANCH   7   8
ATOM      8  C   UNL     1      45.688   3.371   7.393  0.00  0.00    +0.000 C 
BRANCH   8   9
ATOM      9  C   UNL     1      47.169   3.186   7.088  0.00  0.00    +0.000 C 
BRANCH   9  10
ATOM     10  O   UNL     1      47.527   1.823   7.288  0.00  0.00    +0.000 OA
ATOM     11  H   UNL     1      47.216   1.328   6.511  0.00  0.00    +0.000 HD
ENDBRANCH   9  10
ENDBRANCH   8   9
ENDBRANCH   7   8
ENDBRANCH   1   7
BRANCH   5  12
ATOM     12  C   UNL     1      44.273   5.872  12.829  0.00  0.00    +0.000 C 
BRANCH  12  13
ATOM     13  N   UNL     1      45.634   6.342  13.083  0.00  0.00    +0.000 N 
ATOM     14  C   UNL     1      46.653   5.533  13.534  0.00  0.00    +0.000 A 
ATOM     15  C   UNL     1      47.812   6.278  13.571  0.00  0.00    +0.000 A 
ATOM     16  C   UNL     1      47.493   7.575  13.112  0.00  0.00    +0.000 A 
ATOM     17  N   UNL     1      48.320   8.636  12.955  0.00  0.00    +0.000 NA
ATOM     18  C   UNL     1      47.727   9.752  12.475  0.00  0.00    +0.000 A 
ATOM     19  C   UNL     1      46.382   9.873  12.159  0.00  0.00    +0.000 A 
ATOM     20  C   UNL     1      45.537   8.777  12.329  0.00  0.00    +0.000 A 
ATOM     21  C   UNL     1      46.130   7.603  12.815  0.00  0.00    +0.000 A 
ENDBRANCH  12  13
ENDBRANCH   5  12
TORSDOF 6
ENDMDL
MODEL 8
REMARK VINA RESULT:    -5.781      3.049      5.936
REMARK INTER + INTRA:          -8.174
REMARK INTER:                  -7.492
REMARK INTRA:                  -0.682
REMARK UNBOUND:                -0.535
REMARK  Name = 
REMARK  6 active torsions:
REMARK  status: ('A' for Active; 'I' for Inactive)
REMARK    1  A    between atoms: O_1  and  C_2
REMARK    2  A    between atoms: C_2  and  C_3
REMARK    3  A    between atoms: C_3  and  O_4
REMARK    4  A    between atoms: O_4  and  C_5
REMARK    5  A    between atoms: C_9  and  C_10
REMARK    6  A    between atoms: C_10  and  N_11
REMARK                            x       y       z     vdW  Elec       q    Type
REMARK                         _______ _______ _______ _____ _____    ______ ____
ROOT
ATOM      1  C   UNL     1      47.712   7.466  13.522  0.00  0.00    +0.000 A 
ATOM      2  C   UNL     1      48.180   6.475  14.383  0.00  0.00    +0.000 A 
ATOM      3  C   UNL     1      47.460   5.294  14.555  0.00  0.00    +0.000 A 
ATOM      4  C   UNL     1      46.248   5.109  13.895  0.00  0.00    +0.000 A 
ATOM      5  C   UNL     1      45.729   6.115  13.069  0.00  0.00    +0.000 A 
ATOM      6  C   UNL     1      46.489   7.280  12.865  0.00  0.00    +0.000 A 
ENDROOT
BRANCH   1   7
ATOM      7  O   UNL     1      48.349   8.651  13.252  0.00  0.00    +0.000 OA
BRANCH   7   8
ATOM      8  C   UNL     1      48.772   8.830  11.898  0.00  0.00    +0.000 C 
BRANCH   8   9
ATOM      9  C   UNL     1      50.287   8.698  11.807  0.00  0.00    +0.000 C 
BRANCH   9  10
ATOM     10  O   UNL     1      50.641   7.320  11.759  0.00  0.00    +0.000 OA
ATOM     11  H   UNL     1      51.612   7.275  11.742  0.00  0.00    +0.000 HD
ENDBRANCH   9  10
ENDBRANCH   8   9
ENDBRANCH   7   8
ENDBRANCH   1   7
BRANCH   5  12
ATOM     12  C   UNL     1      44.359   5.972  12.453  0.00  0.00    +0.000 C 
BRANCH  12  13
ATOM     13  N   UNL     1      44.184   4.665  11.821  0.00  0.00    +0.000 N 
ATOM     14  C   UNL     1      43.437   3.645  12.366  0.00  0.00    +0.000 A 
ATOM     15  C   UNL     1      43.410   2.601  11.464  0.00  0.00    +0.000 A 
ATOM     16  C   UNL     1      44.148   3.005  10.331  0.00  0.00    +0.000 A 
ATOM     17  N   UNL     1      44.372   2.317   9.186  0.00  0.00    +0.000 NA
ATOM     18  C   UNL     1      45.107   2.974   8.262  0.00  0.00    +0.000 A 
ATOM     19  C   UNL     1      45.630   4.250   8.413  0.00  0.00    +0.000 A 
ATOM     20  C   UNL     1      45.400   4.950   9.596  0.00  0.00    +0.000 A 
ATOM     21  C   UNL     1      44.630   4.294  10.568  0.00  0.00    +0.000 A 
ENDBRANCH  12  13
ENDBRANCH   5  12
TORSDOF 6
ENDMDL
MODEL 9
REMARK VINA RESULT:    -5.474      1.934      3.554
REMARK INTER + INTRA:          -7.769
REMARK INTER:                  -7.369
REMARK INTRA:                  -0.400
REMARK UNBOUND:                -0.535
REMARK  Name = 
REMARK  6 active torsions:
REMARK  status: ('A' for Active; 'I' for Inactive)
REMARK    1  A    between atoms: O_1  and  C_2
REMARK    2  A    between atoms: C_2  and  C_3
REMARK    3  A    between atoms: C_3  and  O_4
REMARK    4  A    between atoms: O_4  and  C_5
REMARK    5  A    between atoms: C_9  and  C_10
REMARK    6  A    between atoms: C_10  and  N_11
REMARK                            x       y       z     vdW  Elec       q    Type
REMARK                         _______ _______ _______ _____ _____    ______ ____
ROOT
ATOM      1  C   UNL     1      43.944   3.833  10.944  0.00  0.00    +0.000 A 
ATOM      2  C   UNL     1      42.997   4.849  11.055  0.00  0.00    +0.000 A 
ATOM      3  C   UNL     1      43.129   5.831  12.036  0.00  0.00    +0.000 A 
ATOM      4  C   UNL     1      44.190   5.784  12.936  0.00  0.00    +0.000 A 
ATOM      5  C   UNL     1      45.123   4.740  12.880  0.00  0.00    +0.000 A 
ATOM      6  C   UNL     1      45.007   3.785  11.855  0.00  0.00    +0.000 A 
ENDROOT
BRANCH   1   7
ATOM      7  O   UNL     1      43.934   2.835  10.002  0.00  0.00    +0.000 OA
BRANCH   7   8
ATOM      8  C   UNL     1      45.121   2.718   9.214  0.00  0.00    +0.000 C 
BRANCH   8   9
ATOM      9  C   UNL     1      45.041   3.653   8.015  0.00  0.00    +0.000 C 
BRANCH   9  10
ATOM     10  O   UNL     1      45.865   4.791   8.246  0.00  0.00    +0.000 OA
ATOM     11  H   UNL     1      45.722   5.064   9.168  0.00  0.00    +0.000 HD
ENDBRANCH   9  10
ENDBRANCH   8   9
ENDBRANCH   7   8
ENDBRANCH   1   7
BRANCH   5  12
ATOM     12  C   UNL     1      46.200   4.616  13.930  0.00  0.00    +0.000 C 
BRANCH  12  13
ATOM     13  N   UNL     1      47.269   5.593  13.728  0.00  0.00    +0.000 N 
ATOM     14  C   UNL     1      47.475   6.269  12.546  0.00  0.00    +0.000 A 
ATOM     15  C   UNL     1      48.499   7.172  12.739  0.00  0.00    +0.000 A 
ATOM     16  C   UNL     1      48.918   7.052  14.082  0.00  0.00    +0.000 A 
ATOM     17  N   UNL     1      49.880   7.755  14.727  0.00  0.00    +0.000 NA
ATOM     18  C   UNL     1      50.046   7.429  16.027  0.00  0.00    +0.000 A 
ATOM     19  C   UNL     1      49.331   6.455  16.708  0.00  0.00    +0.000 A 
ATOM     20  C   UNL     1      48.345   5.733  16.036  0.00  0.00    +0.000 A 
ATOM     21  C   UNL     1      48.146   6.060  14.688  0.00  0.00    +0.000 A 
ENDBRANCH  12  13
ENDBRANCH   5  12
TORSDOF 6
ENDMDL
