MODEL 1
REMARK VINA RESULT:    -8.638      0.000      0.000
REMARK INTER + INTRA:         -11.760
REMARK INTER:                 -11.163
REMARK INTRA:                  -0.596
REMARK UNBOUND:                -0.596
REMARK  Name = 
REMARK  5 active torsions:
REMARK  status: ('A' for Active; 'I' for Inactive)
REMARK    1  A    between atoms: C_2  and  C_4
REMARK    2  A    between atoms: C_7  and  O_8
REMARK    3  A    between atoms: O_8  and  C_9
REMARK    4  A    between atoms: C_9  and  C_10
REMARK    5  A    between atoms: C_14  and  C_15
REMARK                            x       y       z     vdW  Elec       q    Type
REMARK                         _______ _______ _______ _____ _____    ______ ____
ROOT
ATOM      1  C   UNL     1      43.544   4.284  11.096  0.00  0.00    +0.000 C 
ENDROOT
BRANCH   1   2
ATOM      2  C   UNL     1      44.789   4.691  11.840  0.00  0.00    +0.000 A 
ATOM      3  C   UNL     1      45.291   3.872  12.844  0.00  0.00    +0.000 A 
ATOM      4  N   UNL     1      46.366   4.174  13.597  0.00  0.00    +0.000 NA
ATOM      5  C   UNL     1      46.968   5.361  13.344  0.00  0.00    +0.000 A 
ATOM      6  C   UNL     1      46.554   6.290  12.386  0.00  0.00    +0.000 A 
ATOM      7  C   UNL     1      45.426   5.922  11.634  0.00  0.00    +0.000 A 
BRANCH   6   8
ATOM      8  C   UNL     1      47.256   7.572  12.181  0.00  0.00    +0.000 A 
ATOM      9  C   UNL     1      48.606   7.635  11.799  0.00  0.00    +0.000 A 
ATOM     10  C   UNL     1      49.234   8.865  11.597  0.00  0.00    +0.000 A 
ATOM     11  C   UNL     1      48.497  10.017  11.794  0.00  0.00    +0.000 A 
ATOM     12  N   UNL     1      47.203  10.018  12.168  0.00  0.00    +0.000 NA
ATOM     13  C   UNL     1      46.621   8.806  12.346  0.00  0.00    +0.000 A 
ENDBRANCH   6   8
ENDBRANCH   1   2
BRANCH   1  14
ATOM     14  O   UNL     1      43.614   4.681   9.721  0.00  0.00    +0.000 OA
BRANCH  14  18
ATOM     15  C   UNL     1      46.413   2.422   7.706  0.00  0.00    +0.000 A 
ATOM     16  C   UNL     1      45.505   1.794   8.560  0.00  0.00    +0.000 A 
ATOM     17  C   UNL     1      44.559   2.567   9.239  0.00  0.00    +0.000 A 
ATOM     18  C   UNL     1      44.553   3.941   9.028  0.00  0.00    +0.000 A 
ATOM     19  N   UNL     1      45.417   4.571   8.203  0.00  0.00    +0.000 NA
ATOM     20  C   UNL     1      46.333   3.802   7.569  0.00  0.00    +0.000 A 
BRANCH  15  22
ATOM     21  N   UNL     1      48.486   2.458   6.431  0.00  0.00    +0.000 N 
ATOM     22  C   UNL     1      47.473   1.711   6.962  0.00  0.00    +0.000 C 
ATOM     23  O   UNL     1      47.463   0.493   6.852  0.00  0.00    +0.000 OA
ATOM     24  H   UNL     1      49.252   1.937   6.020  0.00  0.00    +0.000 HD
ATOM     25  H   UNL     1      48.666   3.414   6.704  0.00  0.00    +0.000 HD
ENDBRANCH  15  22
ENDBRANCH  14  18
ENDBRANCH   1  14
TORSDOF 5
ENDMDL
MODEL 2
REMARK VINA RESULT:    -8.615      1.317      1.431
REMARK INTER + INTRA:         -11.730
REMARK INTER:                 -10.955
REMARK INTRA:                  -0.775
REMARK UNBOUND:                -0.596
REMARK  Name = 
REMARK  5 active torsions:
REMARK  status: ('A' for Active; 'I' for Inactive)
REMARK    1  A    between atoms: C_2  and  C_4
REMARK    2  A    between atoms: C_7  and  O_8
REMARK    3  A    between atoms: O_8  and  C_9
REMARK    4  A    between atoms: C_9  and  C_10
REMARK    5  A    between atoms: C_14  and  C_15
REMARK                            x       y       z     vdW  Elec       q    Type
REMARK                         _______ _______ _______ _____ _____    ______ ____
ROOT
ATOM      1  C   UNL     1      43.919   5.171  10.687  0.00  0.00    +0.000 C 
ENDROOT
BRANCH   1   2
ATOM      2  C   UNL     1      45.022   5.094  11.710  0.00  0.00    +0.000 A 
ATOM      3  C   UNL     1      44.930   4.185  12.756  0.00  0.00    +0.000 A 
ATOM      4  N   UNL     1      45.840   4.078  13.745  0.00  0.00    +0.000 NA
ATOM      5  C   UNL     1      46.892   4.930  13.694  0.00  0.00    +0.000 A 
ATOM      6  C   UNL     1      47.094   5.909  12.718  0.00  0.00    +0.000 A 
ATOM      7  C   UNL     1      46.112   5.975  11.715  0.00  0.00    +0.000 A 
BRANCH   6   8
ATOM      8  C   UNL     1      48.261   6.811  12.741  0.00  0.00    +0.000 A 
ATOM      9  C   UNL     1      48.709   7.489  11.596  0.00  0.00    +0.000 A 
ATOM     10  C   UNL     1      49.806   8.348  11.658  0.00  0.00    +0.000 A 
ATOM     11  C   UNL     1      50.448   8.506  12.871  0.00  0.00    +0.000 A 
ATOM     12  N   UNL     1      50.070   7.876  14.000  0.00  0.00    +0.000 NA
ATOM     13  C   UNL     1      48.993   7.055  13.907  0.00  0.00    +0.000 A 
ENDBRANCH   6   8
ENDBRANCH   1   2
BRANCH   1  14
ATOM     14  O   UNL     1      43.614   3.874  10.161  0.00  0.00    +0.000 OA
BRANCH  14  18
ATOM     15  C   UNL     1      46.446   2.611   7.445  0.00  0.00    +0.000 A 
ATOM     16  C   UNL     1      45.923   1.704   8.368  0.00  0.00    +0.000 A 
ATOM     17  C   UNL     1      44.962   2.141   9.285  0.00  0.00    +0.000 A 
ATOM     18  C   UNL     1      44.556   3.469   9.235  0.00  0.00    +0.000 A 
ATOM     19  N   UNL     1      45.043   4.364   8.349  0.00  0.00    +0.000 NA
ATOM     20  C   UNL     1      45.982   3.920   7.481  0.00  0.00    +0.000 A 
BRANCH  15  22
ATOM     21  N   UNL     1      47.516   2.991   5.292  0.00  0.00    +0.000 N 
ATOM     22  C   UNL     1      47.484   2.270   6.452  0.00  0.00    +0.000 C 
ATOM     23  O   UNL     1      48.310   1.394   6.672  0.00  0.00    +0.000 OA
ATOM     24  H   UNL     1      48.301   2.809   4.678  0.00  0.00    +0.000 HD
ATOM     25  H   UNL     1      47.028   3.868   5.177  0.00  0.00    +0.000 HD
ENDBRANCH  15  22
ENDBRANCH  14  18
ENDBRANCH   1  14
TORSDOF 5
ENDMDL
MODEL 3
REMARK VINA RESULT:    -8.366      1.969      3.422
REMARK INTER + INTRA:         -11.408
REMARK INTER:                 -10.770
REMARK INTRA:                  -0.638
REMARK UNBOUND:                -0.596
REMARK  Name = 
REMARK  5 active torsions:
REMARK  status: ('A' for Active; 'I' for Inactive)
REMARK    1  A    between atoms: C_2  and  C_4
REMARK    2  A    between atoms: C_7  and  O_8
REMARK    3  A    between atoms: O_8  and  C_9
REMARK    4  A    between atoms: C_9  and  C_10
REMARK    5  A    between atoms: C_14  and  C_15
REMARK                            x       y       z     vdW  Elec       q    Type
REMARK                         _______ _______ _______ _____ _____    ______ ____
ROOT
ATOM      1  C   UNL     1      43.963   4.269  11.455  0.00  0.00    +0.000 C 
ENDROOT
BRANCH   1   2
ATOM      2  C   UNL     1      45.023   5.086  12.146  0.00  0.00    +0.000 A 
ATOM      3  C   UNL     1      45.402   6.314  11.618  0.00  0.00    +0.000 A 
ATOM      4  N   UNL     1      46.374   7.091  12.135  0.00  0.00    +0.000 NA
ATOM      5  C   UNL     1      47.010   6.614  13.231  0.00  0.00    +0.000 A 
ATOM      6  C   UNL     1      46.750   5.388  13.849  0.00  0.00    +0.000 A 
ATOM      7  C   UNL     1      45.729   4.621  13.264  0.00  0.00    +0.000 A 
BRANCH   6   8
ATOM      8  C   UNL     1      47.500   4.933  15.035  0.00  0.00    +0.000 A 
ATOM      9  C   UNL     1      47.310   3.662  15.600  0.00  0.00    +0.000 A 
ATOM     10  C   UNL     1      48.049   3.257  16.713  0.00  0.00    +0.000 A 
ATOM     11  C   UNL     1      48.963   4.143  17.251  0.00  0.00    +0.000 A 
ATOM     12  N   UNL     1      49.181   5.378  16.757  0.00  0.00    +0.000 NA
ATOM     13  C   UNL     1      48.453   5.735  15.670  0.00  0.00    +0.000 A 
ENDBRANCH   6   8
ENDBRANCH   1   2
BRANCH   1  14
ATOM     14  O   UNL     1      43.834   4.651  10.081  0.00  0.00    +0.000 OA
BRANCH  14  18
ATOM     15  C   UNL     1      46.390   2.440   7.719  0.00  0.00    +0.000 A 
ATOM     16  C   UNL     1      45.619   1.798   8.691  0.00  0.00    +0.000 A 
ATOM     17  C   UNL     1      44.755   2.556   9.486  0.00  0.00    +0.000 A 
ATOM     18  C   UNL     1      44.689   3.927   9.272  0.00  0.00    +0.000 A 
ATOM     19  N   UNL     1      45.419   4.570   8.335  0.00  0.00    +0.000 NA
ATOM     20  C   UNL     1      46.259   3.816   7.587  0.00  0.00    +0.000 A 
BRANCH  15  22
ATOM     21  N   UNL     1      48.468   2.438   6.453  0.00  0.00    +0.000 N 
ATOM     22  C   UNL     1      47.356   1.747   6.844  0.00  0.00    +0.000 C 
ATOM     23  O   UNL     1      47.187   0.583   6.506  0.00  0.00    +0.000 OA
ATOM     24  H   UNL     1      49.164   1.907   5.943  0.00  0.00    +0.000 HD
ATOM     25  H   UNL     1      48.769   3.293   6.899  0.00  0.00    +0.000 HD
ENDBRANCH  15  22
ENDBRANCH  14  18
ENDBRANCH   1  14
TORSDOF 5
ENDMDL
MODEL 4
REMARK VINA RESULT:    -8.118      1.727      2.220
REMARK INTER + INTRA:         -11.087
REMARK INTER:                 -10.425
REMARK INTRA:                  -0.662
REMARK UNBOUND:                -0.596
REMARK  Name = 
REMARK  5 active torsions:
REMARK  status: ('A' for Active; 'I' for Inactive)
REMARK    1  A    between atoms: C_2  and  C_4
REMARK    2  A    between atoms: C_7  and  O_8
REMARK    3  A    between atoms: O_8  and  C_9
REMARK    4  A    between atoms: C_9  and  C_10
REMARK    5  A    between atoms: C_14  and  C_15
REMARK                            x       y       z     vdW  Elec       q    Type
REMARK                         _______ _______ _______ _____ _____    ______ ____
ROOT
ATOM      1  C   UNL     1      43.963   3.462  11.421  0.00  0.00    +0.000 C 
ENDROOT
BRANCH   1   2
ATOM      2  C   UNL     1      44.441   4.874  11.637  0.00  0.00    +0.000 A 
ATOM      3  C   UNL     1      43.610   5.940  11.316  0.00  0.00    +0.000 A 
ATOM      4  N   UNL     1      43.967   7.235  11.427  0.00  0.00    +0.000 NA
ATOM      5  C   UNL     1      45.222   7.480  11.871  0.00  0.00    +0.000 A 
ATOM      6  C   UNL     1      46.169   6.507  12.202  0.00  0.00    +0.000 A 
ATOM      7  C   UNL     1      45.741   5.176  12.064  0.00  0.00    +0.000 A 
BRANCH   6   8
ATOM      8  C   UNL     1      47.525   6.857  12.666  0.00  0.00    +0.000 A 
ATOM      9  C   UNL     1      48.427   7.580  11.870  0.00  0.00    +0.000 A 
ATOM     10  C   UNL     1      49.696   7.909  12.347  0.00  0.00    +0.000 A 
ATOM     11  C   UNL     1      50.047   7.494  13.618  0.00  0.00    +0.000 A 
ATOM     12  N   UNL     1      49.227   6.791  14.423  0.00  0.00    +0.000 NA
ATOM     13  C   UNL     1      47.997   6.497  13.932  0.00  0.00    +0.000 A 
ENDBRANCH   6   8
ENDBRANCH   1   2
BRANCH   1  14
ATOM     14  O   UNL     1      43.519   3.270  10.072  0.00  0.00    +0.000 OA
BRANCH  14  18
ATOM     15  C   UNL     1      46.646   2.446   7.515  0.00  0.00    +0.000 A 
ATOM     16  C   UNL     1      46.185   3.758   7.641  0.00  0.00    +0.000 A 
ATOM     17  C   UNL     1      45.125   4.028   8.511  0.00  0.00    +0.000 A 
ATOM     18  C   UNL     1      44.573   2.974   9.229  0.00  0.00    +0.000 A 
ATOM     19  N   UNL     1      45.004   1.698   9.129  0.00  0.00    +0.000 NA
ATOM     20  C   UNL     1      46.023   1.460   8.269  0.00  0.00    +0.000 A 
BRANCH  15  22
ATOM     21  N   UNL     1      48.763   2.920   6.411  0.00  0.00    +0.000 N 
ATOM     22  C   UNL     1      47.737   2.039   6.607  0.00  0.00    +0.000 C 
ATOM     23  O   UNL     1      47.741   0.939   6.072  0.00  0.00    +0.000 OA
ATOM     24  H   UNL     1      49.547   2.575   5.870  0.00  0.00    +0.000 HD
ATOM     25  H   UNL     1      48.926   3.716   7.011  0.00  0.00    +0.000 HD
ENDBRANCH  15  22
ENDBRANCH  14  18
ENDBRANCH   1  14
TORSDOF 5
ENDMDL
MODEL 5
REMARK VINA RESULT:    -8.115      1.677      2.075
REMARK INTER + INTRA:         -11.084
REMARK INTER:                 -10.359
REMARK INTRA:                  -0.725
REMARK UNBOUND:                -0.596
REMARK  Name = 
REMARK  5 active torsions:
REMARK  status: ('A' for Active; 'I' for Inactive)
REMARK    1  A    between atoms: C_2  and  C_4
REMARK    2  A    between atoms: C_7  and  O_8
REMARK    3  A    between atoms: O_8  and  C_9
REMARK    4  A    between atoms: C_9  and  C_10
REMARK    5  A    between atoms: C_14  and  C_15
REMARK                            x       y       z     vdW  Elec       q    Type
REMARK                         _______ _______ _______ _____ _____    ______ ____
ROOT
ATOM      1  C   UNL     1      44.028   3.870  11.392  0.00  0.00    +0.000 C 
ENDROOT
BRANCH   1   2
ATOM      2  C   UNL     1      44.842   5.038  11.881  0.00  0.00    +0.000 A 
ATOM      3  C   UNL     1      45.867   4.830  12.796  0.00  0.00    +0.000 A 
ATOM      4  N   UNL     1      46.616   5.816  13.328  0.00  0.00    +0.000 NA
ATOM      5  C   UNL     1      46.320   7.078  12.936  0.00  0.00    +0.000 A 
ATOM      6  C   UNL     1      45.302   7.433  12.047  0.00  0.00    +0.000 A 
ATOM      7  C   UNL     1      44.554   6.363  11.527  0.00  0.00    +0.000 A 
BRANCH   6   8
ATOM      8  C   UNL     1      45.033   8.837  11.681  0.00  0.00    +0.000 A 
ATOM      9  C   UNL     1      45.891   9.885  12.047  0.00  0.00    +0.000 A 
ATOM     10  C   UNL     1      45.615  11.200  11.669  0.00  0.00    +0.000 A 
ATOM     11  C   UNL     1      44.469  11.444  10.936  0.00  0.00    +0.000 A 
ATOM     12  N   UNL     1      43.605  10.480  10.564  0.00  0.00    +0.000 NA
ATOM     13  C   UNL     1      43.909   9.212  10.939  0.00  0.00    +0.000 A 
ENDBRANCH   6   8
ENDBRANCH   1   2
BRANCH   1  14
ATOM     14  O   UNL     1      43.646   4.046  10.023  0.00  0.00    +0.000 OA
BRANCH  14  18
ATOM     15  C   UNL     1      46.573   2.616   7.496  0.00  0.00    +0.000 A 
ATOM     16  C   UNL     1      45.894   1.731   8.336  0.00  0.00    +0.000 A 
ATOM     17  C   UNL     1      44.902   2.225   9.188  0.00  0.00    +0.000 A 
ATOM     18  C   UNL     1      44.623   3.586   9.161  0.00  0.00    +0.000 A 
ATOM     19  N   UNL     1      45.262   4.461   8.355  0.00  0.00    +0.000 NA
ATOM     20  C   UNL     1      46.228   3.961   7.548  0.00  0.00    +0.000 A 
BRANCH  15  22
ATOM     21  N   UNL     1      47.841   2.957   5.447  0.00  0.00    +0.000 N 
ATOM     22  C   UNL     1      47.657   2.213   6.578  0.00  0.00    +0.000 C 
ATOM     23  O   UNL     1      48.388   1.267   6.835  0.00  0.00    +0.000 OA
ATOM     24  H   UNL     1      48.655   2.724   4.891  0.00  0.00    +0.000 HD
ATOM     25  H   UNL     1      47.436   3.874   5.320  0.00  0.00    +0.000 HD
ENDBRANCH  15  22
ENDBRANCH  14  18
ENDBRANCH   1  14
TORSDOF 5
ENDMDL
MODEL 6
REMARK VINA RESULT:    -7.431      2.783      7.225
REMARK INTER + INTRA:         -10.199
REMARK INTER:                  -9.526
REMARK INTRA:                  -0.673
REMARK UNBOUND:                -0.596
REMARK  Name = 
REMARK  5 active torsions:
REMARK  status: ('A' for Active; 'I' for Inactive)
REMARK    1  A    between atoms: C_2  and  C_4
REMARK    2  A    between atoms: C_7  and  O_8
REMARK    3  A    between atoms: O_8  and  C_9
REMARK    4  A    between atoms: C_9  and  C_10
REMARK    5  A    between atoms: C_14  and  C_15
REMARK                            x       y       z     vdW  Elec       q    Type
REMARK                         _______ _______ _______ _____ _____    ______ ____
ROOT
ATOM      1  C   UNL     1      44.306   6.232  11.418  0.00  0.00    +0.000 C 
ENDROOT
BRANCH   1   2
ATOM      2  C   UNL     1      44.257   4.844  10.838  0.00  0.00    +0.000 A 
ATOM      3  C   UNL     1      43.466   3.872  11.438  0.00  0.00    +0.000 A 
ATOM      4  N   UNL     1      43.397   2.592  11.023  0.00  0.00    +0.000 NA
ATOM      5  C   UNL     1      44.166   2.259   9.958  0.00  0.00    +0.000 A 
ATOM      6  C   UNL     1      45.025   3.126   9.278  0.00  0.00    +0.000 A 
ATOM      7  C   UNL     1      45.057   4.446   9.758  0.00  0.00    +0.000 A 
BRANCH   6   8
ATOM      8  C   UNL     1      45.843   2.681   8.133  0.00  0.00    +0.000 A 
ATOM      9  C   UNL     1      46.138   3.524   7.050  0.00  0.00    +0.000 A 
ATOM     10  C   UNL     1      46.929   3.076   5.991  0.00  0.00    +0.000 A 
ATOM     11  C   UNL     1      47.405   1.779   6.031  0.00  0.00    +0.000 A 
ATOM     12  N   UNL     1      47.147   0.923   7.039  0.00  0.00    +0.000 NA
ATOM     13  C   UNL     1      46.383   1.394   8.057  0.00  0.00    +0.000 A 
ENDBRANCH   6   8
ENDBRANCH   1   2
BRANCH   1  14
ATOM     14  O   UNL     1      45.498   6.917  11.015  0.00  0.00    +0.000 OA
BRANCH  14  18
ATOM     15  C   UNL     1      47.947   7.635  14.253  0.00  0.00    +0.000 A 
ATOM     16  C   UNL     1      47.929   6.367  13.669  0.00  0.00    +0.000 A 
ATOM     17  C   UNL     1      47.096   6.133  12.572  0.00  0.00    +0.000 A 
ATOM     18  C   UNL     1      46.319   7.182  12.094  0.00  0.00    +0.000 A 
ATOM     19  N   UNL     1      46.323   8.418  12.638  0.00  0.00    +0.000 NA
ATOM     20  C   UNL     1      47.127   8.616  13.709  0.00  0.00    +0.000 A 
BRANCH  15  22
ATOM     21  N   UNL     1      48.384   7.480  16.642  0.00  0.00    +0.000 N 
ATOM     22  C   UNL     1      48.762   7.989  15.432  0.00  0.00    +0.000 C 
ATOM     23  O   UNL     1      49.762   8.686  15.327  0.00  0.00    +0.000 OA
ATOM     24  H   UNL     1      49.018   7.650  17.413  0.00  0.00    +0.000 HD
ATOM     25  H   UNL     1      47.730   6.716  16.737  0.00  0.00    +0.000 HD
ENDBRANCH  15  22
ENDBRANCH  14  18
ENDBRANCH   1  14
TORSDOF 5
ENDMDL
MODEL 7
REMARK VINA RESULT:    -7.248      1.658      2.325
REMARK INTER + INTRA:          -9.963
REMARK INTER:                  -9.273
REMARK INTRA:                  -0.690
REMARK UNBOUND:                -0.596
REMARK  Name = 
REMARK  5 active torsions:
REMARK  status: ('A' for Active; 'I' for Inactive)
REMARK    1  A    between atoms: C_2  and  C_4
REMARK    2  A    between atoms: C_7  and  O_8
REMARK    3  A    between atoms: O_8  and  C_9
REMARK    4  A    between atoms: C_9  and  C_10
REMARK    5  A    between atoms: C_14  and  C_15
REMARK                            x       y       z     vdW  Elec       q    Type
REMARK                         _______ _______ _______ _____ _____    ______ ____
ROOT
ATOM      1  C   UNL     1      44.887   5.317  11.278  0.00  0.00    +0.000 C 
ENDROOT
BRANCH   1   2
ATOM      2  C   UNL     1      45.566   6.572  11.758  0.00  0.00    +0.000 A 
ATOM      3  C   UNL     1      44.829   7.544  12.425  0.00  0.00    +0.000 A 
ATOM      4  N   UNL     1      45.336   8.719  12.846  0.00  0.00    +0.000 NA
ATOM      5  C   UNL     1      46.646   8.943  12.581  0.00  0.00    +0.000 A 
ATOM      6  C   UNL     1      47.494   8.068  11.897  0.00  0.00    +0.000 A 
ATOM      7  C   UNL     1      46.909   6.861  11.480  0.00  0.00    +0.000 A 
BRANCH   6   8
ATOM      8  C   UNL     1      48.909   8.393  11.634  0.00  0.00    +0.000 A 
ATOM      9  C   UNL     1      49.851   7.414  11.282  0.00  0.00    +0.000 A 
ATOM     10  C   UNL     1      51.178   7.759  11.022  0.00  0.00    +0.000 A 
ATOM     11  C   UNL     1      51.543   9.087  11.132  0.00  0.00    +0.000 A 
ATOM     12  N   UNL     1      50.686  10.068  11.475  0.00  0.00    +0.000 NA
ATOM     13  C   UNL     1      49.402   9.699  11.711  0.00  0.00    +0.000 A 
ENDBRANCH   6   8
ENDBRANCH   1   2
BRANCH   1  14
ATOM     14  O   UNL     1      44.643   5.372   9.867  0.00  0.00    +0.000 OA
BRANCH  14  18
ATOM     15  C   UNL     1      46.351   2.133   7.972  0.00  0.00    +0.000 A 
ATOM     16  C   UNL     1      45.462   1.925   9.029  0.00  0.00    +0.000 A 
ATOM     17  C   UNL     1      44.887   3.029   9.664  0.00  0.00    +0.000 A 
ATOM     18  C   UNL     1      45.218   4.300   9.212  0.00  0.00    +0.000 A 
ATOM     19  N   UNL     1      46.071   4.527   8.189  0.00  0.00    +0.000 NA
ATOM     20  C   UNL     1      46.625   3.442   7.599  0.00  0.00    +0.000 A 
BRANCH  15  22
ATOM     21  N   UNL     1      46.735  -0.240   7.593  0.00  0.00    +0.000 N 
ATOM     22  C   UNL     1      47.040   1.046   7.248  0.00  0.00    +0.000 C 
ATOM     23  O   UNL     1      47.832   1.286   6.347  0.00  0.00    +0.000 OA
ATOM     24  H   UNL     1      47.141  -0.963   7.011  0.00  0.00    +0.000 HD
ATOM     25  H   UNL     1      45.923  -0.484   8.142  0.00  0.00    +0.000 HD
ENDBRANCH  15  22
ENDBRANCH  14  18
ENDBRANCH   1  14
TORSDOF 5
ENDMDL
MODEL 8
REMARK VINA RESULT:    -7.211      3.112      7.178
REMARK INTER + INTRA:          -9.915
REMARK INTER:                  -9.440
REMARK INTRA:                  -0.475
REMARK UNBOUND:                -0.596
REMARK  Name = 
REMARK  5 active torsions:
REMARK  status: ('A' for Active; 'I' for Inactive)
REMARK    1  A    between atoms: C_2  and  C_4
REMARK    2  A    between atoms: C_7  and  O_8
REMARK    3  A    between atoms: O_8  and  C_9
REMARK    4  A    between atoms: C_9  and  C_10
REMARK    5  A    between atoms: C_14  and  C_15
REMARK                            x       y       z     vdW  Elec       q    Type
REMARK                         _______ _______ _______ _____ _____    ______ ____
ROOT
ATOM      1  C   UNL     1      46.087   6.959  12.255  0.00  0.00    +0.000 C 
ENDROOT
BRANCH   1   2
ATOM      2  C   UNL     1      45.291   6.084  11.324  0.00  0.00    +0.000 A 
ATOM      3  C   UNL     1      43.907   6.036  11.436  0.00  0.00    +0.000 A 
ATOM      4  N   UNL     1      43.115   5.247  10.683  0.00  0.00    +0.000 NA
ATOM      5  C   UNL     1      43.736   4.454   9.778  0.00  0.00    +0.000 A 
ATOM      6  C   UNL     1      45.117   4.380   9.580  0.00  0.00    +0.000 A 
ATOM      7  C   UNL     1      45.891   5.224  10.394  0.00  0.00    +0.000 A 
BRANCH   6   8
ATOM      8  C   UNL     1      45.720   3.477   8.581  0.00  0.00    +0.000 A 
ATOM      9  C   UNL     1      46.308   3.951   7.398  0.00  0.00    +0.000 A 
ATOM     10  C   UNL     1      46.884   3.069   6.483  0.00  0.00    +0.000 A 
ATOM     11  C   UNL     1      46.850   1.717   6.765  0.00  0.00    +0.000 A 
ATOM     12  N   UNL     1      46.292   1.203   7.879  0.00  0.00    +0.000 NA
ATOM     13  C   UNL     1      45.750   2.089   8.751  0.00  0.00    +0.000 A 
ENDBRANCH   6   8
ENDBRANCH   1   2
BRANCH   1  14
ATOM     14  O   UNL     1      47.414   6.450  12.431  0.00  0.00    +0.000 OA
BRANCH  14  18
ATOM     15  C   UNL     1      47.718   4.341  15.961  0.00  0.00    +0.000 A 
ATOM     16  C   UNL     1      47.017   3.790  14.886  0.00  0.00    +0.000 A 
ATOM     17  C   UNL     1      46.920   4.512  13.693  0.00  0.00    +0.000 A 
ATOM     18  C   UNL     1      47.537   5.755  13.619  0.00  0.00    +0.000 A 
ATOM     19  N   UNL     1      48.225   6.307  14.642  0.00  0.00    +0.000 NA
ATOM     20  C   UNL     1      48.293   5.594  15.792  0.00  0.00    +0.000 A 
BRANCH  15  22
ATOM     21  N   UNL     1      46.851   2.861  17.687  0.00  0.00    +0.000 N 
ATOM     22  C   UNL     1      47.860   3.684  17.276  0.00  0.00    +0.000 C 
ATOM     23  O   UNL     1      48.861   3.844  17.961  0.00  0.00    +0.000 OA
ATOM     24  H   UNL     1      47.021   2.342  18.540  0.00  0.00    +0.000 HD
ATOM     25  H   UNL     1      46.139   2.508  17.062  0.00  0.00    +0.000 HD
ENDBRANCH  15  22
ENDBRANCH  14  18
ENDBRANCH   1  14
TORSDOF 5
ENDMDL
MODEL 9
REMARK VINA RESULT:    -6.633      5.338      7.548
REMARK INTER + INTRA:          -9.168
REMARK INTER:                  -8.586
REMARK INTRA:                  -0.582
REMARK UNBOUND:                -0.596
REMARK  Name = 
REMARK  5 active torsions:
REMARK  status: ('A' for Active; 'I' for Inactive)
REMARK    1  A    between atoms: C_2  and  C_4
REMARK    2  A    between atoms: C_7  and  O_8
REMARK    3  A    between atoms: O_8  and  C_9
REMARK    4  A    between atoms: C_9  and  C_10
REMARK    5  A    between atoms: C_14  and  C_15
REMARK                            x       y       z     vdW  Elec       q    Type
REMARK                         _______ _______ _______ _____ _____    ______ ____
ROOT
ATOM      1  C   UNL     1      47.136   3.742  15.973  0.00  0.00    +0.000 C 
ENDROOT
BRANCH   1   2
ATOM      2  C   UNL     1      48.335   4.110  16.806  0.00  0.00    +0.000 A 
ATOM      3  C   UNL     1      48.422   5.377  17.369  0.00  0.00    +0.000 A 
ATOM      4  N   UNL     1      49.476   5.814  18.086  0.00  0.00    +0.000 NA
ATOM      5  C   UNL     1      50.504   4.946  18.241  0.00  0.00    +0.000 A 
ATOM      6  C   UNL     1      50.561   3.656  17.708  0.00  0.00    +0.000 A 
ATOM      7  C   UNL     1      49.435   3.257  16.968  0.00  0.00    +0.000 A 
BRANCH   6   8
ATOM      8  C   UNL     1      51.727   2.774  17.910  0.00  0.00    +0.000 A 
ATOM      9  C   UNL     1      51.736   1.434  17.491  0.00  0.00    +0.000 A 
ATOM     10  C   UNL     1      52.862   0.633  17.683  0.00  0.00    +0.000 A 
ATOM     11  C   UNL     1      53.964   1.189  18.306  0.00  0.00    +0.000 A 
ATOM     12  N   UNL     1      54.009   2.465  18.736  0.00  0.00    +0.000 NA
ATOM     13  C   UNL     1      52.901   3.218  18.525  0.00  0.00    +0.000 A 
ENDBRANCH   6   8
ENDBRANCH   1   2
BRANCH   1  14
ATOM     14  O   UNL     1      47.524   3.393  14.639  0.00  0.00    +0.000 OA
BRANCH  14  18
ATOM     15  C   UNL     1      44.770   4.788  11.906  0.00  0.00    +0.000 A 
ATOM     16  C   UNL     1      45.507   5.696  12.669  0.00  0.00    +0.000 A 
ATOM     17  C   UNL     1      46.439   5.214  13.592  0.00  0.00    +0.000 A 
ATOM     18  C   UNL     1      46.604   3.840  13.710  0.00  0.00    +0.000 A 
ATOM     19  N   UNL     1      45.908   2.941  12.980  0.00  0.00    +0.000 NA
ATOM     20  C   UNL     1      45.001   3.432  12.103  0.00  0.00    +0.000 A 
BRANCH  15  22
ATOM     21  N   UNL     1      43.933   4.819   9.621  0.00  0.00    +0.000 N 
ATOM     22  C   UNL     1      43.740   5.181  10.924  0.00  0.00    +0.000 C 
ATOM     23  O   UNL     1      42.730   5.781  11.269  0.00  0.00    +0.000 OA
ATOM     24  H   UNL     1      43.163   5.007   8.990  0.00  0.00    +0.000 HD
ATOM     25  H   UNL     1      44.608   4.123   9.338  0.00  0.00    +0.000 HD
ENDBRANCH  15  22
ENDBRANCH  14  18
ENDBRANCH   1  14
TORSDOF 5
ENDMDL
