MODEL 1
REMARK VINA RESULT:    -7.784      0.000      0.000
REMARK INTER + INTRA:         -14.857
REMARK INTER:                 -13.244
REMARK INTRA:                  -1.613
REMARK UNBOUND:                -1.613
REMARK  Name = 
REMARK  13 active torsions:
REMARK  status: ('A' for Active; 'I' for Inactive)
REMARK    1  A    between atoms: C_1  and  N_2
REMARK    2  A    between atoms: N_2  and  C_3
REMARK    3  A    between atoms: C_3  and  C_4
REMARK    4  A    between atoms: C_3  and  C_25
REMARK    5  A    between atoms: C_4  and  N_5
REMARK    6  A    between atoms: C_8  and  C_9
REMARK    7  A    between atoms: C_9  and  O_10
REMARK    8  A    between atoms: O_10  and  C_11
REMARK    9  A    between atoms: C_11  and  C_12
REMARK   10  A    between atoms: C_15  and  C_16
REMARK   11  A    between atoms: C_16  and  N_17
REMARK   12  A    between atoms: N_17  and  C_18
REMARK   13  A    between atoms: C_18  and  C_19
REMARK                            x       y       z     vdW  Elec       q    Type
REMARK                         _______ _______ _______ _____ _____    ______ ____
ROOT
ATOM      1  N   UNL     1      48.247   5.567  14.867  0.00  0.00    +0.000 NA
ATOM      2  C   UNL     1      47.129   4.631  14.629  0.00  0.00    +0.000 C 
ATOM      3  C   UNL     1      46.649   4.517  13.179  0.00  0.00    +0.000 C 
ATOM      4  C   UNL     1      46.517   5.862  12.469  0.00  0.00    +0.000 C 
ATOM      5  C   UNL     1      47.810   6.649  12.674  0.00  0.00    +0.000 C 
ATOM      6  C   UNL     1      48.097   6.841  14.160  0.00  0.00    +0.000 C 
ENDROOT
BRANCH   1   7
ATOM      7  C   UNL     1      48.393   5.779  16.336  0.00  0.00    +0.000 C 
BRANCH   7   8
ATOM      8  C   UNL     1      48.487   4.565  17.335  0.00  0.00    +0.000 C 
BRANCH   8   9
ATOM      9  C   UNL     1      49.910   4.339  17.828  0.00  0.00    +0.000 A 
ATOM     10  C   UNL     1      50.613   5.235  18.619  0.00  0.00    +0.000 A 
ATOM     11  S   UNL     1      52.161   4.688  19.074  0.00  0.00    +0.000 S 
ATOM     12  C   UNL     1      51.932   3.219  18.258  0.00  0.00    +0.000 A 
ATOM     13  N   UNL     1      52.890   2.253  18.287  0.00  0.00    +0.000 NA
ATOM     14  C   UNL     1      52.568   1.172  17.659  0.00  0.00    +0.000 A 
ATOM     15  N   UNL     1      51.390   0.976  16.980  0.00  0.00    +0.000 N 
ATOM     16  C   UNL     1      50.408   1.938  16.884  0.00  0.00    +0.000 A 
ATOM     17  O   UNL     1      49.389   1.749  16.227  0.00  0.00    +0.000 OA
ATOM     18  C   UNL     1      50.715   3.158  17.606  0.00  0.00    +0.000 A 
ATOM     19  H   UNL     1      51.212   0.105  16.500  0.00  0.00    +0.000 HD
ENDBRANCH   8   9
BRANCH   8  21
ATOM     20  C   UNL     1      47.071   5.840  18.920  0.00  0.00    +0.000 C 
ATOM     21  N   UNL     1      47.643   4.559  18.549  0.00  0.00    +0.000 NA
ATOM     22  H   UNL     1      46.874   3.909  18.375  0.00  0.00    +0.000 HD
ENDBRANCH   8  21
ENDBRANCH   7   8
ENDBRANCH   1   7
BRANCH   4  23
ATOM     23  C   UNL     1      45.284   6.676  12.910  0.00  0.00    +0.000 C 
BRANCH  23  24
ATOM     24  O   UNL     1      44.080   5.903  12.845  0.00  0.00    +0.000 OA
BRANCH  24  25
ATOM     25  C   UNL     1      43.459   5.935  11.561  0.00  0.00    +0.000 C 
BRANCH  25  26
ATOM     26  C   UNL     1      43.897   4.757  10.733  0.00  0.00    +0.000 A 
ATOM     27  C   UNL     1      44.652   4.945   9.566  0.00  0.00    +0.000 A 
ATOM     28  C   UNL     1      45.109   3.846   8.835  0.00  0.00    +0.000 A 
ATOM     29  C   UNL     1      44.824   2.541   9.258  0.00  0.00    +0.000 A 
ATOM     30  C   UNL     1      44.079   2.357  10.430  0.00  0.00    +0.000 A 
ATOM     31  C   UNL     1      43.623   3.456  11.161  0.00  0.00    +0.000 A 
BRANCH  29  32
ATOM     32  C   UNL     1      45.282   1.350   8.450  0.00  0.00    +0.000 C 
BRANCH  32  33
ATOM     33  N   UNL     1      46.727   1.385   8.224  0.00  0.00    +0.000 NA
ATOM     34  H   UNL     1      47.164   0.699   8.839  0.00  0.00    +0.000 HD
BRANCH  33  35
ATOM     35  C   UNL     1      47.041   1.079   6.825  0.00  0.00    +0.000 C 
BRANCH  35  36
ATOM     36  C   UNL     1      47.477   2.324   6.060  0.00  0.00    +0.000 C 
ATOM     37  F   UNL     1      46.386   3.103   5.829  0.00  0.00    +0.000 F 
ENDBRANCH  35  36
ENDBRANCH  33  35
ENDBRANCH  32  33
ENDBRANCH  29  32
ENDBRANCH  25  26
ENDBRANCH  24  25
ENDBRANCH  23  24
ENDBRANCH   4  23
TORSDOF 12
ENDMDL
MODEL 2
REMARK VINA RESULT:    -6.547      2.376      3.747
REMARK INTER + INTRA:         -12.752
REMARK INTER:                 -11.200
REMARK INTRA:                  -1.552
REMARK UNBOUND:                -1.613
REMARK  Name = 
REMARK  13 active torsions:
REMARK  status: ('A' for Active; 'I' for Inactive)
REMARK    1  A    between atoms: C_1  and  N_2
REMARK    2  A    between atoms: N_2  and  C_3
REMARK    3  A    between atoms: C_3  and  C_4
REMARK    4  A    between atoms: C_3  and  C_25
REMARK    5  A    between atoms: C_4  and  N_5
REMARK    6  A    between atoms: C_8  and  C_9
REMARK    7  A    between atoms: C_9  and  O_10
REMARK    8  A    between atoms: O_10  and  C_11
REMARK    9  A    between atoms: C_11  and  C_12
REMARK   10  A    between atoms: C_15  and  C_16
REMARK   11  A    between atoms: C_16  and  N_17
REMARK   12  A    between atoms: N_17  and  C_18
REMARK   13  A    between atoms: C_18  and  C_19
REMARK                            x       y       z     vdW  Elec       q    Type
REMARK                         _______ _______ _______ _____ _____    ______ ____
ROOT
ATOM      1  N   UNL     1      49.554   7.206  17.318  0.00  0.00    +0.000 NA
ATOM      2  C   UNL     1      50.107   6.745  16.029  0.00  0.00    +0.000 C 
ATOM      3  C   UNL     1      50.496   7.844  15.036  0.00  0.00    +0.000 C 
ATOM      4  C   UNL     1      49.463   8.962  14.923  0.00  0.00    +0.000 C 
ATOM      5  C   UNL     1      49.109   9.442  16.330  0.00  0.00    +0.000 C 
ATOM      6  C   UNL     1      48.578   8.289  17.177  0.00  0.00    +0.000 C 
ENDROOT
BRANCH   1   7
ATOM      7  C   UNL     1      48.965   6.039  18.035  0.00  0.00    +0.000 C 
BRANCH   7   8
ATOM      8  C   UNL     1      49.319   4.560  17.624  0.00  0.00    +0.000 C 
BRANCH   8   9
ATOM      9  C   UNL     1      50.672   4.123  18.169  0.00  0.00    +0.000 A 
ATOM     10  C   UNL     1      51.410   4.843  19.097  0.00  0.00    +0.000 A 
ATOM     11  S   UNL     1      52.855   4.078  19.573  0.00  0.00    +0.000 S 
ATOM     12  C   UNL     1      52.530   2.742  18.581  0.00  0.00    +0.000 A 
ATOM     13  N   UNL     1      53.375   1.676  18.553  0.00  0.00    +0.000 NA
ATOM     14  C   UNL     1      52.985   0.713  17.786  0.00  0.00    +0.000 A 
ATOM     15  N   UNL     1      51.843   0.726  17.023  0.00  0.00    +0.000 N 
ATOM     16  C   UNL     1      50.978   1.797  16.984  0.00  0.00    +0.000 A 
ATOM     17  O   UNL     1      49.992   1.798  16.252  0.00  0.00    +0.000 OA
ATOM     18  C   UNL     1      51.361   2.889  17.858  0.00  0.00    +0.000 A 
ATOM     19  H   UNL     1      51.608  -0.062  16.437  0.00  0.00    +0.000 HD
ENDBRANCH   8   9
BRANCH   8  21
ATOM     20  C   UNL     1      47.124   3.471  17.250  0.00  0.00    +0.000 C 
ATOM     21  N   UNL     1      48.383   3.468  17.971  0.00  0.00    +0.000 NA
ATOM     22  H   UNL     1      48.861   2.589  17.766  0.00  0.00    +0.000 HD
ENDBRANCH   8  21
ENDBRANCH   7   8
ENDBRANCH   1   7
BRANCH   4  23
ATOM     23  C   UNL     1      48.202   8.563  14.130  0.00  0.00    +0.000 C 
BRANCH  23  24
ATOM     24  O   UNL     1      48.499   8.289  12.755  0.00  0.00    +0.000 OA
BRANCH  24  25
ATOM     25  C   UNL     1      48.502   6.895  12.448  0.00  0.00    +0.000 C 
BRANCH  25  26
ATOM     26  C   UNL     1      47.109   6.333  12.528  0.00  0.00    +0.000 A 
ATOM     27  C   UNL     1      46.780   5.373  13.497  0.00  0.00    +0.000 A 
ATOM     28  C   UNL     1      45.471   4.901  13.608  0.00  0.00    +0.000 A 
ATOM     29  C   UNL     1      44.466   5.381  12.758  0.00  0.00    +0.000 A 
ATOM     30  C   UNL     1      44.795   6.347  11.799  0.00  0.00    +0.000 A 
ATOM     31  C   UNL     1      46.104   6.820  11.688  0.00  0.00    +0.000 A 
BRANCH  29  32
ATOM     32  C   UNL     1      43.057   4.844  12.848  0.00  0.00    +0.000 C 
BRANCH  32  33
ATOM     33  N   UNL     1      42.667   4.164  11.613  0.00  0.00    +0.000 NA
ATOM     34  H   UNL     1      42.888   4.776  10.827  0.00  0.00    +0.000 HD
BRANCH  33  35
ATOM     35  C   UNL     1      43.378   2.890  11.475  0.00  0.00    +0.000 C 
BRANCH  35  36
ATOM     36  C   UNL     1      44.167   2.822  10.172  0.00  0.00    +0.000 C 
ATOM     37  F   UNL     1      45.416   3.318  10.388  0.00  0.00    +0.000 F 
ENDBRANCH  35  36
ENDBRANCH  33  35
ENDBRANCH  32  33
ENDBRANCH  29  32
ENDBRANCH  25  26
ENDBRANCH  24  25
ENDBRANCH  23  24
ENDBRANCH   4  23
TORSDOF 12
ENDMDL
MODEL 3
REMARK VINA RESULT:    -6.467      4.057      9.088
REMARK INTER + INTRA:         -12.617
REMARK INTER:                 -10.743
REMARK INTRA:                  -1.874
REMARK UNBOUND:                -1.613
REMARK  Name = 
REMARK  13 active torsions:
REMARK  status: ('A' for Active; 'I' for Inactive)
REMARK    1  A    between atoms: C_1  and  N_2
REMARK    2  A    between atoms: N_2  and  C_3
REMARK    3  A    between atoms: C_3  and  C_4
REMARK    4  A    between atoms: C_3  and  C_25
REMARK    5  A    between atoms: C_4  and  N_5
REMARK    6  A    between atoms: C_8  and  C_9
REMARK    7  A    between atoms: C_9  and  O_10
REMARK    8  A    between atoms: O_10  and  C_11
REMARK    9  A    between atoms: C_11  and  C_12
REMARK   10  A    between atoms: C_15  and  C_16
REMARK   11  A    between atoms: C_16  and  N_17
REMARK   12  A    between atoms: N_17  and  C_18
REMARK   13  A    between atoms: C_18  and  C_19
REMARK                            x       y       z     vdW  Elec       q    Type
REMARK                         _______ _______ _______ _____ _____    ______ ____
ROOT
ATOM      1  N   UNL     1      47.594   7.427  12.664  0.00  0.00    +0.000 NA
ATOM      2  C   UNL     1      48.178   8.545  11.895  0.00  0.00    +0.000 C 
ATOM      3  C   UNL     1      49.695   8.717  12.013  0.00  0.00    +0.000 C 
ATOM      4  C   UNL     1      50.219   8.583  13.440  0.00  0.00    +0.000 C 
ATOM      5  C   UNL     1      49.653   7.301  14.048  0.00  0.00    +0.000 C 
ATOM      6  C   UNL     1      48.128   7.317  14.024  0.00  0.00    +0.000 C 
ENDROOT
BRANCH   1   7
ATOM      7  C   UNL     1      46.110   7.576  12.679  0.00  0.00    +0.000 C 
BRANCH   7   8
ATOM      8  C   UNL     1      45.233   7.171  11.434  0.00  0.00    +0.000 C 
BRANCH   8   9
ATOM      9  C   UNL     1      44.682   5.757  11.558  0.00  0.00    +0.000 A 
ATOM     10  C   UNL     1      43.942   5.299  12.639  0.00  0.00    +0.000 A 
ATOM     11  S   UNL     1      43.401   3.693  12.474  0.00  0.00    +0.000 S 
ATOM     12  C   UNL     1      44.108   3.563  10.938  0.00  0.00    +0.000 A 
ATOM     13  N   UNL     1      43.977   2.422  10.207  0.00  0.00    +0.000 NA
ATOM     14  C   UNL     1      44.529   2.475   9.042  0.00  0.00    +0.000 A 
ATOM     15  N   UNL     1      45.225   3.552   8.548  0.00  0.00    +0.000 N 
ATOM     16  C   UNL     1      45.423   4.711   9.264  0.00  0.00    +0.000 A 
ATOM     17  O   UNL     1      46.094   5.636   8.813  0.00  0.00    +0.000 OA
ATOM     18  C   UNL     1      44.789   4.708  10.568  0.00  0.00    +0.000 A 
ATOM     19  H   UNL     1      45.642   3.516   7.628  0.00  0.00    +0.000 HD
ENDBRANCH   8   9
BRANCH   8  21
ATOM     20  C   UNL     1      44.230   9.434  11.308  0.00  0.00    +0.000 C 
ATOM     21  N   UNL     1      44.077   8.013  11.059  0.00  0.00    +0.000 NA
ATOM     22  H   UNL     1      43.926   7.883  10.057  0.00  0.00    +0.000 HD
ENDBRANCH   8  21
ENDBRANCH   7   8
ENDBRANCH   1   7
BRANCH   4  23
ATOM     23  C   UNL     1      49.918   9.808  14.327  0.00  0.00    +0.000 C 
BRANCH  23  24
ATOM     24  O   UNL     1      50.820   9.901  15.436  0.00  0.00    +0.000 OA
BRANCH  24  25
ATOM     25  C   UNL     1      50.171  10.235  16.663  0.00  0.00    +0.000 C 
BRANCH  25  26
ATOM     26  C   UNL     1      49.600   9.002  17.310  0.00  0.00    +0.000 A 
ATOM     27  C   UNL     1      48.262   8.969  17.728  0.00  0.00    +0.000 A 
ATOM     28  C   UNL     1      47.720   7.802  18.271  0.00  0.00    +0.000 A 
ATOM     29  C   UNL     1      48.502   6.648  18.403  0.00  0.00    +0.000 A 
ATOM     30  C   UNL     1      49.835   6.681  17.975  0.00  0.00    +0.000 A 
ATOM     31  C   UNL     1      50.377   7.847  17.431  0.00  0.00    +0.000 A 
BRANCH  29  32
ATOM     32  C   UNL     1      47.932   5.396  19.026  0.00  0.00    +0.000 C 
BRANCH  32  33
ATOM     33  N   UNL     1      46.733   4.947  18.317  0.00  0.00    +0.000 NA
ATOM     34  H   UNL     1      46.253   5.769  17.949  0.00  0.00    +0.000 HD
BRANCH  33  35
ATOM     35  C   UNL     1      47.086   4.038  17.224  0.00  0.00    +0.000 C 
BRANCH  35  36
ATOM     36  C   UNL     1      48.205   3.082  17.624  0.00  0.00    +0.000 C 
ATOM     37  F   UNL     1      48.550   2.332  16.541  0.00  0.00    +0.000 F 
ENDBRANCH  35  36
ENDBRANCH  33  35
ENDBRANCH  32  33
ENDBRANCH  29  32
ENDBRANCH  25  26
ENDBRANCH  24  25
ENDBRANCH  23  24
ENDBRANCH   4  23
TORSDOF 12
ENDMDL
MODEL 4
REMARK VINA RESULT:    -6.465      1.569      2.242
REMARK INTER + INTRA:         -12.613
REMARK INTER:                 -11.349
REMARK INTRA:                  -1.264
REMARK UNBOUND:                -1.613
REMARK  Name = 
REMARK  13 active torsions:
REMARK  status: ('A' for Active; 'I' for Inactive)
REMARK    1  A    between atoms: C_1  and  N_2
REMARK    2  A    between atoms: N_2  and  C_3
REMARK    3  A    between atoms: C_3  and  C_4
REMARK    4  A    between atoms: C_3  and  C_25
REMARK    5  A    between atoms: C_4  and  N_5
REMARK    6  A    between atoms: C_8  and  C_9
REMARK    7  A    between atoms: C_9  and  O_10
REMARK    8  A    between atoms: O_10  and  C_11
REMARK    9  A    between atoms: C_11  and  C_12
REMARK   10  A    between atoms: C_15  and  C_16
REMARK   11  A    between atoms: C_16  and  N_17
REMARK   12  A    between atoms: N_17  and  C_18
REMARK   13  A    between atoms: C_18  and  C_19
REMARK                            x       y       z     vdW  Elec       q    Type
REMARK                         _______ _______ _______ _____ _____    ______ ____
ROOT
ATOM      1  N   UNL     1      49.761   6.716  15.090  0.00  0.00    +0.000 NA
ATOM      2  C   UNL     1      48.423   6.203  14.731  0.00  0.00    +0.000 C 
ATOM      3  C   UNL     1      48.073   6.233  13.240  0.00  0.00    +0.000 C 
ATOM      4  C   UNL     1      48.465   7.534  12.544  0.00  0.00    +0.000 C 
ATOM      5  C   UNL     1      49.922   7.848  12.885  0.00  0.00    +0.000 C 
ATOM      6  C   UNL     1      50.113   7.956  14.394  0.00  0.00    +0.000 C 
ENDROOT
BRANCH   1   7
ATOM      7  C   UNL     1      49.828   6.890  16.570  0.00  0.00    +0.000 C 
BRANCH   7   8
ATOM      8  C   UNL     1      49.609   5.676  17.549  0.00  0.00    +0.000 C 
BRANCH   8   9
ATOM      9  C   UNL     1      50.911   4.954  17.868  0.00  0.00    +0.000 A 
ATOM     10  C   UNL     1      52.007   5.552  18.473  0.00  0.00    +0.000 A 
ATOM     11  S   UNL     1      53.301   4.485  18.766  0.00  0.00    +0.000 S 
ATOM     12  C   UNL     1      52.430   3.179  18.126  0.00  0.00    +0.000 A 
ATOM     13  N   UNL     1      52.963   1.926  18.116  0.00  0.00    +0.000 NA
ATOM     14  C   UNL     1      52.177   1.022  17.638  0.00  0.00    +0.000 A 
ATOM     15  N   UNL     1      50.916   1.254  17.143  0.00  0.00    +0.000 N 
ATOM     16  C   UNL     1      50.349   2.508  17.091  0.00  0.00    +0.000 A 
ATOM     17  O   UNL     1      49.240   2.689  16.595  0.00  0.00    +0.000 OA
ATOM     18  C   UNL     1      51.187   3.551  17.650  0.00  0.00    +0.000 A 
ATOM     19  H   UNL     1      50.361   0.495  16.773  0.00  0.00    +0.000 HD
ENDBRANCH   8   9
BRANCH   8  21
ATOM     20  C   UNL     1      48.601   4.715  19.601  0.00  0.00    +0.000 C 
ATOM     21  N   UNL     1      48.957   5.909  18.857  0.00  0.00    +0.000 NA
ATOM     22  H   UNL     1      49.612   6.450  19.424  0.00  0.00    +0.000 HD
ENDBRANCH   8  21
ENDBRANCH   7   8
ENDBRANCH   1   7
BRANCH   4  23
ATOM     23  C   UNL     1      47.539   8.720  12.880  0.00  0.00    +0.000 C 
BRANCH  23  24
ATOM     24  O   UNL     1      46.252   8.282  13.334  0.00  0.00    +0.000 OA
BRANCH  24  25
ATOM     25  C   UNL     1      45.274   8.243  12.295  0.00  0.00    +0.000 C 
BRANCH  25  26
ATOM     26  C   UNL     1      45.026   6.824  11.857  0.00  0.00    +0.000 A 
ATOM     27  C   UNL     1      44.219   5.970  12.623  0.00  0.00    +0.000 A 
ATOM     28  C   UNL     1      43.942   4.675  12.180  0.00  0.00    +0.000 A 
ATOM     29  C   UNL     1      44.462   4.212  10.964  0.00  0.00    +0.000 A 
ATOM     30  C   UNL     1      45.258   5.071  10.197  0.00  0.00    +0.000 A 
ATOM     31  C   UNL     1      45.534   6.366  10.639  0.00  0.00    +0.000 A 
BRANCH  29  32
ATOM     32  C   UNL     1      44.197   2.799  10.500  0.00  0.00    +0.000 C 
BRANCH  32  33
ATOM     33  N   UNL     1      44.320   2.684   9.047  0.00  0.00    +0.000 NA
ATOM     34  H   UNL     1      44.483   3.616   8.665  0.00  0.00    +0.000 HD
BRANCH  33  35
ATOM     35  C   UNL     1      45.427   1.792   8.688  0.00  0.00    +0.000 C 
BRANCH  35  36
ATOM     36  C   UNL     1      46.350   2.427   7.653  0.00  0.00    +0.000 C 
ATOM     37  F   UNL     1      47.502   1.704   7.590  0.00  0.00    +0.000 F 
ENDBRANCH  35  36
ENDBRANCH  33  35
ENDBRANCH  32  33
ENDBRANCH  29  32
ENDBRANCH  25  26
ENDBRANCH  24  25
ENDBRANCH  23  24
ENDBRANCH   4  23
TORSDOF 12
ENDMDL
MODEL 5
REMARK VINA RESULT:    -6.301      4.233      8.960
REMARK INTER + INTRA:         -12.335
REMARK INTER:                 -10.497
REMARK INTRA:                  -1.838
REMARK UNBOUND:                -1.613
REMARK  Name = 
REMARK  13 active torsions:
REMARK  status: ('A' for Active; 'I' for Inactive)
REMARK    1  A    between atoms: C_1  and  N_2
REMARK    2  A    between atoms: N_2  and  C_3
REMARK    3  A    between atoms: C_3  and  C_4
REMARK    4  A    between atoms: C_3  and  C_25
REMARK    5  A    between atoms: C_4  and  N_5
REMARK    6  A    between atoms: C_8  and  C_9
REMARK    7  A    between atoms: C_9  and  O_10
REMARK    8  A    between atoms: O_10  and  C_11
REMARK    9  A    between atoms: C_11  and  C_12
REMARK   10  A    between atoms: C_15  and  C_16
REMARK   11  A    between atoms: C_16  and  N_17
REMARK   12  A    between atoms: N_17  and  C_18
REMARK   13  A    between atoms: C_18  and  C_19
REMARK                            x       y       z     vdW  Elec       q    Type
REMARK                         _______ _______ _______ _____ _____    ______ ____
ROOT
ATOM      1  N   UNL     1      48.742   7.073  12.495  0.00  0.00    +0.000 NA
ATOM      2  C   UNL     1      48.659   8.360  11.776  0.00  0.00    +0.000 C 
ATOM      3  C   UNL     1      49.910   9.242  11.835  0.00  0.00    +0.000 C 
ATOM      4  C   UNL     1      50.535   9.328  13.225  0.00  0.00    +0.000 C 
ATOM      5  C   UNL     1      50.702   7.910  13.771  0.00  0.00    +0.000 C 
ATOM      6  C   UNL     1      49.360   7.187  13.819  0.00  0.00    +0.000 C 
ENDROOT
BRANCH   1   7
ATOM      7  C   UNL     1      47.375   6.483  12.587  0.00  0.00    +0.000 C 
BRANCH   7   8
ATOM      8  C   UNL     1      46.212   6.956  11.636  0.00  0.00    +0.000 C 
BRANCH   8   9
ATOM      9  C   UNL     1      45.620   5.802  10.838  0.00  0.00    +0.000 A 
ATOM     10  C   UNL     1      45.866   5.577   9.492  0.00  0.00    +0.000 A 
ATOM     11  S   UNL     1      45.121   4.173   8.879  0.00  0.00    +0.000 S 
ATOM     12  C   UNL     1      44.470   3.799  10.400  0.00  0.00    +0.000 A 
ATOM     13  N   UNL     1      43.739   2.666  10.582  0.00  0.00    +0.000 NA
ATOM     14  C   UNL     1      43.339   2.485  11.796  0.00  0.00    +0.000 A 
ATOM     15  N   UNL     1      43.579   3.344  12.841  0.00  0.00    +0.000 N 
ATOM     16  C   UNL     1      44.276   4.524  12.699  0.00  0.00    +0.000 A 
ATOM     17  O   UNL     1      44.428   5.295  13.642  0.00  0.00    +0.000 OA
ATOM     18  C   UNL     1      44.773   4.751  11.356  0.00  0.00    +0.000 A 
ATOM     19  H   UNL     1      43.223   3.142  13.765  0.00  0.00    +0.000 HD
ENDBRANCH   8   9
BRANCH   8  21
ATOM     20  C   UNL     1      44.876   9.040  11.758  0.00  0.00    +0.000 C 
ATOM     21  N   UNL     1      45.053   7.673  12.211  0.00  0.00    +0.000 NA
ATOM     22  H   UNL     1      44.218   7.145  11.953  0.00  0.00    +0.000 HD
ENDBRANCH   8  21
ENDBRANCH   7   8
ENDBRANCH   1   7
BRANCH   4  23
ATOM     23  C   UNL     1      49.746  10.220  14.204  0.00  0.00    +0.000 C 
BRANCH  23  24
ATOM     24  O   UNL     1      50.416  10.356  15.463  0.00  0.00    +0.000 OA
BRANCH  24  25
ATOM     25  C   UNL     1      49.529  10.643  16.544  0.00  0.00    +0.000 C 
BRANCH  25  26
ATOM     26  C   UNL     1      49.077   9.370  17.208  0.00  0.00    +0.000 A 
ATOM     27  C   UNL     1      49.932   8.260  17.281  0.00  0.00    +0.000 A 
ATOM     28  C   UNL     1      49.531   7.104  17.953  0.00  0.00    +0.000 A 
ATOM     29  C   UNL     1      48.274   7.036  18.567  0.00  0.00    +0.000 A 
ATOM     30  C   UNL     1      47.428   8.150  18.501  0.00  0.00    +0.000 A 
ATOM     31  C   UNL     1      47.828   9.307  17.830  0.00  0.00    +0.000 A 
BRANCH  29  32
ATOM     32  C   UNL     1      47.821   5.773  19.261  0.00  0.00    +0.000 C 
BRANCH  32  33
ATOM     33  N   UNL     1      46.674   5.173  18.578  0.00  0.00    +0.000 NA
ATOM     34  H   UNL     1      46.048   5.923  18.285  0.00  0.00    +0.000 HD
BRANCH  33  35
ATOM     35  C   UNL     1      47.110   4.397  17.414  0.00  0.00    +0.000 C 
BRANCH  35  36
ATOM     36  C   UNL     1      47.899   3.158  17.825  0.00  0.00    +0.000 C 
ATOM     37  F   UNL     1      48.338   2.524  16.703  0.00  0.00    +0.000 F 
ENDBRANCH  35  36
ENDBRANCH  33  35
ENDBRANCH  32  33
ENDBRANCH  29  32
ENDBRANCH  25  26
ENDBRANCH  24  25
ENDBRANCH  23  24
ENDBRANCH   4  23
TORSDOF 12
ENDMDL
MODEL 6
REMARK VINA RESULT:    -6.215      1.888      2.547
REMARK INTER + INTRA:         -12.188
REMARK INTER:                 -10.509
REMARK INTRA:                  -1.679
REMARK UNBOUND:                -1.613
REMARK  Name = 
REMARK  13 active torsions:
REMARK  status: ('A' for Active; 'I' for Inactive)
REMARK    1  A    between atoms: C_1  and  N_2
REMARK    2  A    between atoms: N_2  and  C_3
REMARK    3  A    between atoms: C_3  and  C_4
REMARK    4  A    between atoms: C_3  and  C_25
REMARK    5  A    between atoms: C_4  and  N_5
REMARK    6  A    between atoms: C_8  and  C_9
REMARK    7  A    between atoms: C_9  and  O_10
REMARK    8  A    between atoms: O_10  and  C_11
REMARK    9  A    between atoms: C_11  and  C_12
REMARK   10  A    between atoms: C_15  and  C_16
REMARK   11  A    between atoms: C_16  and  N_17
REMARK   12  A    between atoms: N_17  and  C_18
REMARK   13  A    between atoms: C_18  and  C_19
REMARK                            x       y       z     vdW  Elec       q    Type
REMARK                         _______ _______ _______ _____ _____    ______ ____
ROOT
ATOM      1  N   UNL     1      49.351   8.813  14.201  0.00  0.00    +0.000 NA
ATOM      2  C   UNL     1      49.803   7.827  13.199  0.00  0.00    +0.000 C 
ATOM      3  C   UNL     1      48.934   7.700  11.944  0.00  0.00    +0.000 C 
ATOM      4  C   UNL     1      47.436   7.672  12.236  0.00  0.00    +0.000 C 
ATOM      5  C   UNL     1      47.097   8.845  13.156  0.00  0.00    +0.000 C 
ATOM      6  C   UNL     1      47.907   8.771  14.446  0.00  0.00    +0.000 C 
ENDROOT
BRANCH   1   7
ATOM      7  C   UNL     1      50.119   8.606  15.462  0.00  0.00    +0.000 C 
BRANCH   7   8
ATOM      8  C   UNL     1      49.544   7.728  16.637  0.00  0.00    +0.000 C 
BRANCH   8   9
ATOM      9  C   UNL     1      50.428   6.526  16.940  0.00  0.00    +0.000 A 
ATOM     10  C   UNL     1      51.784   6.606  17.223  0.00  0.00    +0.000 A 
ATOM     11  S   UNL     1      52.503   5.105  17.586  0.00  0.00    +0.000 S 
ATOM     12  C   UNL     1      51.020   4.300  17.411  0.00  0.00    +0.000 A 
ATOM     13  N   UNL     1      50.927   2.961  17.633  0.00  0.00    +0.000 NA
ATOM     14  C   UNL     1      49.734   2.486  17.504  0.00  0.00    +0.000 A 
ATOM     15  N   UNL     1      48.628   3.219  17.146  0.00  0.00    +0.000 N 
ATOM     16  C   UNL     1      48.678   4.567  16.868  0.00  0.00    +0.000 A 
ATOM     17  O   UNL     1      47.681   5.183  16.501  0.00  0.00    +0.000 OA
ATOM     18  C   UNL     1      49.996   5.149  17.035  0.00  0.00    +0.000 A 
ATOM     19  H   UNL     1      47.725   2.775  17.053  0.00  0.00    +0.000 HD
ENDBRANCH   8   9
BRANCH   8  21
ATOM     20  C   UNL     1      47.876   8.580  18.261  0.00  0.00    +0.000 C 
ATOM     21  N   UNL     1      49.276   8.359  17.948  0.00  0.00    +0.000 NA
ATOM     22  H   UNL     1      49.664   7.741  18.662  0.00  0.00    +0.000 HD
ENDBRANCH   8  21
ENDBRANCH   7   8
ENDBRANCH   1   7
BRANCH   4  23
ATOM     23  C   UNL     1      46.944   6.334  12.823  0.00  0.00    +0.000 C 
BRANCH  23  24
ATOM     24  O   UNL     1      45.527   6.328  13.030  0.00  0.00    +0.000 OA
BRANCH  24  25
ATOM     25  C   UNL     1      44.782   6.492  11.823  0.00  0.00    +0.000 C 
BRANCH  25  26
ATOM     26  C   UNL     1      44.895   5.264  10.962  0.00  0.00    +0.000 A 
ATOM     27  C   UNL     1      44.325   4.049  11.372  0.00  0.00    +0.000 A 
ATOM     28  C   UNL     1      44.379   2.928  10.541  0.00  0.00    +0.000 A 
ATOM     29  C   UNL     1      44.996   3.000   9.286  0.00  0.00    +0.000 A 
ATOM     30  C   UNL     1      45.553   4.218   8.875  0.00  0.00    +0.000 A 
ATOM     31  C   UNL     1      45.500   5.339   9.705  0.00  0.00    +0.000 A 
BRANCH  29  32
ATOM     32  C   UNL     1      45.091   1.780   8.400  0.00  0.00    +0.000 C 
BRANCH  32  33
ATOM     33  N   UNL     1      46.442   1.219   8.410  0.00  0.00    +0.000 NA
ATOM     34  H   UNL     1      46.409   0.314   8.880  0.00  0.00    +0.000 HD
BRANCH  33  35
ATOM     35  C   UNL     1      46.948   1.060   7.044  0.00  0.00    +0.000 C 
BRANCH  35  36
ATOM     36  C   UNL     1      47.858   2.215   6.641  0.00  0.00    +0.000 C 
ATOM     37  F   UNL     1      47.093   3.225   6.145  0.00  0.00    +0.000 F 
ENDBRANCH  35  36
ENDBRANCH  33  35
ENDBRANCH  32  33
ENDBRANCH  29  32
ENDBRANCH  25  26
ENDBRANCH  24  25
ENDBRANCH  23  24
ENDBRANCH   4  23
TORSDOF 12
ENDMDL
MODEL 7
REMARK VINA RESULT:    -6.059      2.391      3.945
REMARK INTER + INTRA:         -11.922
REMARK INTER:                 -10.098
REMARK INTRA:                  -1.825
REMARK UNBOUND:                -1.613
REMARK  Name = 
REMARK  13 active torsions:
REMARK  status: ('A' for Active; 'I' for Inactive)
REMARK    1  A    between atoms: C_1  and  N_2
REMARK    2  A    between atoms: N_2  and  C_3
REMARK    3  A    between atoms: C_3  and  C_4
REMARK    4  A    between atoms: C_3  and  C_25
REMARK    5  A    between atoms: C_4  and  N_5
REMARK    6  A    between atoms: C_8  and  C_9
REMARK    7  A    between atoms: C_9  and  O_10
REMARK    8  A    between atoms: O_10  and  C_11
REMARK    9  A    between atoms: C_11  and  C_12
REMARK   10  A    between atoms: C_15  and  C_16
REMARK   11  A    between atoms: C_16  and  N_17
REMARK   12  A    between atoms: N_17  and  C_18
REMARK   13  A    between atoms: C_18  and  C_19
REMARK                            x       y       z     vdW  Elec       q    Type
REMARK                         _______ _______ _______ _____ _____    ______ ____
ROOT
ATOM      1  N   UNL     1      50.177   8.708  18.063  0.00  0.00    +0.000 NA
ATOM      2  C   UNL     1      51.411   8.518  17.273  0.00  0.00    +0.000 C 
ATOM      3  C   UNL     1      51.444   9.207  15.906  0.00  0.00    +0.000 C 
ATOM      4  C   UNL     1      50.149   9.056  15.112  0.00  0.00    +0.000 C 
ATOM      5  C   UNL     1      48.977   9.439  16.014  0.00  0.00    +0.000 C 
ATOM      6  C   UNL     1      48.953   8.572  17.268  0.00  0.00    +0.000 C 
ENDROOT
BRANCH   1   7
ATOM      7  C   UNL     1      50.186   7.753  19.208  0.00  0.00    +0.000 C 
BRANCH   7   8
ATOM      8  C   UNL     1      49.281   6.463  19.207  0.00  0.00    +0.000 C 
BRANCH   8   9
ATOM      9  C   UNL     1      49.974   5.279  18.548  0.00  0.00    +0.000 A 
ATOM     10  C   UNL     1      51.336   5.024  18.633  0.00  0.00    +0.000 A 
ATOM     11  S   UNL     1      51.820   3.591  17.850  0.00  0.00    +0.000 S 
ATOM     12  C   UNL     1      50.223   3.243  17.399  0.00  0.00    +0.000 A 
ATOM     13  N   UNL     1      49.927   2.100  16.721  0.00  0.00    +0.000 NA
ATOM     14  C   UNL     1      48.669   1.942  16.478  0.00  0.00    +0.000 A 
ATOM     15  N   UNL     1      47.681   2.832  16.824  0.00  0.00    +0.000 N 
ATOM     16  C   UNL     1      47.934   4.021  17.471  0.00  0.00    +0.000 A 
ATOM     17  O   UNL     1      47.034   4.818  17.721  0.00  0.00    +0.000 OA
ATOM     18  C   UNL     1      49.333   4.224  17.795  0.00  0.00    +0.000 A 
ATOM     19  H   UNL     1      46.716   2.645  16.589  0.00  0.00    +0.000 HD
ENDBRANCH   8   9
BRANCH   8  21
ATOM     20  C   UNL     1      47.580   6.628  21.003  0.00  0.00    +0.000 C 
ATOM     21  N   UNL     1      48.755   5.948  20.489  0.00  0.00    +0.000 NA
ATOM     22  H   UNL     1      48.510   4.968  20.339  0.00  0.00    +0.000 HD
ENDBRANCH   8  21
ENDBRANCH   7   8
ENDBRANCH   1   7
BRANCH   4  23
ATOM     23  C   UNL     1      49.957   7.653  14.503  0.00  0.00    +0.000 C 
BRANCH  23  24
ATOM     24  O   UNL     1      48.611   7.440  14.061  0.00  0.00    +0.000 OA
BRANCH  24  25
ATOM     25  C   UNL     1      48.038   6.233  14.563  0.00  0.00    +0.000 C 
BRANCH  25  26
ATOM     26  C   UNL     1      47.129   5.613  13.536  0.00  0.00    +0.000 A 
ATOM     27  C   UNL     1      46.587   4.335  13.741  0.00  0.00    +0.000 A 
ATOM     28  C   UNL     1      45.695   3.790  12.815  0.00  0.00    +0.000 A 
ATOM     29  C   UNL     1      45.325   4.511  11.672  0.00  0.00    +0.000 A 
ATOM     30  C   UNL     1      45.860   5.791  11.477  0.00  0.00    +0.000 A 
ATOM     31  C   UNL     1      46.751   6.337  12.403  0.00  0.00    +0.000 A 
BRANCH  29  32
ATOM     32  C   UNL     1      44.391   3.910  10.648  0.00  0.00    +0.000 C 
BRANCH  32  33
ATOM     33  N   UNL     1      44.834   2.576  10.243  0.00  0.00    +0.000 NA
ATOM     34  H   UNL     1      44.290   1.887  10.763  0.00  0.00    +0.000 HD
BRANCH  33  35
ATOM     35  C   UNL     1      44.647   2.383   8.802  0.00  0.00    +0.000 C 
BRANCH  35  36
ATOM     36  C   UNL     1      45.020   3.632   8.012  0.00  0.00    +0.000 C 
ATOM     37  F   UNL     1      45.674   3.257   6.878  0.00  0.00    +0.000 F 
ENDBRANCH  35  36
ENDBRANCH  33  35
ENDBRANCH  32  33
ENDBRANCH  29  32
ENDBRANCH  25  26
ENDBRANCH  24  25
ENDBRANCH  23  24
ENDBRANCH   4  23
TORSDOF 12
ENDMDL
MODEL 8
REMARK VINA RESULT:    -5.935      2.174      3.025
REMARK INTER + INTRA:         -11.712
REMARK INTER:                 -10.498
REMARK INTRA:                  -1.214
REMARK UNBOUND:                -1.613
REMARK  Name = 
REMARK  13 active torsions:
REMARK  status: ('A' for Active; 'I' for Inactive)
REMARK    1  A    between atoms: C_1  and  N_2
REMARK    2  A    between atoms: N_2  and  C_3
REMARK    3  A    between atoms: C_3  and  C_4
REMARK    4  A    between atoms: C_3  and  C_25
REMARK    5  A    between atoms: C_4  and  N_5
REMARK    6  A    between atoms: C_8  and  C_9
REMARK    7  A    between atoms: C_9  and  O_10
REMARK    8  A    between atoms: O_10  and  C_11
REMARK    9  A    between atoms: C_11  and  C_12
REMARK   10  A    between atoms: C_15  and  C_16
REMARK   11  A    between atoms: C_16  and  N_17
REMARK   12  A    between atoms: N_17  and  C_18
REMARK   13  A    between atoms: C_18  and  C_19
REMARK                            x       y       z     vdW  Elec       q    Type
REMARK                         _______ _______ _______ _____ _____    ______ ____
ROOT
ATOM      1  N   UNL     1      50.548   7.887  16.197  0.00  0.00    +0.000 NA
ATOM      2  C   UNL     1      51.311   7.779  14.937  0.00  0.00    +0.000 C 
ATOM      3  C   UNL     1      50.808   8.639  13.774  0.00  0.00    +0.000 C 
ATOM      4  C   UNL     1      49.291   8.613  13.604  0.00  0.00    +0.000 C 
ATOM      5  C   UNL     1      48.645   8.896  14.960  0.00  0.00    +0.000 C 
ATOM      6  C   UNL     1      49.096   7.874  15.998  0.00  0.00    +0.000 C 
ENDROOT
BRANCH   1   7
ATOM      7  C   UNL     1      50.976   6.791  17.114  0.00  0.00    +0.000 C 
BRANCH   7   8
ATOM      8  C   UNL     1      49.948   6.067  18.063  0.00  0.00    +0.000 C 
BRANCH   8   9
ATOM      9  C   UNL     1      49.703   4.623  17.646  0.00  0.00    +0.000 A 
ATOM     10  C   UNL     1      48.551   4.177  17.015  0.00  0.00    +0.000 A 
ATOM     11  S   UNL     1      48.583   2.524  16.609  0.00  0.00    +0.000 S 
ATOM     12  C   UNL     1      50.150   2.353  17.232  0.00  0.00    +0.000 A 
ATOM     13  N   UNL     1      50.800   1.159  17.159  0.00  0.00    +0.000 NA
ATOM     14  C   UNL     1      52.000   1.181  17.635  0.00  0.00    +0.000 A 
ATOM     15  N   UNL     1      52.603   2.277  18.203  0.00  0.00    +0.000 N 
ATOM     16  C   UNL     1      51.973   3.494  18.340  0.00  0.00    +0.000 A 
ATOM     17  O   UNL     1      52.521   4.440  18.899  0.00  0.00    +0.000 OA
ATOM     18  C   UNL     1      50.632   3.524  17.787  0.00  0.00    +0.000 A 
ATOM     19  H   UNL     1      53.544   2.216  18.566  0.00  0.00    +0.000 HD
ENDBRANCH   8   9
BRANCH   8  21
ATOM     20  C   UNL     1      49.041   5.966  20.367  0.00  0.00    +0.000 C 
ATOM     21  N   UNL     1      50.215   6.018  19.517  0.00  0.00    +0.000 NA
ATOM     22  H   UNL     1      50.768   5.176  19.690  0.00  0.00    +0.000 HD
ENDBRANCH   8  21
ENDBRANCH   7   8
ENDBRANCH   1   7
BRANCH   4  23
ATOM     23  C   UNL     1      48.759   7.304  12.988  0.00  0.00    +0.000 C 
BRANCH  23  24
ATOM     24  O   UNL     1      47.490   6.930  13.537  0.00  0.00    +0.000 OA
BRANCH  24  25
ATOM     25  C   UNL     1      46.388   7.286  12.702  0.00  0.00    +0.000 C 
BRANCH  25  26
ATOM     26  C   UNL     1      45.765   6.057  12.097  0.00  0.00    +0.000 A 
ATOM     27  C   UNL     1      45.158   6.112  10.834  0.00  0.00    +0.000 A 
ATOM     28  C   UNL     1      44.637   4.956  10.250  0.00  0.00    +0.000 A 
ATOM     29  C   UNL     1      44.716   3.725  10.914  0.00  0.00    +0.000 A 
ATOM     30  C   UNL     1      45.332   3.672  12.170  0.00  0.00    +0.000 A 
ATOM     31  C   UNL     1      45.854   4.828  12.754  0.00  0.00    +0.000 A 
BRANCH  29  32
ATOM     32  C   UNL     1      44.118   2.479  10.304  0.00  0.00    +0.000 C 
BRANCH  32  33
ATOM     33  N   UNL     1      44.357   2.426   8.862  0.00  0.00    +0.000 NA
ATOM     34  H   UNL     1      44.291   3.374   8.491  0.00  0.00    +0.000 HD
BRANCH  33  35
ATOM     35  C   UNL     1      45.680   1.864   8.574  0.00  0.00    +0.000 C 
BRANCH  35  36
ATOM     36  C   UNL     1      46.464   2.737   7.601  0.00  0.00    +0.000 C 
ATOM     37  F   UNL     1      45.587   3.397   6.797  0.00  0.00    +0.000 F 
ENDBRANCH  35  36
ENDBRANCH  33  35
ENDBRANCH  32  33
ENDBRANCH  29  32
ENDBRANCH  25  26
ENDBRANCH  24  25
ENDBRANCH  23  24
ENDBRANCH   4  23
TORSDOF 12
ENDMDL
MODEL 9
REMARK VINA RESULT:    -5.920      2.387      3.610
REMARK INTER + INTRA:         -11.686
REMARK INTER:                 -10.081
REMARK INTRA:                  -1.605
REMARK UNBOUND:                -1.613
REMARK  Name = 
REMARK  13 active torsions:
REMARK  status: ('A' for Active; 'I' for Inactive)
REMARK    1  A    between atoms: C_1  and  N_2
REMARK    2  A    between atoms: N_2  and  C_3
REMARK    3  A    between atoms: C_3  and  C_4
REMARK    4  A    between atoms: C_3  and  C_25
REMARK    5  A    between atoms: C_4  and  N_5
REMARK    6  A    between atoms: C_8  and  C_9
REMARK    7  A    between atoms: C_9  and  O_10
REMARK    8  A    between atoms: O_10  and  C_11
REMARK    9  A    between atoms: C_11  and  C_12
REMARK   10  A    between atoms: C_15  and  C_16
REMARK   11  A    between atoms: C_16  and  N_17
REMARK   12  A    between atoms: N_17  and  C_18
REMARK   13  A    between atoms: C_18  and  C_19
REMARK                            x       y       z     vdW  Elec       q    Type
REMARK                         _______ _______ _______ _____ _____    ______ ____
ROOT
ATOM      1  N   UNL     1      50.574   8.098  13.638  0.00  0.00    +0.000 NA
ATOM      2  C   UNL     1      49.458   7.271  13.137  0.00  0.00    +0.000 C 
ATOM      3  C   UNL     1      48.899   7.661  11.765  0.00  0.00    +0.000 C 
ATOM      4  C   UNL     1      48.709   9.165  11.586  0.00  0.00    +0.000 C 
ATOM      5  C   UNL     1      50.000   9.872  11.996  0.00  0.00    +0.000 C 
ATOM      6  C   UNL     1      50.367   9.535  13.438  0.00  0.00    +0.000 C 
ENDROOT
BRANCH   1   7
ATOM      7  C   UNL     1      50.799   7.782  15.078  0.00  0.00    +0.000 C 
BRANCH   7   8
ATOM      8  C   UNL     1      49.645   7.930  16.140  0.00  0.00    +0.000 C 
BRANCH   8   9
ATOM      9  C   UNL     1      49.833   6.993  17.325  0.00  0.00    +0.000 A 
ATOM     10  C   UNL     1      50.565   7.307  18.461  0.00  0.00    +0.000 A 
ATOM     11  S   UNL     1      50.548   6.089  19.652  0.00  0.00    +0.000 S 
ATOM     12  C   UNL     1      49.535   5.113  18.705  0.00  0.00    +0.000 A 
ATOM     13  N   UNL     1      49.093   3.913  19.172  0.00  0.00    +0.000 NA
ATOM     14  C   UNL     1      48.298   3.294  18.366  0.00  0.00    +0.000 A 
ATOM     15  N   UNL     1      47.922   3.748  17.125  0.00  0.00    +0.000 N 
ATOM     16  C   UNL     1      48.375   4.933  16.590  0.00  0.00    +0.000 A 
ATOM     17  O   UNL     1      48.062   5.286  15.457  0.00  0.00    +0.000 OA
ATOM     18  C   UNL     1      49.247   5.679  17.478  0.00  0.00    +0.000 A 
ATOM     19  H   UNL     1      47.303   3.201  16.543  0.00  0.00    +0.000 HD
ENDBRANCH   8   9
BRANCH   8  21
ATOM     20  C   UNL     1      47.979   9.530  17.041  0.00  0.00    +0.000 C 
ATOM     21  N   UNL     1      49.370   9.259  16.729  0.00  0.00    +0.000 NA
ATOM     22  H   UNL     1      49.905   9.317  17.598  0.00  0.00    +0.000 HD
ENDBRANCH   8  21
ENDBRANCH   7   8
ENDBRANCH   1   7
BRANCH   4  23
ATOM     23  C   UNL     1      47.492   9.730  12.345  0.00  0.00    +0.000 C 
BRANCH  23  24
ATOM     24  O   UNL     1      46.267   9.113  11.929  0.00  0.00    +0.000 OA
BRANCH  24  25
ATOM     25  C   UNL     1      45.629   8.373  12.970  0.00  0.00    +0.000 C 
BRANCH  25  26
ATOM     26  C   UNL     1      45.205   7.018  12.470  0.00  0.00    +0.000 A 
ATOM     27  C   UNL     1      45.793   5.851  12.981  0.00  0.00    +0.000 A 
ATOM     28  C   UNL     1      45.352   4.595  12.560  0.00  0.00    +0.000 A 
ATOM     29  C   UNL     1      44.314   4.481  11.626  0.00  0.00    +0.000 A 
ATOM     30  C   UNL     1      43.721   5.648  11.127  0.00  0.00    +0.000 A 
ATOM     31  C   UNL     1      44.162   6.904  11.548  0.00  0.00    +0.000 A 
BRANCH  29  32
ATOM     32  C   UNL     1      43.860   3.125  11.138  0.00  0.00    +0.000 C 
BRANCH  32  33
ATOM     33  N   UNL     1      44.889   2.483  10.320  0.00  0.00    +0.000 NA
ATOM     34  H   UNL     1      44.856   1.478  10.496  0.00  0.00    +0.000 HD
BRANCH  33  35
ATOM     35  C   UNL     1      44.665   2.752   8.897  0.00  0.00    +0.000 C 
BRANCH  35  36
ATOM     36  C   UNL     1      45.926   2.517   8.072  0.00  0.00    +0.000 C 
ATOM     37  F   UNL     1      46.147   3.607   7.288  0.00  0.00    +0.000 F 
ENDBRANCH  35  36
ENDBRANCH  33  35
ENDBRANCH  32  33
ENDBRANCH  29  32
ENDBRANCH  25  26
ENDBRANCH  24  25
ENDBRANCH  23  24
ENDBRANCH   4  23
TORSDOF 12
ENDMDL
