MODEL 1
REMARK VINA RESULT:    -8.239      0.000      0.000
REMARK INTER + INTRA:         -12.085
REMARK INTER:                 -11.370
REMARK INTRA:                  -0.715
REMARK UNBOUND:                -0.715
REMARK  Name = 
REMARK  7 active torsions:
REMARK  status: ('A' for Active; 'I' for Inactive)
REMARK    1  A    between atoms: N_1  and  C_2
REMARK    2  A    between atoms: C_2  and  C_3
REMARK    3  A    between atoms: C_2  and  C_18
REMARK    4  A    between atoms: C_3  and  C_4
REMARK    5  A    between atoms: C_7  and  C_8
REMARK    6  A    between atoms: C_8  and  N_9
REMARK    7  A    between atoms: N_9  and  C_10
REMARK                            x       y       z     vdW  Elec       q    Type
REMARK                         _______ _______ _______ _____ _____    ______ ____
ROOT
ATOM      1  C   UNL     1      46.892   6.640  13.362  0.00  0.00    +0.000 C 
ENDROOT
BRANCH   1   2
ATOM      2  C   UNL     1      46.103   5.715  12.474  0.00  0.00    +0.000 A 
ATOM      3  C   UNL     1      45.555   4.533  12.981  0.00  0.00    +0.000 A 
ATOM      4  C   UNL     1      44.914   3.642  12.127  0.00  0.00    +0.000 A 
ATOM      5  C   UNL     1      44.839   3.947  10.771  0.00  0.00    +0.000 A 
ATOM      6  N   UNL     1      45.324   5.110  10.260  0.00  0.00    +0.000 NA
ATOM      7  C   UNL     1      45.942   5.957  11.117  0.00  0.00    +0.000 A 
BRANCH   5   8
ATOM      8  C   UNL     1      44.181   2.981   9.804  0.00  0.00    +0.000 C 
BRANCH   8   9
ATOM      9  N   UNL     1      44.623   3.212   8.427  0.00  0.00    +0.000 N 
ATOM     10  H   UNL     1      43.826   3.095   7.799  0.00  0.00    +0.000 HD
BRANCH   9  11
ATOM     11  C   UNL     1      45.787   2.622   7.930  0.00  0.00    +0.000 A 
ATOM     12  C   UNL     1      46.674   3.260   7.069  0.00  0.00    +0.000 A 
ATOM     13  C   UNL     1      47.751   2.549   6.567  0.00  0.00    +0.000 A 
ATOM     14  N   UNL     1      47.982   1.255   6.859  0.00  0.00    +0.000 NA
ATOM     15  N   UNL     1      47.112   0.600   7.658  0.00  0.00    +0.000 NA
ATOM     16  C   UNL     1      46.046   1.272   8.155  0.00  0.00    +0.000 A 
ENDBRANCH   9  11
ENDBRANCH   8   9
ENDBRANCH   5   8
ENDBRANCH   1   2
BRANCH   1  17
ATOM     17  C   UNL     1      48.262   6.118  13.860  0.00  0.00    +0.000 C 
BRANCH  17  18
ATOM     18  C   UNL     1      48.387   6.234  15.367  0.00  0.00    +0.000 A 
ATOM     19  C   UNL     1      48.683   7.422  16.018  0.00  0.00    +0.000 A 
ATOM     20  S   UNL     1      48.851   7.241  17.708  0.00  0.00    +0.000 S 
ATOM     21  C   UNL     1      48.517   5.573  17.627  0.00  0.00    +0.000 A 
ATOM     22  N   UNL     1      48.533   4.793  18.740  0.00  0.00    +0.000 NA
ATOM     23  C   UNL     1      48.276   3.547  18.520  0.00  0.00    +0.000 A 
ATOM     24  N   UNL     1      47.988   3.010  17.291  0.00  0.00    +0.000 N 
ATOM     25  C   UNL     1      47.888   3.771  16.149  0.00  0.00    +0.000 A 
ATOM     26  O   UNL     1      47.504   3.286  15.089  0.00  0.00    +0.000 OA
ATOM     27  C   UNL     1      48.245   5.168  16.334  0.00  0.00    +0.000 A 
ATOM     28  H   UNL     1      47.754   2.034  17.194  0.00  0.00    +0.000 HD
ENDBRANCH  17  18
BRANCH  17  29
ATOM     29  N   UNL     1      49.409   6.791  13.258  0.00  0.00    +0.000 NA
ATOM     30  H   UNL     1      50.092   7.022  13.979  0.00  0.00    +0.000 HD
ATOM     31  H   UNL     1      49.101   7.677  12.850  0.00  0.00    +0.000 HD
ENDBRANCH  17  29
ENDBRANCH   1  17
TORSDOF 7
ENDMDL
MODEL 2
REMARK VINA RESULT:    -7.972      2.125      2.971
REMARK INTER + INTRA:         -11.717
REMARK INTER:                 -11.282
REMARK INTRA:                  -0.435
REMARK UNBOUND:                -0.715
REMARK  Name = 
REMARK  7 active torsions:
REMARK  status: ('A' for Active; 'I' for Inactive)
REMARK    1  A    between atoms: N_1  and  C_2
REMARK    2  A    between atoms: C_2  and  C_3
REMARK    3  A    between atoms: C_2  and  C_18
REMARK    4  A    between atoms: C_3  and  C_4
REMARK    5  A    between atoms: C_7  and  C_8
REMARK    6  A    between atoms: C_8  and  N_9
REMARK    7  A    between atoms: N_9  and  C_10
REMARK                            x       y       z     vdW  Elec       q    Type
REMARK                         _______ _______ _______ _____ _____    ______ ____
ROOT
ATOM      1  C   UNL     1      47.936   5.008  15.088  0.00  0.00    +0.000 C 
ENDROOT
BRANCH   1   2
ATOM      2  C   UNL     1      46.870   4.638  14.091  0.00  0.00    +0.000 A 
ATOM      3  C   UNL     1      45.929   5.581  13.669  0.00  0.00    +0.000 A 
ATOM      4  C   UNL     1      44.892   5.197  12.825  0.00  0.00    +0.000 A 
ATOM      5  C   UNL     1      44.810   3.867  12.423  0.00  0.00    +0.000 A 
ATOM      6  N   UNL     1      45.737   2.941  12.783  0.00  0.00    +0.000 NA
ATOM      7  C   UNL     1      46.735   3.344  13.605  0.00  0.00    +0.000 A 
BRANCH   5   8
ATOM      8  C   UNL     1      43.671   3.405  11.534  0.00  0.00    +0.000 C 
BRANCH   8   9
ATOM      9  N   UNL     1      44.123   2.425  10.543  0.00  0.00    +0.000 N 
ATOM     10  H   UNL     1      44.552   1.636  11.029  0.00  0.00    +0.000 HD
BRANCH   9  11
ATOM     11  C   UNL     1      44.845   2.817   9.414  0.00  0.00    +0.000 A 
ATOM     12  C   UNL     1      45.653   1.960   8.674  0.00  0.00    +0.000 A 
ATOM     13  C   UNL     1      46.394   2.476   7.624  0.00  0.00    +0.000 A 
ATOM     14  N   UNL     1      46.387   3.779   7.286  0.00  0.00    +0.000 NA
ATOM     15  N   UNL     1      45.645   4.639   8.016  0.00  0.00    +0.000 NA
ATOM     16  C   UNL     1      44.917   4.160   9.052  0.00  0.00    +0.000 A 
ENDBRANCH   9  11
ENDBRANCH   8   9
ENDBRANCH   5   8
ENDBRANCH   1   2
BRANCH   1  17
ATOM     17  C   UNL     1      47.609   4.751  16.579  0.00  0.00    +0.000 C 
BRANCH  17  18
ATOM     18  C   UNL     1      48.871   4.584  17.405  0.00  0.00    +0.000 A 
ATOM     19  C   UNL     1      49.310   5.525  18.323  0.00  0.00    +0.000 A 
ATOM     20  S   UNL     1      50.805   5.118  19.042  0.00  0.00    +0.000 S 
ATOM     21  C   UNL     1      50.904   3.663  18.162  0.00  0.00    +0.000 A 
ATOM     22  N   UNL     1      51.976   2.834  18.284  0.00  0.00    +0.000 NA
ATOM     23  C   UNL     1      51.916   1.777  17.544  0.00  0.00    +0.000 A 
ATOM     24  N   UNL     1      50.878   1.464  16.704  0.00  0.00    +0.000 N 
ATOM     25  C   UNL     1      49.742   2.233  16.603  0.00  0.00    +0.000 A 
ATOM     26  O   UNL     1      48.776   1.863  15.943  0.00  0.00    +0.000 OA
ATOM     27  C   UNL     1      49.796   3.473  17.360  0.00  0.00    +0.000 A 
ATOM     28  H   UNL     1      50.875   0.600  16.184  0.00  0.00    +0.000 HD
ENDBRANCH  17  18
BRANCH  17  29
ATOM     29  N   UNL     1      46.759   3.587  16.809  0.00  0.00    +0.000 NA
ATOM     30  H   UNL     1      46.724   3.377  17.806  0.00  0.00    +0.000 HD
ATOM     31  H   UNL     1      47.177   2.773  16.352  0.00  0.00    +0.000 HD
ENDBRANCH  17  29
ENDBRANCH   1  17
TORSDOF 7
ENDMDL
MODEL 3
REMARK VINA RESULT:    -7.508      3.235      4.926
REMARK INTER + INTRA:         -11.076
REMARK INTER:                 -10.215
REMARK INTRA:                  -0.861
REMARK UNBOUND:                -0.715
REMARK  Name = 
REMARK  7 active torsions:
REMARK  status: ('A' for Active; 'I' for Inactive)
REMARK    1  A    between atoms: N_1  and  C_2
REMARK    2  A    between atoms: C_2  and  C_3
REMARK    3  A    between atoms: C_2  and  C_18
REMARK    4  A    between atoms: C_3  and  C_4
REMARK    5  A    between atoms: C_7  and  C_8
REMARK    6  A    between atoms: C_8  and  N_9
REMARK    7  A    between atoms: N_9  and  C_10
REMARK                            x       y       z     vdW  Elec       q    Type
REMARK                         _______ _______ _______ _____ _____    ______ ____
ROOT
ATOM      1  C   UNL     1      47.086   6.484  13.767  0.00  0.00    +0.000 C 
ENDROOT
BRANCH   1   2
ATOM      2  C   UNL     1      46.264   5.661  12.811  0.00  0.00    +0.000 A 
ATOM      3  C   UNL     1      45.963   4.326  13.095  0.00  0.00    +0.000 A 
ATOM      4  C   UNL     1      45.289   3.551  12.156  0.00  0.00    +0.000 A 
ATOM      5  C   UNL     1      44.933   4.127  10.940  0.00  0.00    +0.000 A 
ATOM      6  N   UNL     1      45.176   5.435  10.657  0.00  0.00    +0.000 NA
ATOM      7  C   UNL     1      45.833   6.163  11.591  0.00  0.00    +0.000 A 
BRANCH   5   8
ATOM      8  C   UNL     1      44.232   3.303   9.878  0.00  0.00    +0.000 C 
BRANCH   8   9
ATOM      9  N   UNL     1      44.769   3.572   8.543  0.00  0.00    +0.000 N 
ATOM     10  H   UNL     1      43.993   3.694   7.891  0.00  0.00    +0.000 HD
BRANCH   9  11
ATOM     11  C   UNL     1      45.802   2.800   8.007  0.00  0.00    +0.000 A 
ATOM     12  C   UNL     1      46.651   3.234   6.994  0.00  0.00    +0.000 A 
ATOM     13  C   UNL     1      47.585   2.351   6.477  0.00  0.00    +0.000 A 
ATOM     14  N   UNL     1      47.707   1.077   6.894  0.00  0.00    +0.000 NA
ATOM     15  N   UNL     1      46.865   0.618   7.846  0.00  0.00    +0.000 NA
ATOM     16  C   UNL     1      45.938   1.460   8.362  0.00  0.00    +0.000 A 
ENDBRANCH   9  11
ENDBRANCH   8   9
ENDBRANCH   5   8
ENDBRANCH   1   2
BRANCH   1  17
ATOM     17  C   UNL     1      47.216   7.993  13.446  0.00  0.00    +0.000 C 
BRANCH  17  18
ATOM     18  C   UNL     1      48.511   8.296  12.716  0.00  0.00    +0.000 A 
ATOM     19  C   UNL     1      49.636   7.490  12.796  0.00  0.00    +0.000 A 
ATOM     20  S   UNL     1      50.978   8.119  11.946  0.00  0.00    +0.000 S 
ATOM     21  C   UNL     1      50.093   9.480  11.431  0.00  0.00    +0.000 A 
ATOM     22  N   UNL     1      50.670  10.456  10.679  0.00  0.00    +0.000 NA
ATOM     23  C   UNL     1      49.879  11.432  10.377  0.00  0.00    +0.000 A 
ATOM     24  N   UNL     1      48.560  11.515  10.745  0.00  0.00    +0.000 N 
ATOM     25  C   UNL     1      47.915  10.520  11.442  0.00  0.00    +0.000 A 
ATOM     26  O   UNL     1      46.705  10.563  11.645  0.00  0.00    +0.000 OA
ATOM     27  C   UNL     1      48.784   9.436  11.869  0.00  0.00    +0.000 A 
ATOM     28  H   UNL     1      47.985  12.286  10.441  0.00  0.00    +0.000 HD
ENDBRANCH  17  18
BRANCH  17  29
ATOM     29  N   UNL     1      47.143   8.860  14.618  0.00  0.00    +0.000 NA
ATOM     30  H   UNL     1      47.176   9.837  14.328  0.00  0.00    +0.000 HD
ATOM     31  H   UNL     1      47.966   8.699  15.204  0.00  0.00    +0.000 HD
ENDBRANCH  17  29
ENDBRANCH   1  17
TORSDOF 7
ENDMDL
MODEL 4
REMARK VINA RESULT:    -7.477      2.183      3.116
REMARK INTER + INTRA:         -11.033
REMARK INTER:                 -10.315
REMARK INTRA:                  -0.718
REMARK UNBOUND:                -0.715
REMARK  Name = 
REMARK  7 active torsions:
REMARK  status: ('A' for Active; 'I' for Inactive)
REMARK    1  A    between atoms: N_1  and  C_2
REMARK    2  A    between atoms: C_2  and  C_3
REMARK    3  A    between atoms: C_2  and  C_18
REMARK    4  A    between atoms: C_3  and  C_4
REMARK    5  A    between atoms: C_7  and  C_8
REMARK    6  A    between atoms: C_8  and  N_9
REMARK    7  A    between atoms: N_9  and  C_10
REMARK                            x       y       z     vdW  Elec       q    Type
REMARK                         _______ _______ _______ _____ _____    ______ ____
ROOT
ATOM      1  C   UNL     1      46.853   6.552  13.555  0.00  0.00    +0.000 C 
ENDROOT
BRANCH   1   2
ATOM      2  C   UNL     1      46.229   5.617  12.554  0.00  0.00    +0.000 A 
ATOM      3  C   UNL     1      45.963   6.041  11.249  0.00  0.00    +0.000 A 
ATOM      4  C   UNL     1      45.296   5.198  10.367  0.00  0.00    +0.000 A 
ATOM      5  C   UNL     1      44.899   3.940  10.810  0.00  0.00    +0.000 A 
ATOM      6  N   UNL     1      45.184   3.487  12.059  0.00  0.00    +0.000 NA
ATOM      7  C   UNL     1      45.834   4.330  12.896  0.00  0.00    +0.000 A 
BRANCH   5   8
ATOM      8  C   UNL     1      44.136   3.009   9.887  0.00  0.00    +0.000 C 
BRANCH   8   9
ATOM      9  N   UNL     1      44.547   3.176   8.492  0.00  0.00    +0.000 N 
ATOM     10  H   UNL     1      43.743   3.002   7.886  0.00  0.00    +0.000 HD
BRANCH   9  11
ATOM     11  C   UNL     1      45.720   2.593   8.006  0.00  0.00    +0.000 A 
ATOM     12  C   UNL     1      46.616   3.241   7.163  0.00  0.00    +0.000 A 
ATOM     13  C   UNL     1      47.703   2.537   6.671  0.00  0.00    +0.000 A 
ATOM     14  N   UNL     1      47.933   1.241   6.954  0.00  0.00    +0.000 NA
ATOM     15  N   UNL     1      47.053   0.577   7.735  0.00  0.00    +0.000 NA
ATOM     16  C   UNL     1      45.979   1.242   8.223  0.00  0.00    +0.000 A 
ENDBRANCH   9  11
ENDBRANCH   8   9
ENDBRANCH   5   8
ENDBRANCH   1   2
BRANCH   1  17
ATOM     17  C   UNL     1      48.293   6.215  14.013  0.00  0.00    +0.000 C 
BRANCH  17  18
ATOM     18  C   UNL     1      48.611   6.845  15.356  0.00  0.00    +0.000 A 
ATOM     19  C   UNL     1      48.837   6.108  16.508  0.00  0.00    +0.000 A 
ATOM     20  S   UNL     1      49.084   7.079  17.892  0.00  0.00    +0.000 S 
ATOM     21  C   UNL     1      48.914   8.515  16.992  0.00  0.00    +0.000 A 
ATOM     22  N   UNL     1      48.983   9.736  17.588  0.00  0.00    +0.000 NA
ATOM     23  C   UNL     1      48.821  10.731  16.780  0.00  0.00    +0.000 A 
ATOM     24  N   UNL     1      48.612  10.620  15.429  0.00  0.00    +0.000 N 
ATOM     25  C   UNL     1      48.608   9.411  14.772  0.00  0.00    +0.000 A 
ATOM     26  O   UNL     1      48.547   9.350  13.548  0.00  0.00    +0.000 OA
ATOM     27  C   UNL     1      48.710   8.258  15.651  0.00  0.00    +0.000 A 
ATOM     28  H   UNL     1      48.535  11.440  14.848  0.00  0.00    +0.000 HD
ENDBRANCH  17  18
BRANCH  17  29
ATOM     29  N   UNL     1      49.328   6.619  13.067  0.00  0.00    +0.000 NA
ATOM     30  H   UNL     1      49.440   5.902  12.350  0.00  0.00    +0.000 HD
ATOM     31  H   UNL     1      50.223   6.685  13.558  0.00  0.00    +0.000 HD
ENDBRANCH  17  29
ENDBRANCH   1  17
TORSDOF 7
ENDMDL
MODEL 5
REMARK VINA RESULT:    -7.476      2.995      3.814
REMARK INTER + INTRA:         -11.031
REMARK INTER:                 -10.233
REMARK INTRA:                  -0.798
REMARK UNBOUND:                -0.715
REMARK  Name = 
REMARK  7 active torsions:
REMARK  status: ('A' for Active; 'I' for Inactive)
REMARK    1  A    between atoms: N_1  and  C_2
REMARK    2  A    between atoms: C_2  and  C_3
REMARK    3  A    between atoms: C_2  and  C_18
REMARK    4  A    between atoms: C_3  and  C_4
REMARK    5  A    between atoms: C_7  and  C_8
REMARK    6  A    between atoms: C_8  and  N_9
REMARK    7  A    between atoms: N_9  and  C_10
REMARK                            x       y       z     vdW  Elec       q    Type
REMARK                         _______ _______ _______ _____ _____    ______ ____
ROOT
ATOM      1  C   UNL     1      47.384   6.585  13.696  0.00  0.00    +0.000 C 
ENDROOT
BRANCH   1   2
ATOM      2  C   UNL     1      46.616   5.834  12.641  0.00  0.00    +0.000 A 
ATOM      3  C   UNL     1      46.405   6.393  11.378  0.00  0.00    +0.000 A 
ATOM      4  C   UNL     1      45.610   5.730  10.449  0.00  0.00    +0.000 A 
ATOM      5  C   UNL     1      45.030   4.516  10.805  0.00  0.00    +0.000 A 
ATOM      6  N   UNL     1      45.256   3.930  12.011  0.00  0.00    +0.000 NA
ATOM      7  C   UNL     1      46.034   4.599  12.894  0.00  0.00    +0.000 A 
BRANCH   5   8
ATOM      8  C   UNL     1      44.127   3.784   9.832  0.00  0.00    +0.000 C 
BRANCH   8   9
ATOM      9  N   UNL     1      44.645   3.844   8.463  0.00  0.00    +0.000 N 
ATOM     10  H   UNL     1      43.860   3.902   7.813  0.00  0.00    +0.000 HD
BRANCH   9  11
ATOM     11  C   UNL     1      45.640   2.966   8.026  0.00  0.00    +0.000 A 
ATOM     12  C   UNL     1      46.558   3.270   7.026  0.00  0.00    +0.000 A 
ATOM     13  C   UNL     1      47.444   2.291   6.609  0.00  0.00    +0.000 A 
ATOM     14  N   UNL     1      47.457   1.043   7.113  0.00  0.00    +0.000 NA
ATOM     15  N   UNL     1      46.548   0.710   8.055  0.00  0.00    +0.000 NA
ATOM     16  C   UNL     1      45.664   1.647   8.473  0.00  0.00    +0.000 A 
ENDBRANCH   9  11
ENDBRANCH   8   9
ENDBRANCH   5   8
ENDBRANCH   1   2
BRANCH   1  17
ATOM     17  C   UNL     1      47.478   8.120  13.522  0.00  0.00    +0.000 C 
BRANCH  17  18
ATOM     18  C   UNL     1      48.832   8.536  12.978  0.00  0.00    +0.000 A 
ATOM     19  C   UNL     1      48.998   9.186  11.765  0.00  0.00    +0.000 A 
ATOM     20  S   UNL     1      50.636   9.453  11.362  0.00  0.00    +0.000 S 
ATOM     21  C   UNL     1      51.175   8.724  12.803  0.00  0.00    +0.000 A 
ATOM     22  N   UNL     1      52.501   8.592  13.076  0.00  0.00    +0.000 NA
ATOM     23  C   UNL     1      52.756   8.006  14.199  0.00  0.00    +0.000 A 
ATOM     24  N   UNL     1      51.809   7.554  15.082  0.00  0.00    +0.000 N 
ATOM     25  C   UNL     1      50.459   7.731  14.884  0.00  0.00    +0.000 A 
ATOM     26  O   UNL     1      49.641   7.433  15.749  0.00  0.00    +0.000 OA
ATOM     27  C   UNL     1      50.121   8.317  13.597  0.00  0.00    +0.000 A 
ATOM     28  H   UNL     1      52.076   7.142  15.963  0.00  0.00    +0.000 HD
ENDBRANCH  17  18
BRANCH  17  29
ATOM     29  N   UNL     1      47.232   8.874  14.747  0.00  0.00    +0.000 NA
ATOM     30  H   UNL     1      46.739   8.288  15.421  0.00  0.00    +0.000 HD
ATOM     31  H   UNL     1      46.614   9.662  14.536  0.00  0.00    +0.000 HD
ENDBRANCH  17  29
ENDBRANCH   1  17
TORSDOF 7
ENDMDL
MODEL 6
REMARK VINA RESULT:    -7.390      3.042      8.222
REMARK INTER + INTRA:         -10.914
REMARK INTER:                 -10.354
REMARK INTRA:                  -0.559
REMARK UNBOUND:                -0.715
REMARK  Name = 
REMARK  7 active torsions:
REMARK  status: ('A' for Active; 'I' for Inactive)
REMARK    1  A    between atoms: N_1  and  C_2
REMARK    2  A    between atoms: C_2  and  C_3
REMARK    3  A    between atoms: C_2  and  C_18
REMARK    4  A    between atoms: C_3  and  C_4
REMARK    5  A    between atoms: C_7  and  C_8
REMARK    6  A    between atoms: C_8  and  N_9
REMARK    7  A    between atoms: N_9  and  C_10
REMARK                            x       y       z     vdW  Elec       q    Type
REMARK                         _______ _______ _______ _____ _____    ______ ____
ROOT
ATOM      1  C   UNL     1      46.787   6.245  12.201  0.00  0.00    +0.000 C 
ENDROOT
BRANCH   1   2
ATOM      2  C   UNL     1      47.326   5.809  13.538  0.00  0.00    +0.000 A 
ATOM      3  C   UNL     1      46.836   4.660  14.165  0.00  0.00    +0.000 A 
ATOM      4  C   UNL     1      47.272   4.327  15.443  0.00  0.00    +0.000 A 
ATOM      5  C   UNL     1      48.192   5.158  16.077  0.00  0.00    +0.000 A 
ATOM      6  N   UNL     1      48.717   6.256  15.471  0.00  0.00    +0.000 NA
ATOM      7  C   UNL     1      48.272   6.555  14.228  0.00  0.00    +0.000 A 
BRANCH   5   8
ATOM      8  C   UNL     1      48.661   4.847  17.485  0.00  0.00    +0.000 C 
BRANCH   8   9
ATOM      9  N   UNL     1      50.123   4.821  17.574  0.00  0.00    +0.000 N 
ATOM     10  H   UNL     1      50.510   5.446  16.865  0.00  0.00    +0.000 HD
BRANCH   9  11
ATOM     11  C   UNL     1      50.823   3.616  17.665  0.00  0.00    +0.000 A 
ATOM     12  C   UNL     1      52.155   3.519  18.052  0.00  0.00    +0.000 A 
ATOM     13  C   UNL     1      52.775   2.281  18.022  0.00  0.00    +0.000 A 
ATOM     14  N   UNL     1      52.156   1.155  17.620  0.00  0.00    +0.000 NA
ATOM     15  N   UNL     1      50.875   1.229  17.198  0.00  0.00    +0.000 NA
ATOM     16  C   UNL     1      50.249   2.430  17.210  0.00  0.00    +0.000 A 
ENDBRANCH   9  11
ENDBRANCH   8   9
ENDBRANCH   5   8
ENDBRANCH   1   2
BRANCH   1  17
ATOM     17  C   UNL     1      45.246   6.324  12.068  0.00  0.00    +0.000 C 
BRANCH  17  18
ATOM     18  C   UNL     1      44.655   4.990  11.653  0.00  0.00    +0.000 A 
ATOM     19  C   UNL     1      43.822   4.240  12.469  0.00  0.00    +0.000 A 
ATOM     20  S   UNL     1      43.377   2.741  11.782  0.00  0.00    +0.000 S 
ATOM     21  C   UNL     1      44.269   3.054  10.365  0.00  0.00    +0.000 A 
ATOM     22  N   UNL     1      44.340   2.143   9.358  0.00  0.00    +0.000 NA
ATOM     23  C   UNL     1      45.065   2.515   8.356  0.00  0.00    +0.000 A 
ATOM     24  N   UNL     1      45.712   3.720   8.259  0.00  0.00    +0.000 N 
ATOM     25  C   UNL     1      45.609   4.701   9.217  0.00  0.00    +0.000 A 
ATOM     26  O   UNL     1      46.092   5.816   9.046  0.00  0.00    +0.000 OA
ATOM     27  C   UNL     1      44.866   4.299  10.401  0.00  0.00    +0.000 A 
ATOM     28  H   UNL     1      46.229   3.966   7.428  0.00  0.00    +0.000 HD
ENDBRANCH  17  18
BRANCH  17  29
ATOM     29  N   UNL     1      44.781   7.338  11.127  0.00  0.00    +0.000 NA
ATOM     30  H   UNL     1      43.946   7.006  10.645  0.00  0.00    +0.000 HD
ATOM     31  H   UNL     1      45.497   7.482  10.411  0.00  0.00    +0.000 HD
ENDBRANCH  17  29
ENDBRANCH   1  17
TORSDOF 7
ENDMDL
MODEL 7
REMARK VINA RESULT:    -6.993      2.375      3.002
REMARK INTER + INTRA:         -10.366
REMARK INTER:                  -9.523
REMARK INTRA:                  -0.843
REMARK UNBOUND:                -0.715
REMARK  Name = 
REMARK  7 active torsions:
REMARK  status: ('A' for Active; 'I' for Inactive)
REMARK    1  A    between atoms: N_1  and  C_2
REMARK    2  A    between atoms: C_2  and  C_3
REMARK    3  A    between atoms: C_2  and  C_18
REMARK    4  A    between atoms: C_3  and  C_4
REMARK    5  A    between atoms: C_7  and  C_8
REMARK    6  A    between atoms: C_8  and  N_9
REMARK    7  A    between atoms: N_9  and  C_10
REMARK                            x       y       z     vdW  Elec       q    Type
REMARK                         _______ _______ _______ _____ _____    ______ ____
ROOT
ATOM      1  C   UNL     1      48.534   6.651  13.396  0.00  0.00    +0.000 C 
ENDROOT
BRANCH   1   2
ATOM      2  C   UNL     1      47.264   6.177  12.740  0.00  0.00    +0.000 A 
ATOM      3  C   UNL     1      46.513   5.142  13.303  0.00  0.00    +0.000 A 
ATOM      4  C   UNL     1      45.397   4.650  12.633  0.00  0.00    +0.000 A 
ATOM      5  C   UNL     1      45.056   5.200  11.401  0.00  0.00    +0.000 A 
ATOM      6  N   UNL     1      45.743   6.237  10.854  0.00  0.00    +0.000 NA
ATOM      7  C   UNL     1      46.825   6.695  11.529  0.00  0.00    +0.000 A 
BRANCH   5   8
ATOM      8  C   UNL     1      43.869   4.663  10.625  0.00  0.00    +0.000 C 
BRANCH   8   9
ATOM      9  N   UNL     1      44.162   4.560   9.194  0.00  0.00    +0.000 N 
ATOM     10  H   UNL     1      43.282   4.556   8.675  0.00  0.00    +0.000 HD
BRANCH   9  11
ATOM     11  C   UNL     1      45.076   3.623   8.707  0.00  0.00    +0.000 A 
ATOM     12  C   UNL     1      46.017   3.897   7.721  0.00  0.00    +0.000 A 
ATOM     13  C   UNL     1      46.815   2.868   7.250  0.00  0.00    +0.000 A 
ATOM     14  N   UNL     1      46.718   1.599   7.687  0.00  0.00    +0.000 NA
ATOM     15  N   UNL     1      45.781   1.297   8.613  0.00  0.00    +0.000 NA
ATOM     16  C   UNL     1      44.984   2.285   9.084  0.00  0.00    +0.000 A 
ENDBRANCH   9  11
ENDBRANCH   8   9
ENDBRANCH   5   8
ENDBRANCH   1   2
BRANCH   1  17
ATOM     17  C   UNL     1      48.395   7.802  14.421  0.00  0.00    +0.000 C 
BRANCH  17  18
ATOM     18  C   UNL     1      48.570   7.304  15.844  0.00  0.00    +0.000 A 
ATOM     19  C   UNL     1      48.679   5.962  16.172  0.00  0.00    +0.000 A 
ATOM     20  S   UNL     1      48.776   5.685  17.855  0.00  0.00    +0.000 S 
ATOM     21  C   UNL     1      48.693   7.351  18.197  0.00  0.00    +0.000 A 
ATOM     22  N   UNL     1      48.694   7.812  19.477  0.00  0.00    +0.000 NA
ATOM     23  C   UNL     1      48.611   9.097  19.579  0.00  0.00    +0.000 A 
ATOM     24  N   UNL     1      48.543   9.966  18.520  0.00  0.00    +0.000 N 
ATOM     25  C   UNL     1      48.613   9.553  17.211  0.00  0.00    +0.000 A 
ATOM     26  O   UNL     1      48.680  10.360  16.288  0.00  0.00    +0.000 OA
ATOM     27  C   UNL     1      48.630   8.109  17.044  0.00  0.00    +0.000 A 
ATOM     28  H   UNL     1      48.522  10.963  18.670  0.00  0.00    +0.000 HD
ENDBRANCH  17  18
BRANCH  17  29
ATOM     29  N   UNL     1      47.125   8.517  14.345  0.00  0.00    +0.000 NA
ATOM     30  H   UNL     1      47.274   9.507  14.539  0.00  0.00    +0.000 HD
ATOM     31  H   UNL     1      46.499   8.165  15.073  0.00  0.00    +0.000 HD
ENDBRANCH  17  29
ENDBRANCH   1  17
TORSDOF 7
ENDMDL
MODEL 8
REMARK VINA RESULT:    -6.960      3.240      7.832
REMARK INTER + INTRA:         -10.319
REMARK INTER:                  -9.515
REMARK INTRA:                  -0.804
REMARK UNBOUND:                -0.715
REMARK  Name = 
REMARK  7 active torsions:
REMARK  status: ('A' for Active; 'I' for Inactive)
REMARK    1  A    between atoms: N_1  and  C_2
REMARK    2  A    between atoms: C_2  and  C_3
REMARK    3  A    between atoms: C_2  and  C_18
REMARK    4  A    between atoms: C_3  and  C_4
REMARK    5  A    between atoms: C_7  and  C_8
REMARK    6  A    between atoms: C_8  and  N_9
REMARK    7  A    between atoms: N_9  and  C_10
REMARK                            x       y       z     vdW  Elec       q    Type
REMARK                         _______ _______ _______ _____ _____    ______ ____
ROOT
ATOM      1  C   UNL     1      47.447   7.051  11.856  0.00  0.00    +0.000 C 
ENDROOT
BRANCH   1   2
ATOM      2  C   UNL     1      48.157   6.923  13.178  0.00  0.00    +0.000 A 
ATOM      3  C   UNL     1      49.338   7.629  13.425  0.00  0.00    +0.000 A 
ATOM      4  C   UNL     1      50.034   7.423  14.611  0.00  0.00    +0.000 A 
ATOM      5  C   UNL     1      49.538   6.504  15.532  0.00  0.00    +0.000 A 
ATOM      6  N   UNL     1      48.369   5.839  15.335  0.00  0.00    +0.000 NA
ATOM      7  C   UNL     1      47.714   6.060  14.170  0.00  0.00    +0.000 A 
BRANCH   5   8
ATOM      8  C   UNL     1      50.290   6.226  16.819  0.00  0.00    +0.000 C 
BRANCH   8   9
ATOM      9  N   UNL     1      49.697   5.112  17.561  0.00  0.00    +0.000 N 
ATOM     10  H   UNL     1      49.492   5.418  18.513  0.00  0.00    +0.000 HD
BRANCH   9  11
ATOM     11  C   UNL     1      50.257   3.833  17.519  0.00  0.00    +0.000 A 
ATOM     12  C   UNL     1      51.575   3.551  17.863  0.00  0.00    +0.000 A 
ATOM     13  C   UNL     1      52.050   2.261  17.698  0.00  0.00    +0.000 A 
ATOM     14  N   UNL     1      51.303   1.256  17.203  0.00  0.00    +0.000 NA
ATOM     15  N   UNL     1      50.034   1.514  16.820  0.00  0.00    +0.000 NA
ATOM     16  C   UNL     1      49.548   2.770  16.964  0.00  0.00    +0.000 A 
ENDBRANCH   9  11
ENDBRANCH   8   9
ENDBRANCH   5   8
ENDBRANCH   1   2
BRANCH   1  17
ATOM     17  C   UNL     1      45.913   6.846  11.872  0.00  0.00    +0.000 C 
BRANCH  17  18
ATOM     18  C   UNL     1      45.499   5.674  11.003  0.00  0.00    +0.000 A 
ATOM     19  C   UNL     1      45.732   5.619   9.638  0.00  0.00    +0.000 A 
ATOM     20  S   UNL     1      45.080   4.224   8.898  0.00  0.00    +0.000 S 
ATOM     21  C   UNL     1      44.480   3.641  10.381  0.00  0.00    +0.000 A 
ATOM     22  N   UNL     1      43.774   2.481  10.452  0.00  0.00    +0.000 NA
ATOM     23  C   UNL     1      43.372   2.175  11.641  0.00  0.00    +0.000 A 
ATOM     24  N   UNL     1      43.624   2.914  12.769  0.00  0.00    +0.000 N 
ATOM     25  C   UNL     1      44.394   4.053  12.758  0.00  0.00    +0.000 A 
ATOM     26  O   UNL     1      44.709   4.622  13.799  0.00  0.00    +0.000 OA
ATOM     27  C   UNL     1      44.805   4.479  11.430  0.00  0.00    +0.000 A 
ATOM     28  H   UNL     1      43.316   2.597  13.676  0.00  0.00    +0.000 HD
ENDBRANCH  17  18
BRANCH  17  29
ATOM     29  N   UNL     1      45.151   8.017  11.446  0.00  0.00    +0.000 NA
ATOM     30  H   UNL     1      45.202   8.741  12.162  0.00  0.00    +0.000 HD
ATOM     31  H   UNL     1      44.166   7.760  11.357  0.00  0.00    +0.000 HD
ENDBRANCH  17  29
ENDBRANCH   1  17
TORSDOF 7
ENDMDL
MODEL 9
REMARK VINA RESULT:    -6.675      3.212      7.706
REMARK INTER + INTRA:          -9.926
REMARK INTER:                  -8.966
REMARK INTRA:                  -0.960
REMARK UNBOUND:                -0.715
REMARK  Name = 
REMARK  7 active torsions:
REMARK  status: ('A' for Active; 'I' for Inactive)
REMARK    1  A    between atoms: N_1  and  C_2
REMARK    2  A    between atoms: C_2  and  C_3
REMARK    3  A    between atoms: C_2  and  C_18
REMARK    4  A    between atoms: C_3  and  C_4
REMARK    5  A    between atoms: C_7  and  C_8
REMARK    6  A    between atoms: C_8  and  N_9
REMARK    7  A    between atoms: N_9  and  C_10
REMARK                            x       y       z     vdW  Elec       q    Type
REMARK                         _______ _______ _______ _____ _____    ______ ____
ROOT
ATOM      1  C   UNL     1      46.390   8.066  11.819  0.00  0.00    +0.000 C 
ENDROOT
BRANCH   1   2
ATOM      2  C   UNL     1      47.255   7.702  12.997  0.00  0.00    +0.000 A 
ATOM      3  C   UNL     1      47.629   8.670  13.933  0.00  0.00    +0.000 A 
ATOM      4  C   UNL     1      48.509   8.340  14.959  0.00  0.00    +0.000 A 
ATOM      5  C   UNL     1      49.008   7.042  15.025  0.00  0.00    +0.000 A 
ATOM      6  N   UNL     1      48.625   6.072  14.154  0.00  0.00    +0.000 NA
ATOM      7  C   UNL     1      47.767   6.423  13.166  0.00  0.00    +0.000 A 
BRANCH   5   8
ATOM      8  C   UNL     1      49.998   6.657  16.107  0.00  0.00    +0.000 C 
BRANCH   8   9
ATOM      9  N   UNL     1      49.321   6.175  17.313  0.00  0.00    +0.000 N 
ATOM     10  H   UNL     1      49.919   6.351  18.122  0.00  0.00    +0.000 HD
BRANCH   9  11
ATOM     11  C   UNL     1      48.721   4.915  17.353  0.00  0.00    +0.000 A 
ATOM     12  C   UNL     1      49.413   3.720  17.184  0.00  0.00    +0.000 A 
ATOM     13  C   UNL     1      48.703   2.532  17.154  0.00  0.00    +0.000 A 
ATOM     14  N   UNL     1      47.362   2.469  17.266  0.00  0.00    +0.000 NA
ATOM     15  N   UNL     1      46.663   3.619  17.387  0.00  0.00    +0.000 NA
ATOM     16  C   UNL     1      47.334   4.795  17.411  0.00  0.00    +0.000 A 
ENDBRANCH   9  11
ENDBRANCH   8   9
ENDBRANCH   5   8
ENDBRANCH   1   2
BRANCH   1  17
ATOM     17  C   UNL     1      44.987   7.412  11.763  0.00  0.00    +0.000 C 
BRANCH  17  18
ATOM     18  C   UNL     1      45.014   6.105  10.994  0.00  0.00    +0.000 A 
ATOM     19  C   UNL     1      45.675   5.945   9.786  0.00  0.00    +0.000 A 
ATOM     20  S   UNL     1      45.463   4.395   9.100  0.00  0.00    +0.000 S 
ATOM     21  C   UNL     1      44.493   3.883  10.403  0.00  0.00    +0.000 A 
ATOM     22  N   UNL     1      43.943   2.639  10.429  0.00  0.00    +0.000 NA
ATOM     23  C   UNL     1      43.221   2.399  11.473  0.00  0.00    +0.000 A 
ATOM     24  N   UNL     1      43.010   3.282  12.502  0.00  0.00    +0.000 N 
ATOM     25  C   UNL     1      43.604   4.522  12.554  0.00  0.00    +0.000 A 
ATOM     26  O   UNL     1      43.501   5.238  13.545  0.00  0.00    +0.000 OA
ATOM     27  C   UNL     1      44.365   4.866  11.364  0.00  0.00    +0.000 A 
ATOM     28  H   UNL     1      42.468   3.017  13.310  0.00  0.00    +0.000 HD
ENDBRANCH  17  18
BRANCH  17  29
ATOM     29  N   UNL     1      43.957   8.262  11.175  0.00  0.00    +0.000 NA
ATOM     30  H   UNL     1      43.794   7.989  10.207  0.00  0.00    +0.000 HD
ATOM     31  H   UNL     1      44.293   9.228  11.155  0.00  0.00    +0.000 HD
ENDBRANCH  17  29
ENDBRANCH   1  17
TORSDOF 7
ENDMDL
