MODEL 1
REMARK VINA RESULT:    -7.774      0.000      0.000
REMARK INTER + INTRA:          -8.097
REMARK INTER:                  -9.137
REMARK INTRA:                   1.040
REMARK UNBOUND:                 1.040
REMARK  Name = 
REMARK  4 active torsions:
REMARK  status: ('A' for Active; 'I' for Inactive)
REMARK    1  A    between atoms: C_1  and  C_2
REMARK    2  A    between atoms: C_2  and  N_3
REMARK    3  A    between atoms: C_2  and  C_13
REMARK    4  A    between atoms: C_7  and  C_8
REMARK                            x       y       z     vdW  Elec       q    Type
REMARK                         _______ _______ _______ _____ _____    ______ ____
ROOT
ATOM      1  N   UNL     1      44.752   5.288   9.915  0.00  0.00    +0.000 N 
ATOM      2  C   UNL     1      45.480   5.312  11.110  0.00  0.00    +0.000 A 
ATOM      3  C   UNL     1      46.444   6.317  11.300  0.00  0.00    +0.000 A 
ATOM      4  N   UNL     1      47.210   6.452  12.416  0.00  0.00    +0.000 NA
ATOM      5  C   UNL     1      46.943   5.539  13.384  0.00  0.00    +0.000 A 
ATOM      6  C   UNL     1      45.967   4.563  13.232  0.00  0.00    +0.000 A 
ATOM      7  N   UNL     1      45.227   4.427  12.095  0.00  0.00    +0.000 NA
ATOM      8  H   UNL     1      44.024   5.998   9.984  0.00  0.00    +0.000 HD
ENDROOT
BRANCH   5   9
ATOM      9  C   UNL     1      47.745   5.595  14.636  0.00  0.00    +0.000 C 
ATOM     10  N   UNL     1      47.263   4.891  15.705  0.00  0.00    +0.000 N 
ATOM     11  O   UNL     1      48.785   6.246  14.715  0.00  0.00    +0.000 OA
ATOM     12  H   UNL     1      46.389   4.382  15.630  0.00  0.00    +0.000 HD
ATOM     13  H   UNL     1      47.762   4.916  16.583  0.00  0.00    +0.000 HD
ENDBRANCH   5   9
BRANCH   1  15
ATOM     14  C   UNL     1      43.811   3.148  10.717  0.00  0.00    +0.000 C 
ATOM     15  C   UNL     1      44.169   4.006   9.495  0.00  0.00    +0.000 C 
BRANCH  15  16
ATOM     16  C   UNL     1      45.213   3.281   8.644  0.00  0.00    +0.000 A 
ATOM     17  C   UNL     1      45.970   3.976   7.687  0.00  0.00    +0.000 A 
ATOM     18  C   UNL     1      46.950   3.317   6.936  0.00  0.00    +0.000 A 
ATOM     19  C   UNL     1      47.186   1.957   7.128  0.00  0.00    +0.000 A 
ATOM     20  C   UNL     1      46.428   1.249   8.056  0.00  0.00    +0.000 A 
ATOM     21  C   UNL     1      45.449   1.904   8.804  0.00  0.00    +0.000 A 
ENDBRANCH  15  16
ENDBRANCH   1  15
TORSDOF 3
ENDMDL
MODEL 2
REMARK VINA RESULT:    -7.754      1.344      2.123
REMARK INTER + INTRA:          -8.073
REMARK INTER:                  -7.674
REMARK INTRA:                  -0.400
REMARK UNBOUND:                 1.040
REMARK  Name = 
REMARK  4 active torsions:
REMARK  status: ('A' for Active; 'I' for Inactive)
REMARK    1  A    between atoms: C_1  and  C_2
REMARK    2  A    between atoms: C_2  and  N_3
REMARK    3  A    between atoms: C_2  and  C_13
REMARK    4  A    between atoms: C_7  and  C_8
REMARK                            x       y       z     vdW  Elec       q    Type
REMARK                         _______ _______ _______ _____ _____    ______ ____
ROOT
ATOM      1  N   UNL     1      45.359   3.868  12.305  0.00  0.00    +0.000 N 
ATOM      2  C   UNL     1      46.260   4.708  12.970  0.00  0.00    +0.000 A 
ATOM      3  C   UNL     1      46.652   4.384  14.280  0.00  0.00    +0.000 A 
ATOM      4  N   UNL     1      47.524   5.112  15.028  0.00  0.00    +0.000 NA
ATOM      5  C   UNL     1      48.038   6.192  14.385  0.00  0.00    +0.000 A 
ATOM      6  C   UNL     1      47.694   6.506  13.077  0.00  0.00    +0.000 A 
ATOM      7  N   UNL     1      46.798   5.779  12.352  0.00  0.00    +0.000 NA
ATOM      8  H   UNL     1      45.881   3.061  11.969  0.00  0.00    +0.000 HD
ENDROOT
BRANCH   5   9
ATOM      9  C   UNL     1      48.987   7.062  15.130  0.00  0.00    +0.000 C 
ATOM     10  N   UNL     1      48.435   8.012  15.945  0.00  0.00    +0.000 N 
ATOM     11  O   UNL     1      50.205   6.943  15.019  0.00  0.00    +0.000 OA
ATOM     12  H   UNL     1      47.428   8.114  16.004  0.00  0.00    +0.000 HD
ATOM     13  H   UNL     1      49.039   8.641  16.455  0.00  0.00    +0.000 HD
ENDBRANCH   5   9
BRANCH   1  15
ATOM     14  C   UNL     1      43.079   4.102  11.381  0.00  0.00    +0.000 C 
ATOM     15  C   UNL     1      44.564   4.448  11.212  0.00  0.00    +0.000 C 
BRANCH  15  16
ATOM     16  C   UNL     1      45.086   3.859   9.901  0.00  0.00    +0.000 A 
ATOM     17  C   UNL     1      45.624   4.688   8.903  0.00  0.00    +0.000 A 
ATOM     18  C   UNL     1      46.134   4.143   7.720  0.00  0.00    +0.000 A 
ATOM     19  C   UNL     1      46.111   2.764   7.514  0.00  0.00    +0.000 A 
ATOM     20  C   UNL     1      45.559   1.931   8.483  0.00  0.00    +0.000 A 
ATOM     21  C   UNL     1      45.049   2.473   9.663  0.00  0.00    +0.000 A 
ENDBRANCH  15  16
ENDBRANCH   1  15
TORSDOF 3
ENDMDL
MODEL 3
REMARK VINA RESULT:    -7.645      1.873      2.627
REMARK INTER + INTRA:          -7.946
REMARK INTER:                  -7.550
REMARK INTRA:                  -0.396
REMARK UNBOUND:                 1.040
REMARK  Name = 
REMARK  4 active torsions:
REMARK  status: ('A' for Active; 'I' for Inactive)
REMARK    1  A    between atoms: C_1  and  C_2
REMARK    2  A    between atoms: C_2  and  N_3
REMARK    3  A    between atoms: C_2  and  C_13
REMARK    4  A    between atoms: C_7  and  C_8
REMARK                            x       y       z     vdW  Elec       q    Type
REMARK                         _______ _______ _______ _____ _____    ______ ____
ROOT
ATOM      1  N   UNL     1      45.546   3.399  10.929  0.00  0.00    +0.000 N 
ATOM      2  C   UNL     1      45.563   4.717  11.400  0.00  0.00    +0.000 A 
ATOM      3  C   UNL     1      45.936   4.959  12.733  0.00  0.00    +0.000 A 
ATOM      4  N   UNL     1      45.999   6.191  13.306  0.00  0.00    +0.000 NA
ATOM      5  C   UNL     1      45.702   7.211  12.460  0.00  0.00    +0.000 A 
ATOM      6  C   UNL     1      45.369   6.995  11.130  0.00  0.00    +0.000 A 
ATOM      7  N   UNL     1      45.286   5.751  10.580  0.00  0.00    +0.000 NA
ATOM      8  H   UNL     1      46.508   3.132  10.727  0.00  0.00    +0.000 HD
ENDROOT
BRANCH   5   9
ATOM      9  C   UNL     1      45.724   8.596  13.003  0.00  0.00    +0.000 C 
ATOM     10  N   UNL     1      46.617   8.845  14.010  0.00  0.00    +0.000 N 
ATOM     11  O   UNL     1      44.976   9.474  12.580  0.00  0.00    +0.000 OA
ATOM     12  H   UNL     1      47.207   8.101  14.366  0.00  0.00    +0.000 HD
ATOM     13  H   UNL     1      46.654   9.765  14.426  0.00  0.00    +0.000 HD
ENDBRANCH   5   9
BRANCH   1  15
ATOM     14  C   UNL     1      43.796   1.879  10.072  0.00  0.00    +0.000 C 
ATOM     15  C   UNL     1      44.684   3.095   9.778  0.00  0.00    +0.000 C 
BRANCH  15  16
ATOM     16  C   UNL     1      45.595   2.794   8.587  0.00  0.00    +0.000 A 
ATOM     17  C   UNL     1      46.102   1.502   8.376  0.00  0.00    +0.000 A 
ATOM     18  C   UNL     1      46.904   1.221   7.265  0.00  0.00    +0.000 A 
ATOM     19  C   UNL     1      47.214   2.226   6.350  0.00  0.00    +0.000 A 
ATOM     20  C   UNL     1      46.739   3.518   6.557  0.00  0.00    +0.000 A 
ATOM     21  C   UNL     1      45.940   3.799   7.666  0.00  0.00    +0.000 A 
ENDBRANCH  15  16
ENDBRANCH   1  15
TORSDOF 3
ENDMDL
MODEL 4
REMARK VINA RESULT:    -7.381      1.767      2.802
REMARK INTER + INTRA:          -7.636
REMARK INTER:                  -7.246
REMARK INTRA:                  -0.390
REMARK UNBOUND:                 1.040
REMARK  Name = 
REMARK  4 active torsions:
REMARK  status: ('A' for Active; 'I' for Inactive)
REMARK    1  A    between atoms: C_1  and  C_2
REMARK    2  A    between atoms: C_2  and  N_3
REMARK    3  A    between atoms: C_2  and  C_13
REMARK    4  A    between atoms: C_7  and  C_8
REMARK                            x       y       z     vdW  Elec       q    Type
REMARK                         _______ _______ _______ _____ _____    ______ ____
ROOT
ATOM      1  N   UNL     1      45.518   4.429  12.633  0.00  0.00    +0.000 N 
ATOM      2  C   UNL     1      46.549   5.285  13.038  0.00  0.00    +0.000 A 
ATOM      3  C   UNL     1      47.121   5.109  14.309  0.00  0.00    +0.000 A 
ATOM      4  N   UNL     1      48.130   5.867  14.815  0.00  0.00    +0.000 NA
ATOM      5  C   UNL     1      48.590   6.818  13.960  0.00  0.00    +0.000 A 
ATOM      6  C   UNL     1      48.065   6.982  12.686  0.00  0.00    +0.000 A 
ATOM      7  N   UNL     1      47.035   6.229  12.206  0.00  0.00    +0.000 NA
ATOM      8  H   UNL     1      45.944   3.551  12.340  0.00  0.00    +0.000 HD
ENDROOT
BRANCH   5   9
ATOM      9  C   UNL     1      49.681   7.711  14.433  0.00  0.00    +0.000 C 
ATOM     10  N   UNL     1      50.726   7.112  15.081  0.00  0.00    +0.000 N 
ATOM     11  O   UNL     1      49.648   8.928  14.261  0.00  0.00    +0.000 OA
ATOM     12  H   UNL     1      50.724   6.110  15.238  0.00  0.00    +0.000 HD
ATOM     13  H   UNL     1      51.481   7.680  15.440  0.00  0.00    +0.000 HD
ENDBRANCH   5   9
BRANCH   1  15
ATOM     14  C   UNL     1      43.139   4.633  11.998  0.00  0.00    +0.000 C 
ATOM     15  C   UNL     1      44.594   4.914  11.599  0.00  0.00    +0.000 C 
BRANCH  15  16
ATOM     16  C   UNL     1      44.925   4.175  10.301  0.00  0.00    +0.000 A 
ATOM     17  C   UNL     1      44.612   2.816  10.146  0.00  0.00    +0.000 A 
ATOM     18  C   UNL     1      44.882   2.153   8.944  0.00  0.00    +0.000 A 
ATOM     19  C   UNL     1      45.472   2.836   7.882  0.00  0.00    +0.000 A 
ATOM     20  C   UNL     1      45.811   4.178   8.028  0.00  0.00    +0.000 A 
ATOM     21  C   UNL     1      45.543   4.840   9.227  0.00  0.00    +0.000 A 
ENDBRANCH  15  16
ENDBRANCH   1  15
TORSDOF 3
ENDMDL
MODEL 5
REMARK VINA RESULT:    -7.252      3.368      7.295
REMARK INTER + INTRA:          -7.484
REMARK INTER:                  -7.061
REMARK INTRA:                  -0.423
REMARK UNBOUND:                 1.040
REMARK  Name = 
REMARK  4 active torsions:
REMARK  status: ('A' for Active; 'I' for Inactive)
REMARK    1  A    between atoms: C_1  and  C_2
REMARK    2  A    between atoms: C_2  and  N_3
REMARK    3  A    between atoms: C_2  and  C_13
REMARK    4  A    between atoms: C_7  and  C_8
REMARK                            x       y       z     vdW  Elec       q    Type
REMARK                         _______ _______ _______ _____ _____    ______ ____
ROOT
ATOM      1  N   UNL     1      47.711   5.220  15.642  0.00  0.00    +0.000 N 
ATOM      2  C   UNL     1      46.994   4.926  14.476  0.00  0.00    +0.000 A 
ATOM      3  C   UNL     1      46.665   5.971  13.597  0.00  0.00    +0.000 A 
ATOM      4  N   UNL     1      45.980   5.815  12.432  0.00  0.00    +0.000 NA
ATOM      5  C   UNL     1      45.658   4.527  12.149  0.00  0.00    +0.000 A 
ATOM      6  C   UNL     1      46.008   3.475  12.984  0.00  0.00    +0.000 A 
ATOM      7  N   UNL     1      46.672   3.655  14.161  0.00  0.00    +0.000 NA
ATOM      8  H   UNL     1      48.690   5.334  15.381  0.00  0.00    +0.000 HD
ENDROOT
BRANCH   5   9
ATOM      9  C   UNL     1      44.889   4.259  10.903  0.00  0.00    +0.000 C 
ATOM     10  N   UNL     1      44.975   5.201   9.915  0.00  0.00    +0.000 N 
ATOM     11  O   UNL     1      44.203   3.248  10.766  0.00  0.00    +0.000 OA
ATOM     12  H   UNL     1      45.524   6.041  10.056  0.00  0.00    +0.000 HD
ATOM     13  H   UNL     1      44.453   5.073   9.059  0.00  0.00    +0.000 HD
ENDBRANCH   5   9
BRANCH   1  15
ATOM     14  C   UNL     1      47.083   5.014  18.023  0.00  0.00    +0.000 C 
ATOM     15  C   UNL     1      47.593   4.287  16.771  0.00  0.00    +0.000 C 
BRANCH  15  16
ATOM     16  C   UNL     1      48.983   3.709  17.039  0.00  0.00    +0.000 A 
ATOM     17  C   UNL     1      50.019   4.521  17.527  0.00  0.00    +0.000 A 
ATOM     18  C   UNL     1      51.279   3.982  17.807  0.00  0.00    +0.000 A 
ATOM     19  C   UNL     1      51.524   2.625  17.601  0.00  0.00    +0.000 A 
ATOM     20  C   UNL     1      50.515   1.811  17.094  0.00  0.00    +0.000 A 
ATOM     21  C   UNL     1      49.258   2.348  16.814  0.00  0.00    +0.000 A 
ENDBRANCH  15  16
ENDBRANCH   1  15
TORSDOF 3
ENDMDL
MODEL 6
REMARK VINA RESULT:    -6.748      3.201      4.929
REMARK INTER + INTRA:          -6.891
REMARK INTER:                  -6.584
REMARK INTRA:                  -0.307
REMARK UNBOUND:                 1.040
REMARK  Name = 
REMARK  4 active torsions:
REMARK  status: ('A' for Active; 'I' for Inactive)
REMARK    1  A    between atoms: C_1  and  C_2
REMARK    2  A    between atoms: C_2  and  N_3
REMARK    3  A    between atoms: C_2  and  C_13
REMARK    4  A    between atoms: C_7  and  C_8
REMARK                            x       y       z     vdW  Elec       q    Type
REMARK                         _______ _______ _______ _____ _____    ______ ____
ROOT
ATOM      1  N   UNL     1      46.857   6.181  13.905  0.00  0.00    +0.000 N 
ATOM      2  C   UNL     1      47.400   5.331  14.875  0.00  0.00    +0.000 A 
ATOM      3  C   UNL     1      47.939   5.890  16.046  0.00  0.00    +0.000 A 
ATOM      4  N   UNL     1      48.487   5.173  17.064  0.00  0.00    +0.000 NA
ATOM      5  C   UNL     1      48.442   3.828  16.880  0.00  0.00    +0.000 A 
ATOM      6  C   UNL     1      47.878   3.255  15.749  0.00  0.00    +0.000 A 
ATOM      7  N   UNL     1      47.357   3.991  14.727  0.00  0.00    +0.000 NA
ATOM      8  H   UNL     1      45.929   6.458  14.222  0.00  0.00    +0.000 HD
ENDROOT
BRANCH   5   9
ATOM      9  C   UNL     1      49.037   2.961  17.932  0.00  0.00    +0.000 C 
ATOM     10  N   UNL     1      48.461   3.019  19.172  0.00  0.00    +0.000 N 
ATOM     11  O   UNL     1      50.001   2.232  17.708  0.00  0.00    +0.000 OA
ATOM     12  H   UNL     1      47.684   3.646  19.346  0.00  0.00    +0.000 HD
ATOM     13  H   UNL     1      48.844   2.464  19.925  0.00  0.00    +0.000 HD
ENDBRANCH   5   9
BRANCH   1  15
ATOM     14  C   UNL     1      47.348   6.735  11.547  0.00  0.00    +0.000 C 
ATOM     15  C   UNL     1      46.793   5.688  12.522  0.00  0.00    +0.000 C 
BRANCH  15  16
ATOM     16  C   UNL     1      45.325   5.409  12.199  0.00  0.00    +0.000 A 
ATOM     17  C   UNL     1      44.345   5.454  13.203  0.00  0.00    +0.000 A 
ATOM     18  C   UNL     1      42.997   5.235  12.898  0.00  0.00    +0.000 A 
ATOM     19  C   UNL     1      42.609   4.964  11.586  0.00  0.00    +0.000 A 
ATOM     20  C   UNL     1      43.572   4.892  10.583  0.00  0.00    +0.000 A 
ATOM     21  C   UNL     1      44.916   5.109  10.887  0.00  0.00    +0.000 A 
ENDBRANCH  15  16
ENDBRANCH   1  15
TORSDOF 3
ENDMDL
MODEL 7
REMARK VINA RESULT:    -6.671      3.978      5.684
REMARK INTER + INTRA:          -6.801
REMARK INTER:                  -6.561
REMARK INTRA:                  -0.240
REMARK UNBOUND:                 1.040
REMARK  Name = 
REMARK  4 active torsions:
REMARK  status: ('A' for Active; 'I' for Inactive)
REMARK    1  A    between atoms: C_1  and  C_2
REMARK    2  A    between atoms: C_2  and  N_3
REMARK    3  A    between atoms: C_2  and  C_13
REMARK    4  A    between atoms: C_7  and  C_8
REMARK                            x       y       z     vdW  Elec       q    Type
REMARK                         _______ _______ _______ _____ _____    ______ ____
ROOT
ATOM      1  N   UNL     1      48.700   7.258  14.065  0.00  0.00    +0.000 N 
ATOM      2  C   UNL     1      48.390   6.232  14.965  0.00  0.00    +0.000 A 
ATOM      3  C   UNL     1      48.904   6.293  16.272  0.00  0.00    +0.000 A 
ATOM      4  N   UNL     1      48.671   5.366  17.239  0.00  0.00    +0.000 NA
ATOM      5  C   UNL     1      47.847   4.359  16.852  0.00  0.00    +0.000 A 
ATOM      6  C   UNL     1      47.297   4.300  15.579  0.00  0.00    +0.000 A 
ATOM      7  N   UNL     1      47.563   5.226  14.614  0.00  0.00    +0.000 NA
ATOM      8  H   UNL     1      48.098   8.051  14.284  0.00  0.00    +0.000 HD
ENDROOT
BRANCH   5   9
ATOM      9  C   UNL     1      47.549   3.284  17.837  0.00  0.00    +0.000 C 
ATOM     10  N   UNL     1      48.411   3.166  18.893  0.00  0.00    +0.000 N 
ATOM     11  O   UNL     1      46.585   2.532  17.711  0.00  0.00    +0.000 OA
ATOM     12  H   UNL     1      49.217   3.777  18.967  0.00  0.00    +0.000 HD
ATOM     13  H   UNL     1      48.263   2.437  19.577  0.00  0.00    +0.000 HD
ENDBRANCH   5   9
BRANCH   1  15
ATOM     14  C   UNL     1      49.650   7.791  11.848  0.00  0.00    +0.000 C 
ATOM     15  C   UNL     1      48.631   6.952  12.630  0.00  0.00    +0.000 C 
BRANCH  15  16
ATOM     16  C   UNL     1      47.216   7.284  12.154  0.00  0.00    +0.000 A 
ATOM     17  C   UNL     1      46.443   6.330  11.473  0.00  0.00    +0.000 A 
ATOM     18  C   UNL     1      45.135   6.625  11.073  0.00  0.00    +0.000 A 
ATOM     19  C   UNL     1      44.582   7.876  11.343  0.00  0.00    +0.000 A 
ATOM     20  C   UNL     1      45.344   8.840  11.996  0.00  0.00    +0.000 A 
ATOM     21  C   UNL     1      46.649   8.548  12.395  0.00  0.00    +0.000 A 
ENDBRANCH  15  16
ENDBRANCH   1  15
TORSDOF 3
ENDMDL
MODEL 8
REMARK VINA RESULT:    -6.608      3.339      6.585
REMARK INTER + INTRA:          -6.727
REMARK INTER:                  -6.563
REMARK INTRA:                  -0.163
REMARK UNBOUND:                 1.040
REMARK  Name = 
REMARK  4 active torsions:
REMARK  status: ('A' for Active; 'I' for Inactive)
REMARK    1  A    between atoms: C_1  and  C_2
REMARK    2  A    between atoms: C_2  and  N_3
REMARK    3  A    between atoms: C_2  and  C_13
REMARK    4  A    between atoms: C_7  and  C_8
REMARK                            x       y       z     vdW  Elec       q    Type
REMARK                         _______ _______ _______ _____ _____    ______ ____
ROOT
ATOM      1  N   UNL     1      47.388   6.932  13.377  0.00  0.00    +0.000 N 
ATOM      2  C   UNL     1      46.581   5.974  12.752  0.00  0.00    +0.000 A 
ATOM      3  C   UNL     1      45.909   5.028  13.545  0.00  0.00    +0.000 A 
ATOM      4  N   UNL     1      45.093   4.054  13.061  0.00  0.00    +0.000 NA
ATOM      5  C   UNL     1      44.937   4.082  11.713  0.00  0.00    +0.000 A 
ATOM      6  C   UNL     1      45.561   5.032  10.916  0.00  0.00    +0.000 A 
ATOM      7  N   UNL     1      46.396   5.986  11.416  0.00  0.00    +0.000 NA
ATOM      8  H   UNL     1      46.774   7.655  13.750  0.00  0.00    +0.000 HD
ENDROOT
BRANCH   5   9
ATOM      9  C   UNL     1      44.077   3.040  11.089  0.00  0.00    +0.000 C 
ATOM     10  N   UNL     1      44.663   2.253  10.136  0.00  0.00    +0.000 N 
ATOM     11  O   UNL     1      42.898   2.895  11.403  0.00  0.00    +0.000 OA
ATOM     12  H   UNL     1      45.629   2.405   9.869  0.00  0.00    +0.000 HD
ATOM     13  H   UNL     1      44.113   1.546   9.668  0.00  0.00    +0.000 HD
ENDBRANCH   5   9
BRANCH   1  15
ATOM     14  C   UNL     1      49.736   7.702  13.426  0.00  0.00    +0.000 C 
ATOM     15  C   UNL     1      48.463   7.543  12.582  0.00  0.00    +0.000 C 
BRANCH  15  16
ATOM     16  C   UNL     1      47.974   8.916  12.122  0.00  0.00    +0.000 A 
ATOM     17  C   UNL     1      46.665   9.343  12.394  0.00  0.00    +0.000 A 
ATOM     18  C   UNL     1      46.232  10.616  12.003  0.00  0.00    +0.000 A 
ATOM     19  C   UNL     1      47.100  11.478  11.334  0.00  0.00    +0.000 A 
ATOM     20  C   UNL     1      48.393  11.060  11.035  0.00  0.00    +0.000 A 
ATOM     21  C   UNL     1      48.825   9.792  11.423  0.00  0.00    +0.000 A 
ENDBRANCH  15  16
ENDBRANCH   1  15
TORSDOF 3
ENDMDL
MODEL 9
REMARK VINA RESULT:    -6.537      3.528      7.336
REMARK INTER + INTRA:          -6.643
REMARK INTER:                  -6.354
REMARK INTRA:                  -0.289
REMARK UNBOUND:                 1.040
REMARK  Name = 
REMARK  4 active torsions:
REMARK  status: ('A' for Active; 'I' for Inactive)
REMARK    1  A    between atoms: C_1  and  C_2
REMARK    2  A    between atoms: C_2  and  N_3
REMARK    3  A    between atoms: C_2  and  C_13
REMARK    4  A    between atoms: C_7  and  C_8
REMARK                            x       y       z     vdW  Elec       q    Type
REMARK                         _______ _______ _______ _____ _____    ______ ____
ROOT
ATOM      1  N   UNL     1      46.978   6.892  13.700  0.00  0.00    +0.000 N 
ATOM      2  C   UNL     1      46.249   5.918  13.006  0.00  0.00    +0.000 A 
ATOM      3  C   UNL     1      45.804   4.779  13.698  0.00  0.00    +0.000 A 
ATOM      4  N   UNL     1      45.083   3.769  13.142  0.00  0.00    +0.000 NA
ATOM      5  C   UNL     1      44.780   3.962  11.832  0.00  0.00    +0.000 A 
ATOM      6  C   UNL     1      45.176   5.099  11.141  0.00  0.00    +0.000 A 
ATOM      7  N   UNL     1      45.921   6.089  11.709  0.00  0.00    +0.000 NA
ATOM      8  H   UNL     1      46.314   7.452  14.232  0.00  0.00    +0.000 HD
ENDROOT
BRANCH   5   9
ATOM      9  C   UNL     1      44.010   2.900  11.131  0.00  0.00    +0.000 C 
ATOM     10  N   UNL     1      44.573   2.383   9.996  0.00  0.00    +0.000 N 
ATOM     11  O   UNL     1      42.920   2.507  11.540  0.00  0.00    +0.000 OA
ATOM     12  H   UNL     1      45.461   2.739   9.657  0.00  0.00    +0.000 HD
ATOM     13  H   UNL     1      44.078   1.675   9.473  0.00  0.00    +0.000 HD
ENDBRANCH   5   9
BRANCH   1  15
ATOM     14  C   UNL     1      49.113   6.997  12.460  0.00  0.00    +0.000 C 
ATOM     15  C   UNL     1      47.867   7.765  12.920  0.00  0.00    +0.000 C 
BRANCH  15  16
ATOM     16  C   UNL     1      48.280   8.927  13.823  0.00  0.00    +0.000 A 
ATOM     17  C   UNL     1      48.315   8.779  15.218  0.00  0.00    +0.000 A 
ATOM     18  C   UNL     1      48.730   9.833  16.040  0.00  0.00    +0.000 A 
ATOM     19  C   UNL     1      49.112  11.051  15.480  0.00  0.00    +0.000 A 
ATOM     20  C   UNL     1      49.060  11.223  14.100  0.00  0.00    +0.000 A 
ATOM     21  C   UNL     1      48.645  10.173  13.280  0.00  0.00    +0.000 A 
ENDBRANCH  15  16
ENDBRANCH   1  15
TORSDOF 3
ENDMDL
