MODEL 1
REMARK VINA RESULT:    -9.566      0.000      0.000
REMARK INTER + INTRA:         -12.922
REMARK INTER:                 -12.362
REMARK INTRA:                  -0.561
REMARK UNBOUND:                -0.561
REMARK  Name = 
REMARK  5 active torsions:
REMARK  status: ('A' for Active; 'I' for Inactive)
REMARK    1  A    between atoms: C_2  and  C_4
REMARK    2  A    between atoms: C_7  and  C_8
REMARK    3  A    between atoms: C_8  and  C_9
REMARK    4  A    between atoms: C_9  and  C_10
REMARK    5  A    between atoms: C_18  and  C_19
REMARK                            x       y       z     vdW  Elec       q    Type
REMARK                         _______ _______ _______ _____ _____    ______ ____
ROOT
ATOM      1  C   UNL     1      45.204   5.655  12.140  0.00  0.00    +0.000 A 
ATOM      2  C   UNL     1      45.496   6.893  11.603  0.00  0.00    +0.000 A 
ATOM      3  C   UNL     1      46.565   7.557  12.143  0.00  0.00    +0.000 A 
ATOM      4  N   UNL     1      47.297   7.074  13.158  0.00  0.00    +0.000 NA
ATOM      5  C   UNL     1      46.963   5.873  13.646  0.00  0.00    +0.000 A 
ATOM      6  N   UNL     1      47.623   5.389  14.753  0.00  0.00    +0.000 N 
ATOM      7  C   UNL     1      47.338   4.058  15.256  0.00  0.00    +0.000 C 
ATOM      8  C   UNL     1      47.064   4.156  16.758  0.00  0.00    +0.000 C 
ATOM      9  C   UNL     1      48.181   4.896  17.511  0.00  0.00    +0.000 C 
ATOM     10  C   UNL     1      48.454   6.259  16.851  0.00  0.00    +0.000 C 
ATOM     11  C   UNL     1      48.714   6.136  15.347  0.00  0.00    +0.000 C 
ATOM     12  N   UNL     1      45.951   5.151  13.144  0.00  0.00    +0.000 NA
ENDROOT
BRANCH   9  13
ATOM     13  C   UNL     1      49.450   4.055  17.648  0.00  0.00    +0.000 C 
ATOM     14  F   UNL     1      49.307   2.813  17.139  0.00  0.00    +0.000 F 
ATOM     15  F   UNL     1      50.521   4.618  17.048  0.00  0.00    +0.000 F 
ATOM     16  F   UNL     1      49.767   3.910  18.957  0.00  0.00    +0.000 F 
ENDBRANCH   9  13
BRANCH   1  17
ATOM     17  C   UNL     1      43.961   4.870  11.716  0.00  0.00    +0.000 C 
ATOM     18  C   UNL     1      43.419   3.765  12.618  0.00  0.00    +0.000 C 
ATOM     19  C   UNL     1      42.744   5.098  12.613  0.00  0.00    +0.000 C 
BRANCH  17  20
ATOM     20  C   UNL     1      43.719   4.727  10.223  0.00  0.00    +0.000 C 
BRANCH  20  24
ATOM     21  C   UNL     1      46.480   2.468   7.767  0.00  0.00    +0.000 A 
ATOM     22  C   UNL     1      45.677   1.797   8.693  0.00  0.00    +0.000 A 
ATOM     23  C   UNL     1      44.818   2.516   9.532  0.00  0.00    +0.000 A 
ATOM     24  C   UNL     1      44.754   3.915   9.465  0.00  0.00    +0.000 A 
ATOM     25  C   UNL     1      45.602   4.580   8.563  0.00  0.00    +0.000 A 
ATOM     26  C   UNL     1      46.466   3.865   7.727  0.00  0.00    +0.000 A 
BRANCH  21  28
ATOM     27  N   UNL     1      48.378   2.440   6.242  0.00  0.00    +0.000 N 
ATOM     28  C   UNL     1      47.346   1.738   6.803  0.00  0.00    +0.000 C 
ATOM     29  O   UNL     1      47.186   0.549   6.560  0.00  0.00    +0.000 OA
ATOM     30  H   UNL     1      49.030   1.909   5.679  0.00  0.00    +0.000 HD
ATOM     31  H   UNL     1      48.691   3.326   6.613  0.00  0.00    +0.000 HD
ENDBRANCH  21  28
ENDBRANCH  20  24
ENDBRANCH  17  20
ENDBRANCH   1  17
TORSDOF 5
ENDMDL
MODEL 2
REMARK VINA RESULT:    -8.638      2.779      4.055
REMARK INTER + INTRA:         -11.724
REMARK INTER:                 -11.322
REMARK INTRA:                  -0.402
REMARK UNBOUND:                -0.561
REMARK  Name = 
REMARK  5 active torsions:
REMARK  status: ('A' for Active; 'I' for Inactive)
REMARK    1  A    between atoms: C_2  and  C_4
REMARK    2  A    between atoms: C_7  and  C_8
REMARK    3  A    between atoms: C_8  and  C_9
REMARK    4  A    between atoms: C_9  and  C_10
REMARK    5  A    between atoms: C_18  and  C_19
REMARK                            x       y       z     vdW  Elec       q    Type
REMARK                         _______ _______ _______ _____ _____    ______ ____
ROOT
ATOM      1  C   UNL     1      45.340   4.697  12.517  0.00  0.00    +0.000 A 
ATOM      2  C   UNL     1      45.932   3.558  13.023  0.00  0.00    +0.000 A 
ATOM      3  C   UNL     1      47.112   3.729  13.697  0.00  0.00    +0.000 A 
ATOM      4  N   UNL     1      47.706   4.923  13.854  0.00  0.00    +0.000 NA
ATOM      5  C   UNL     1      47.092   5.993  13.333  0.00  0.00    +0.000 A 
ATOM      6  N   UNL     1      47.717   7.218  13.383  0.00  0.00    +0.000 N 
ATOM      7  C   UNL     1      47.042   8.409  12.900  0.00  0.00    +0.000 C 
ATOM      8  C   UNL     1      47.979   9.140  11.937  0.00  0.00    +0.000 C 
ATOM      9  C   UNL     1      49.366   9.397  12.549  0.00  0.00    +0.000 C 
ATOM     10  C   UNL     1      49.956   8.086  13.097  0.00  0.00    +0.000 C 
ATOM     11  C   UNL     1      48.995   7.367  14.050  0.00  0.00    +0.000 C 
ATOM     12  N   UNL     1      45.917   5.904  12.692  0.00  0.00    +0.000 NA
ENDROOT
BRANCH   9  13
ATOM     13  C   UNL     1      49.343  10.505  13.602  0.00  0.00    +0.000 C 
ATOM     14  F   UNL     1      48.351  11.398  13.394  0.00  0.00    +0.000 F 
ATOM     15  F   UNL     1      49.207  10.033  14.860  0.00  0.00    +0.000 F 
ATOM     16  F   UNL     1      50.508  11.196  13.567  0.00  0.00    +0.000 F 
ENDBRANCH   9  13
BRANCH   1  17
ATOM     17  C   UNL     1      44.091   4.628  11.636  0.00  0.00    +0.000 C 
ATOM     18  C   UNL     1      43.045   3.545  11.888  0.00  0.00    +0.000 C 
ATOM     19  C   UNL     1      42.789   4.934  12.377  0.00  0.00    +0.000 C 
BRANCH  17  20
ATOM     20  C   UNL     1      44.229   5.140  10.213  0.00  0.00    +0.000 C 
BRANCH  20  24
ATOM     21  C   UNL     1      46.495   2.402   7.737  0.00  0.00    +0.000 A 
ATOM     22  C   UNL     1      46.645   3.780   7.553  0.00  0.00    +0.000 A 
ATOM     23  C   UNL     1      45.881   4.678   8.307  0.00  0.00    +0.000 A 
ATOM     24  C   UNL     1      44.951   4.216   9.250  0.00  0.00    +0.000 A 
ATOM     25  C   UNL     1      44.776   2.828   9.389  0.00  0.00    +0.000 A 
ATOM     26  C   UNL     1      45.534   1.927   8.633  0.00  0.00    +0.000 A 
BRANCH  21  28
ATOM     27  N   UNL     1      48.402   1.914   6.306  0.00  0.00    +0.000 N 
ATOM     28  C   UNL     1      47.343   1.417   7.015  0.00  0.00    +0.000 C 
ATOM     29  O   UNL     1      47.143   0.212   7.090  0.00  0.00    +0.000 OA
ATOM     30  H   UNL     1      49.041   1.233   5.913  0.00  0.00    +0.000 HD
ATOM     31  H   UNL     1      48.744   2.856   6.436  0.00  0.00    +0.000 HD
ENDBRANCH  21  28
ENDBRANCH  20  24
ENDBRANCH  17  20
ENDBRANCH   1  17
TORSDOF 5
ENDMDL
MODEL 3
REMARK VINA RESULT:    -8.570      2.033      2.789
REMARK INTER + INTRA:         -11.636
REMARK INTER:                 -11.178
REMARK INTRA:                  -0.458
REMARK UNBOUND:                -0.561
REMARK  Name = 
REMARK  5 active torsions:
REMARK  status: ('A' for Active; 'I' for Inactive)
REMARK    1  A    between atoms: C_2  and  C_4
REMARK    2  A    between atoms: C_7  and  C_8
REMARK    3  A    between atoms: C_8  and  C_9
REMARK    4  A    between atoms: C_9  and  C_10
REMARK    5  A    between atoms: C_18  and  C_19
REMARK                            x       y       z     vdW  Elec       q    Type
REMARK                         _______ _______ _______ _____ _____    ______ ____
ROOT
ATOM      1  C   UNL     1      45.033   6.294  11.867  0.00  0.00    +0.000 A 
ATOM      2  C   UNL     1      44.322   7.387  11.412  0.00  0.00    +0.000 A 
ATOM      3  C   UNL     1      44.860   8.619  11.675  0.00  0.00    +0.000 A 
ATOM      4  N   UNL     1      46.002   8.795  12.358  0.00  0.00    +0.000 NA
ATOM      5  C   UNL     1      46.644   7.700  12.784  0.00  0.00    +0.000 A 
ATOM      6  N   UNL     1      47.762   7.841  13.575  0.00  0.00    +0.000 N 
ATOM      7  C   UNL     1      48.525   6.676  13.984  0.00  0.00    +0.000 C 
ATOM      8  C   UNL     1      48.727   6.737  15.499  0.00  0.00    +0.000 C 
ATOM      9  C   UNL     1      49.319   8.079  15.958  0.00  0.00    +0.000 C 
ATOM     10  C   UNL     1      48.479   9.246  15.408  0.00  0.00    +0.000 C 
ATOM     11  C   UNL     1      48.281   9.156  13.891  0.00  0.00    +0.000 C 
ATOM     12  N   UNL     1      46.195   6.462  12.532  0.00  0.00    +0.000 NA
ENDROOT
BRANCH   9  13
ATOM     13  C   UNL     1      50.800   8.216  15.606  0.00  0.00    +0.000 C 
ATOM     14  F   UNL     1      51.002   8.934  14.481  0.00  0.00    +0.000 F 
ATOM     15  F   UNL     1      51.524   8.791  16.590  0.00  0.00    +0.000 F 
ATOM     16  F   UNL     1      51.336   6.990  15.391  0.00  0.00    +0.000 F 
ENDBRANCH   9  13
BRANCH   1  17
ATOM     17  C   UNL     1      44.479   4.873  11.752  0.00  0.00    +0.000 C 
ATOM     18  C   UNL     1      45.150   3.735  12.515  0.00  0.00    +0.000 C 
ATOM     19  C   UNL     1      43.889   4.328  13.054  0.00  0.00    +0.000 C 
BRANCH  17  20
ATOM     20  C   UNL     1      43.773   4.517  10.455  0.00  0.00    +0.000 C 
BRANCH  20  24
ATOM     21  C   UNL     1      46.459   2.520   7.706  0.00  0.00    +0.000 A 
ATOM     22  C   UNL     1      46.364   3.914   7.682  0.00  0.00    +0.000 A 
ATOM     23  C   UNL     1      45.462   4.573   8.527  0.00  0.00    +0.000 A 
ATOM     24  C   UNL     1      44.636   3.850   9.400  0.00  0.00    +0.000 A 
ATOM     25  C   UNL     1      44.709   2.446   9.378  0.00  0.00    +0.000 A 
ATOM     26  C   UNL     1      45.605   1.784   8.532  0.00  0.00    +0.000 A 
BRANCH  21  28
ATOM     27  N   UNL     1      48.563   2.489   6.482  0.00  0.00    +0.000 N 
ATOM     28  C   UNL     1      47.459   1.788   6.884  0.00  0.00    +0.000 C 
ATOM     29  O   UNL     1      47.337   0.598   6.622  0.00  0.00    +0.000 OA
ATOM     30  H   UNL     1      49.292   1.957   6.023  0.00  0.00    +0.000 HD
ATOM     31  H   UNL     1      48.818   3.376   6.893  0.00  0.00    +0.000 HD
ENDBRANCH  21  28
ENDBRANCH  20  24
ENDBRANCH  17  20
ENDBRANCH   1  17
TORSDOF 5
ENDMDL
MODEL 4
REMARK VINA RESULT:    -6.773      2.209      3.410
REMARK INTER + INTRA:          -9.313
REMARK INTER:                 -10.242
REMARK INTRA:                   0.928
REMARK UNBOUND:                -0.561
REMARK  Name = 
REMARK  5 active torsions:
REMARK  status: ('A' for Active; 'I' for Inactive)
REMARK    1  A    between atoms: C_2  and  C_4
REMARK    2  A    between atoms: C_7  and  C_8
REMARK    3  A    between atoms: C_8  and  C_9
REMARK    4  A    between atoms: C_9  and  C_10
REMARK    5  A    between atoms: C_18  and  C_19
REMARK                            x       y       z     vdW  Elec       q    Type
REMARK                         _______ _______ _______ _____ _____    ______ ____
ROOT
ATOM      1  C   UNL     1      46.073   5.117  12.829  0.00  0.00    +0.000 A 
ATOM      2  C   UNL     1      46.193   3.790  13.188  0.00  0.00    +0.000 A 
ATOM      3  C   UNL     1      47.037   3.512  14.230  0.00  0.00    +0.000 A 
ATOM      4  N   UNL     1      47.747   4.450  14.875  0.00  0.00    +0.000 NA
ATOM      5  C   UNL     1      47.600   5.720  14.478  0.00  0.00    +0.000 A 
ATOM      6  N   UNL     1      48.386   6.698  15.044  0.00  0.00    +0.000 N 
ATOM      7  C   UNL     1      48.193   8.093  14.693  0.00  0.00    +0.000 C 
ATOM      8  C   UNL     1      49.550   8.689  14.311  0.00  0.00    +0.000 C 
ATOM      9  C   UNL     1      50.620   8.445  15.388  0.00  0.00    +0.000 C 
ATOM     10  C   UNL     1      50.689   6.949  15.739  0.00  0.00    +0.000 C 
ATOM     11  C   UNL     1      49.317   6.373  16.106  0.00  0.00    +0.000 C 
ATOM     12  N   UNL     1      46.765   6.070  13.489  0.00  0.00    +0.000 NA
ENDROOT
BRANCH   9  13
ATOM     13  C   UNL     1      50.416   9.321  16.623  0.00  0.00    +0.000 C 
ATOM     14  F   UNL     1      49.515  10.305  16.419  0.00  0.00    +0.000 F 
ATOM     15  F   UNL     1      50.013   8.620  17.705  0.00  0.00    +0.000 F 
ATOM     16  F   UNL     1      51.584   9.921  16.959  0.00  0.00    +0.000 F 
ENDBRANCH   9  13
BRANCH   1  17
ATOM     17  C   UNL     1      45.266   5.546  11.603  0.00  0.00    +0.000 C 
ATOM     18  C   UNL     1      44.734   6.974  11.508  0.00  0.00    +0.000 C 
ATOM     19  C   UNL     1      45.959   6.600  10.738  0.00  0.00    +0.000 C 
BRANCH  17  20
ATOM     20  C   UNL     1      44.473   4.463  10.893  0.00  0.00    +0.000 C 
BRANCH  20  24
ATOM     21  C   UNL     1      46.558   2.781   7.489  0.00  0.00    +0.000 A 
ATOM     22  C   UNL     1      46.396   4.167   7.580  0.00  0.00    +0.000 A 
ATOM     23  C   UNL     1      45.678   4.724   8.645  0.00  0.00    +0.000 A 
ATOM     24  C   UNL     1      45.105   3.906   9.631  0.00  0.00    +0.000 A 
ATOM     25  C   UNL     1      45.235   2.513   9.500  0.00  0.00    +0.000 A 
ATOM     26  C   UNL     1      45.947   1.953   8.434  0.00  0.00    +0.000 A 
BRANCH  21  28
ATOM     27  N   UNL     1      47.497   2.848   5.245  0.00  0.00    +0.000 N 
ATOM     28  C   UNL     1      47.379   2.156   6.419  0.00  0.00    +0.000 C 
ATOM     29  O   UNL     1      47.971   1.098   6.591  0.00  0.00    +0.000 OA
ATOM     30  H   UNL     1      48.149   2.474   4.565  0.00  0.00    +0.000 HD
ATOM     31  H   UNL     1      47.246   3.823   5.166  0.00  0.00    +0.000 HD
ENDBRANCH  21  28
ENDBRANCH  20  24
ENDBRANCH  17  20
ENDBRANCH   1  17
TORSDOF 5
ENDMDL
