MODEL 1
REMARK VINA RESULT:    -8.507      0.000      0.000
REMARK INTER + INTRA:         -10.975
REMARK INTER:                 -10.496
REMARK INTRA:                  -0.478
REMARK UNBOUND:                -0.478
REMARK  Name = 
REMARK  4 active torsions:
REMARK  status: ('A' for Active; 'I' for Inactive)
REMARK    1  A    between atoms: C_2  and  C_4
REMARK    2  A    between atoms: C_7  and  N_8
REMARK    3  A    between atoms: N_8  and  C_9
REMARK    4  A    between atoms: C_9  and  C_10
REMARK                            x       y       z     vdW  Elec       q    Type
REMARK                         _______ _______ _______ _____ _____    ______ ____
ROOT
ATOM      1  N   UNL     1      43.849   4.854   9.834  0.00  0.00    +0.000 N 
ATOM      2  H   UNL     1      42.912   4.694   9.479  0.00  0.00    +0.000 HD
ENDROOT
BRANCH   1   6
ATOM      3  C   UNL     1      46.441   2.364   7.788  0.00  0.00    +0.000 A 
ATOM      4  C   UNL     1      46.465   3.733   7.575  0.00  0.00    +0.000 A 
ATOM      5  N   UNL     1      45.653   4.595   8.250  0.00  0.00    +0.000 NA
ATOM      6  C   UNL     1      44.791   4.052   9.140  0.00  0.00    +0.000 A 
ATOM      7  C   UNL     1      44.774   2.659   9.322  0.00  0.00    +0.000 A 
ATOM      8  N   UNL     1      45.594   1.785   8.682  0.00  0.00    +0.000 NA
BRANCH   3  10
ATOM      9  N   UNL     1      48.439   2.091   6.444  0.00  0.00    +0.000 N 
ATOM     10  C   UNL     1      47.359   1.474   7.024  0.00  0.00    +0.000 C 
ATOM     11  O   UNL     1      47.166   0.271   6.914  0.00  0.00    +0.000 OA
ATOM     12  H   UNL     1      49.107   1.542   5.924  0.00  0.00    +0.000 HD
ATOM     13  H   UNL     1      48.579   3.087   6.566  0.00  0.00    +0.000 HD
ENDBRANCH   3  10
ENDBRANCH   1   6
BRANCH   1  14
ATOM     14  C   UNL     1      43.913   4.928  11.316  0.00  0.00    +0.000 C 
ATOM     15  C   UNL     1      43.051   3.981  12.136  0.00  0.00    +0.000 C 
ATOM     16  C   UNL     1      42.671   5.423  12.059  0.00  0.00    +0.000 C 
BRANCH  14  17
ATOM     17  C   UNL     1      45.246   5.414  11.878  0.00  0.00    +0.000 A 
ATOM     18  C   UNL     1      45.893   4.724  12.923  0.00  0.00    +0.000 A 
ATOM     19  C   UNL     1      47.148   5.123  13.392  0.00  0.00    +0.000 A 
ATOM     20  C   UNL     1      47.769   6.226  12.825  0.00  0.00    +0.000 A 
ATOM     21  F   UNL     1      48.980   6.599  13.258  0.00  0.00    +0.000 F 
ATOM     22  C   UNL     1      47.151   6.946  11.813  0.00  0.00    +0.000 A 
ATOM     23  C   UNL     1      45.896   6.544  11.351  0.00  0.00    +0.000 A 
ENDBRANCH  14  17
ENDBRANCH   1  14
TORSDOF 4
ENDMDL
MODEL 2
REMARK VINA RESULT:    -7.554      1.384      2.044
REMARK INTER + INTRA:          -9.799
REMARK INTER:                  -9.363
REMARK INTRA:                  -0.435
REMARK UNBOUND:                -0.478
REMARK  Name = 
REMARK  4 active torsions:
REMARK  status: ('A' for Active; 'I' for Inactive)
REMARK    1  A    between atoms: C_2  and  C_4
REMARK    2  A    between atoms: C_7  and  N_8
REMARK    3  A    between atoms: N_8  and  C_9
REMARK    4  A    between atoms: C_9  and  C_10
REMARK                            x       y       z     vdW  Elec       q    Type
REMARK                         _______ _______ _______ _____ _____    ______ ____
ROOT
ATOM      1  N   UNL     1      43.866   4.118  10.298  0.00  0.00    +0.000 N 
ATOM      2  H   UNL     1      42.980   3.623  10.300  0.00  0.00    +0.000 HD
ENDROOT
BRANCH   1   6
ATOM      3  C   UNL     1      46.556   2.697   7.496  0.00  0.00    +0.000 A 
ATOM      4  C   UNL     1      45.912   1.824   8.359  0.00  0.00    +0.000 A 
ATOM      5  N   UNL     1      44.994   2.243   9.276  0.00  0.00    +0.000 NA
ATOM      6  C   UNL     1      44.743   3.572   9.326  0.00  0.00    +0.000 A 
ATOM      7  C   UNL     1      45.424   4.436   8.453  0.00  0.00    +0.000 A 
ATOM      8  N   UNL     1      46.321   4.037   7.512  0.00  0.00    +0.000 NA
BRANCH   3  10
ATOM      9  N   UNL     1      47.857   3.024   5.478  0.00  0.00    +0.000 N 
ATOM     10  C   UNL     1      47.544   2.177   6.511  0.00  0.00    +0.000 C 
ATOM     11  O   UNL     1      48.047   1.066   6.610  0.00  0.00    +0.000 OA
ATOM     12  H   UNL     1      48.531   2.738   4.784  0.00  0.00    +0.000 HD
ATOM     13  H   UNL     1      47.434   3.944   5.432  0.00  0.00    +0.000 HD
ENDBRANCH   3  10
ENDBRANCH   1   6
BRANCH   1  14
ATOM     14  C   UNL     1      44.383   4.407  11.659  0.00  0.00    +0.000 C 
ATOM     15  C   UNL     1      44.787   3.245  12.553  0.00  0.00    +0.000 C 
ATOM     16  C   UNL     1      43.525   3.984  12.852  0.00  0.00    +0.000 C 
BRANCH  14  17
ATOM     17  C   UNL     1      45.087   5.753  11.807  0.00  0.00    +0.000 A 
ATOM     18  C   UNL     1      44.411   6.963  11.553  0.00  0.00    +0.000 A 
ATOM     19  C   UNL     1      45.030   8.200  11.757  0.00  0.00    +0.000 A 
ATOM     20  C   UNL     1      46.339   8.241  12.212  0.00  0.00    +0.000 A 
ATOM     21  F   UNL     1      46.929   9.424  12.429  0.00  0.00    +0.000 F 
ATOM     22  C   UNL     1      47.046   7.070  12.449  0.00  0.00    +0.000 A 
ATOM     23  C   UNL     1      46.423   5.838  12.239  0.00  0.00    +0.000 A 
ENDBRANCH  14  17
ENDBRANCH   1  14
TORSDOF 4
ENDMDL
MODEL 3
REMARK VINA RESULT:    -6.894      4.102      6.291
REMARK INTER + INTRA:          -8.985
REMARK INTER:                  -8.842
REMARK INTRA:                  -0.143
REMARK UNBOUND:                -0.478
REMARK  Name = 
REMARK  4 active torsions:
REMARK  status: ('A' for Active; 'I' for Inactive)
REMARK    1  A    between atoms: C_2  and  C_4
REMARK    2  A    between atoms: C_7  and  N_8
REMARK    3  A    between atoms: N_8  and  C_9
REMARK    4  A    between atoms: C_9  and  C_10
REMARK                            x       y       z     vdW  Elec       q    Type
REMARK                         _______ _______ _______ _____ _____    ______ ____
ROOT
ATOM      1  N   UNL     1      45.587   2.941  12.530  0.00  0.00    +0.000 N 
ATOM      2  H   UNL     1      45.271   2.258  13.210  0.00  0.00    +0.000 HD
ENDROOT
BRANCH   1   6
ATOM      3  C   UNL     1      47.856   5.826  14.437  0.00  0.00    +0.000 A 
ATOM      4  C   UNL     1      47.191   6.120  13.257  0.00  0.00    +0.000 A 
ATOM      5  N   UNL     1      46.405   5.211  12.612  0.00  0.00    +0.000 NA
ATOM      6  C   UNL     1      46.313   3.981  13.166  0.00  0.00    +0.000 A 
ATOM      7  C   UNL     1      47.013   3.704  14.352  0.00  0.00    +0.000 A 
ATOM      8  N   UNL     1      47.778   4.603  15.027  0.00  0.00    +0.000 NA
BRANCH   3  10
ATOM      9  N   UNL     1      48.074   8.064  15.342  0.00  0.00    +0.000 N 
ATOM     10  C   UNL     1      48.694   6.864  15.099  0.00  0.00    +0.000 C 
ATOM     11  O   UNL     1      49.861   6.667  15.407  0.00  0.00    +0.000 OA
ATOM     12  H   UNL     1      48.582   8.805  15.800  0.00  0.00    +0.000 HD
ATOM     13  H   UNL     1      47.101   8.191  15.088  0.00  0.00    +0.000 HD
ENDBRANCH   3  10
ENDBRANCH   1   6
BRANCH   1  14
ATOM     14  C   UNL     1      44.555   3.290  11.522  0.00  0.00    +0.000 C 
ATOM     15  C   UNL     1      43.387   4.170  11.940  0.00  0.00    +0.000 C 
ATOM     16  C   UNL     1      43.151   2.714  11.709  0.00  0.00    +0.000 C 
BRANCH  14  17
ATOM     17  C   UNL     1      45.054   3.334  10.080  0.00  0.00    +0.000 A 
ATOM     18  C   UNL     1      45.291   4.559   9.425  0.00  0.00    +0.000 A 
ATOM     19  C   UNL     1      45.817   4.604   8.131  0.00  0.00    +0.000 A 
ATOM     20  C   UNL     1      46.104   3.419   7.470  0.00  0.00    +0.000 A 
ATOM     21  F   UNL     1      46.627   3.458   6.238  0.00  0.00    +0.000 F 
ATOM     22  C   UNL     1      45.860   2.193   8.072  0.00  0.00    +0.000 A 
ATOM     23  C   UNL     1      45.331   2.155   9.364  0.00  0.00    +0.000 A 
ENDBRANCH  14  17
ENDBRANCH   1  14
TORSDOF 4
ENDMDL
MODEL 4
REMARK VINA RESULT:    -6.763      4.094      6.227
REMARK INTER + INTRA:          -8.823
REMARK INTER:                  -8.709
REMARK INTRA:                  -0.114
REMARK UNBOUND:                -0.478
REMARK  Name = 
REMARK  4 active torsions:
REMARK  status: ('A' for Active; 'I' for Inactive)
REMARK    1  A    between atoms: C_2  and  C_4
REMARK    2  A    between atoms: C_7  and  N_8
REMARK    3  A    between atoms: N_8  and  C_9
REMARK    4  A    between atoms: C_9  and  C_10
REMARK                            x       y       z     vdW  Elec       q    Type
REMARK                         _______ _______ _______ _____ _____    ______ ____
ROOT
ATOM      1  N   UNL     1      45.476   3.037  12.495  0.00  0.00    +0.000 N 
ATOM      2  H   UNL     1      45.082   2.409  13.187  0.00  0.00    +0.000 HD
ENDROOT
BRANCH   1   6
ATOM      3  C   UNL     1      47.830   5.875  14.371  0.00  0.00    +0.000 A 
ATOM      4  C   UNL     1      47.137   6.189  13.212  0.00  0.00    +0.000 A 
ATOM      5  N   UNL     1      46.324   5.297  12.579  0.00  0.00    +0.000 NA
ATOM      6  C   UNL     1      46.231   4.062  13.122  0.00  0.00    +0.000 A 
ATOM      7  C   UNL     1      46.959   3.764  14.286  0.00  0.00    +0.000 A 
ATOM      8  N   UNL     1      47.752   4.647  14.950  0.00  0.00    +0.000 NA
BRANCH   3  10
ATOM      9  N   UNL     1      48.114   8.118  15.244  0.00  0.00    +0.000 N 
ATOM     10  C   UNL     1      48.697   6.896  15.021  0.00  0.00    +0.000 C 
ATOM     11  O   UNL     1      49.857   6.667  15.335  0.00  0.00    +0.000 OA
ATOM     12  H   UNL     1      48.643   8.849  15.694  0.00  0.00    +0.000 HD
ATOM     13  H   UNL     1      47.146   8.271  14.986  0.00  0.00    +0.000 HD
ENDBRANCH   3  10
ENDBRANCH   1   6
BRANCH   1  14
ATOM     14  C   UNL     1      44.524   3.398  11.415  0.00  0.00    +0.000 C 
ATOM     15  C   UNL     1      43.379   4.347  11.732  0.00  0.00    +0.000 C 
ATOM     16  C   UNL     1      43.084   2.897  11.538  0.00  0.00    +0.000 C 
BRANCH  14  17
ATOM     17  C   UNL     1      45.107   3.364  10.006  0.00  0.00    +0.000 A 
ATOM     18  C   UNL     1      45.344   2.143   9.341  0.00  0.00    +0.000 A 
ATOM     19  C   UNL     1      45.809   2.108   8.023  0.00  0.00    +0.000 A 
ATOM     20  C   UNL     1      46.053   3.299   7.355  0.00  0.00    +0.000 A 
ATOM     21  F   UNL     1      46.480   3.270   6.086  0.00  0.00    +0.000 F 
ATOM     22  C   UNL     1      45.857   4.520   7.985  0.00  0.00    +0.000 A 
ATOM     23  C   UNL     1      45.395   4.548   9.302  0.00  0.00    +0.000 A 
ENDBRANCH  14  17
ENDBRANCH   1  14
TORSDOF 4
ENDMDL
MODEL 5
REMARK VINA RESULT:    -5.849      4.730      6.819
REMARK INTER + INTRA:          -7.695
REMARK INTER:                  -8.040
REMARK INTRA:                   0.346
REMARK UNBOUND:                -0.478
REMARK  Name = 
REMARK  4 active torsions:
REMARK  status: ('A' for Active; 'I' for Inactive)
REMARK    1  A    between atoms: C_2  and  C_4
REMARK    2  A    between atoms: C_7  and  N_8
REMARK    3  A    between atoms: N_8  and  C_9
REMARK    4  A    between atoms: C_9  and  C_10
REMARK                            x       y       z     vdW  Elec       q    Type
REMARK                         _______ _______ _______ _____ _____    ______ ____
ROOT
ATOM      1  N   UNL     1      47.293   6.004  12.409  0.00  0.00    +0.000 N 
ATOM      2  H   UNL     1      47.889   5.499  11.762  0.00  0.00    +0.000 HD
ENDROOT
BRANCH   1   6
ATOM      3  C   UNL     1      47.786   4.346  16.166  0.00  0.00    +0.000 A 
ATOM      4  C   UNL     1      48.254   5.621  15.893  0.00  0.00    +0.000 A 
ATOM      5  N   UNL     1      48.085   6.220  14.680  0.00  0.00    +0.000 NA
ATOM      6  C   UNL     1      47.448   5.503  13.727  0.00  0.00    +0.000 A 
ATOM      7  C   UNL     1      47.001   4.204  14.025  0.00  0.00    +0.000 A 
ATOM      8  N   UNL     1      47.133   3.599  15.235  0.00  0.00    +0.000 NA
BRANCH   3  10
ATOM      9  N   UNL     1      47.108   2.765  17.873  0.00  0.00    +0.000 N 
ATOM     10  C   UNL     1      47.996   3.747  17.513  0.00  0.00    +0.000 C 
ATOM     11  O   UNL     1      48.898   4.106  18.257  0.00  0.00    +0.000 OA
ATOM     12  H   UNL     1      47.203   2.309  18.768  0.00  0.00    +0.000 HD
ATOM     13  H   UNL     1      46.380   2.480  17.228  0.00  0.00    +0.000 HD
ENDBRANCH   3  10
ENDBRANCH   1   6
BRANCH   1  14
ATOM     14  C   UNL     1      45.926   6.249  11.883  0.00  0.00    +0.000 C 
ATOM     15  C   UNL     1      45.446   7.684  11.729  0.00  0.00    +0.000 C 
ATOM     16  C   UNL     1      44.894   6.851  12.837  0.00  0.00    +0.000 C 
BRANCH  14  17
ATOM     17  C   UNL     1      45.395   5.171  10.944  0.00  0.00    +0.000 A 
ATOM     18  C   UNL     1      45.632   5.228   9.555  0.00  0.00    +0.000 A 
ATOM     19  C   UNL     1      45.211   4.206   8.701  0.00  0.00    +0.000 A 
ATOM     20  C   UNL     1      44.536   3.113   9.225  0.00  0.00    +0.000 A 
ATOM     21  F   UNL     1      44.148   2.122   8.413  0.00  0.00    +0.000 F 
ATOM     22  C   UNL     1      44.261   3.034  10.583  0.00  0.00    +0.000 A 
ATOM     23  C   UNL     1      44.682   4.060  11.431  0.00  0.00    +0.000 A 
ENDBRANCH  14  17
ENDBRANCH   1  14
TORSDOF 4
ENDMDL
MODEL 6
REMARK VINA RESULT:    -5.723      4.104      6.211
REMARK INTER + INTRA:          -7.539
REMARK INTER:                  -7.658
REMARK INTRA:                   0.118
REMARK UNBOUND:                -0.478
REMARK  Name = 
REMARK  4 active torsions:
REMARK  status: ('A' for Active; 'I' for Inactive)
REMARK    1  A    between atoms: C_2  and  C_4
REMARK    2  A    between atoms: C_7  and  N_8
REMARK    3  A    between atoms: N_8  and  C_9
REMARK    4  A    between atoms: C_9  and  C_10
REMARK                            x       y       z     vdW  Elec       q    Type
REMARK                         _______ _______ _______ _____ _____    ______ ____
ROOT
ATOM      1  N   UNL     1      45.529   4.489  12.893  0.00  0.00    +0.000 N 
ATOM      2  H   UNL     1      45.355   4.199  13.849  0.00  0.00    +0.000 HD
ENDROOT
BRANCH   1   6
ATOM      3  C   UNL     1      47.010   8.342  12.628  0.00  0.00    +0.000 A 
ATOM      4  C   UNL     1      45.648   8.119  12.751  0.00  0.00    +0.000 A 
ATOM      5  N   UNL     1      45.118   6.869  12.875  0.00  0.00    +0.000 NA
ATOM      6  C   UNL     1      45.986   5.831  12.853  0.00  0.00    +0.000 A 
ATOM      7  C   UNL     1      47.360   6.085  12.707  0.00  0.00    +0.000 A 
ATOM      8  N   UNL     1      47.913   7.324  12.612  0.00  0.00    +0.000 NA
BRANCH   3  10
ATOM      9  N   UNL     1      46.694  10.626  11.881  0.00  0.00    +0.000 N 
ATOM     10  C   UNL     1      47.530   9.732  12.504  0.00  0.00    +0.000 C 
ATOM     11  O   UNL     1      48.629  10.062  12.925  0.00  0.00    +0.000 OA
ATOM     12  H   UNL     1      46.981  11.587  11.777  0.00  0.00    +0.000 HD
ATOM     13  H   UNL     1      45.783  10.325  11.556  0.00  0.00    +0.000 HD
ENDBRANCH   3  10
ENDBRANCH   1   6
BRANCH   1  14
ATOM     14  C   UNL     1      44.475   4.055  11.943  0.00  0.00    +0.000 C 
ATOM     15  C   UNL     1      43.041   4.501  12.182  0.00  0.00    +0.000 C 
ATOM     16  C   UNL     1      43.412   3.081  12.454  0.00  0.00    +0.000 C 
BRANCH  14  17
ATOM     17  C   UNL     1      44.958   3.802  10.518  0.00  0.00    +0.000 A 
ATOM     18  C   UNL     1      44.984   2.502   9.974  0.00  0.00    +0.000 A 
ATOM     19  C   UNL     1      45.356   2.274   8.646  0.00  0.00    +0.000 A 
ATOM     20  C   UNL     1      45.717   3.348   7.845  0.00  0.00    +0.000 A 
ATOM     21  F   UNL     1      46.055   3.137   6.567  0.00  0.00    +0.000 F 
ATOM     22  C   UNL     1      45.729   4.640   8.353  0.00  0.00    +0.000 A 
ATOM     23  C   UNL     1      45.359   4.860   9.681  0.00  0.00    +0.000 A 
ENDBRANCH  14  17
ENDBRANCH   1  14
TORSDOF 4
ENDMDL
MODEL 7
REMARK VINA RESULT:    -5.652      4.698      6.530
REMARK INTER + INTRA:          -7.452
REMARK INTER:                  -7.203
REMARK INTRA:                  -0.248
REMARK UNBOUND:                -0.478
REMARK  Name = 
REMARK  4 active torsions:
REMARK  status: ('A' for Active; 'I' for Inactive)
REMARK    1  A    between atoms: C_2  and  C_4
REMARK    2  A    between atoms: C_7  and  N_8
REMARK    3  A    between atoms: N_8  and  C_9
REMARK    4  A    between atoms: C_9  and  C_10
REMARK                            x       y       z     vdW  Elec       q    Type
REMARK                         _______ _______ _______ _____ _____    ______ ____
ROOT
ATOM      1  N   UNL     1      46.321   4.683  13.245  0.00  0.00    +0.000 N 
ATOM      2  H   UNL     1      46.012   4.226  14.097  0.00  0.00    +0.000 HD
ENDROOT
BRANCH   1   6
ATOM      3  C   UNL     1      49.483   7.180  14.181  0.00  0.00    +0.000 A 
ATOM      4  C   UNL     1      49.008   7.103  12.881  0.00  0.00    +0.000 A 
ATOM      5  N   UNL     1      47.947   6.320  12.533  0.00  0.00    +0.000 NA
ATOM      6  C   UNL     1      47.377   5.590  13.519  0.00  0.00    +0.000 A 
ATOM      7  C   UNL     1      47.891   5.672  14.824  0.00  0.00    +0.000 A 
ATOM      8  N   UNL     1      48.928   6.468  15.198  0.00  0.00    +0.000 NA
BRANCH   3  10
ATOM      9  N   UNL     1      51.690   8.007  13.617  0.00  0.00    +0.000 N 
ATOM     10  C   UNL     1      50.641   8.060  14.500  0.00  0.00    +0.000 C 
ATOM     11  O   UNL     1      50.662   8.785  15.485  0.00  0.00    +0.000 OA
ATOM     12  H   UNL     1      52.500   8.589  13.769  0.00  0.00    +0.000 HD
ATOM     13  H   UNL     1      51.636   7.407  12.802  0.00  0.00    +0.000 HD
ENDBRANCH   3  10
ENDBRANCH   1   6
BRANCH   1  14
ATOM     14  C   UNL     1      45.204   5.115  12.368  0.00  0.00    +0.000 C 
ATOM     15  C   UNL     1      44.542   6.459  12.630  0.00  0.00    +0.000 C 
ATOM     16  C   UNL     1      43.808   5.209  12.986  0.00  0.00    +0.000 C 
BRANCH  14  17
ATOM     17  C   UNL     1      45.251   4.562  10.947  0.00  0.00    +0.000 A 
ATOM     18  C   UNL     1      44.773   3.270  10.649  0.00  0.00    +0.000 A 
ATOM     19  C   UNL     1      44.747   2.787   9.337  0.00  0.00    +0.000 A 
ATOM     20  C   UNL     1      45.209   3.590   8.305  0.00  0.00    +0.000 A 
ATOM     21  F   UNL     1      45.167   3.139   7.045  0.00  0.00    +0.000 F 
ATOM     22  C   UNL     1      45.712   4.858   8.563  0.00  0.00    +0.000 A 
ATOM     23  C   UNL     1      45.738   5.333   9.875  0.00  0.00    +0.000 A 
ENDBRANCH  14  17
ENDBRANCH   1  14
TORSDOF 4
ENDMDL
