MODEL 1
REMARK VINA RESULT:    -7.506      0.000      0.000
REMARK INTER + INTRA:         -12.522
REMARK INTER:                 -11.675
REMARK INTRA:                  -0.847
REMARK UNBOUND:                -0.847
REMARK  Name = 
REMARK  10 active torsions:
REMARK  status: ('A' for Active; 'I' for Inactive)
REMARK    1  A    between atoms: N_1  and  C_2
REMARK    2  A    between atoms: C_2  and  C_3
REMARK    3  A    between atoms: C_3  and  N_4
REMARK    4  A    between atoms: N_4  and  C_5
REMARK    5  A    between atoms: C_5  and  C_6
REMARK    6  A    between atoms: C_9  and  C_10
REMARK    7  A    between atoms: C_10  and  C_11
REMARK    8  A    between atoms: C_14  and  C_15
REMARK    9  A    between atoms: C_15  and  N_16
REMARK   10  A    between atoms: C_17  and  C_19
REMARK                            x       y       z     vdW  Elec       q    Type
REMARK                         _______ _______ _______ _____ _____    ______ ____
ROOT
ATOM      1  C   UNL     1      47.377   7.585  12.264  0.00  0.00    +0.000 C 
ATOM      2  C   UNL     1      47.583   8.961  12.917  0.00  0.00    +0.000 C 
ATOM      3  C   UNL     1      47.684   8.885  14.441  0.00  0.00    +0.000 C 
ATOM      4  C   UNL     1      48.817   7.948  14.890  0.00  0.00    +0.000 C 
ATOM      5  C   UNL     1      48.681   6.566  14.225  0.00  0.00    +0.000 C 
ATOM      6  C   UNL     1      48.522   6.653  12.704  0.00  0.00    +0.000 C 
ENDROOT
BRANCH   1   7
ATOM      7  C   UNL     1      46.009   6.937  12.565  0.00  0.00    +0.000 C 
BRANCH   7  11
ATOM      8  C   UNL     1      44.892   3.590  10.180  0.00  0.00    +0.000 A 
ATOM      9  C   UNL     1      45.279   4.773   9.554  0.00  0.00    +0.000 A 
ATOM     10  C   UNL     1      45.682   5.857  10.320  0.00  0.00    +0.000 A 
ATOM     11  C   UNL     1      45.663   5.746  11.708  0.00  0.00    +0.000 A 
ATOM     12  N   UNL     1      45.291   4.609  12.342  0.00  0.00    +0.000 NA
ATOM     13  C   UNL     1      44.923   3.559  11.570  0.00  0.00    +0.000 A 
BRANCH   8  14
ATOM     14  C   UNL     1      44.421   2.410   9.377  0.00  0.00    +0.000 C 
BRANCH  14  15
ATOM     15  N   UNL     1      45.533   1.508   9.068  0.00  0.00    +0.000 NA
ATOM     16  H   UNL     1      46.179   1.534   9.861  0.00  0.00    +0.000 HD
BRANCH  15  17
ATOM     17  C   UNL     1      46.298   1.962   7.901  0.00  0.00    +0.000 C 
BRANCH  17  18
ATOM     18  C   UNL     1      47.203   0.874   7.286  0.00  0.00    +0.000 C 
BRANCH  18  19
ATOM     19  N   UNL     1      46.808  -0.470   7.727  0.00  0.00    +0.000 NA
ATOM     20  H   UNL     1      45.821  -0.611   7.513  0.00  0.00    +0.000 HD
ATOM     21  H   UNL     1      46.885  -0.517   8.744  0.00  0.00    +0.000 HD
ENDBRANCH  18  19
ENDBRANCH  17  18
ENDBRANCH  15  17
ENDBRANCH  14  15
ENDBRANCH   8  14
ENDBRANCH   7  11
ENDBRANCH   1   7
BRANCH   4  22
ATOM     22  C   UNL     1      48.849   7.793  16.423  0.00  0.00    +0.000 C 
BRANCH  22  23
ATOM     23  N   UNL     1      49.900   6.910  16.886  0.00  0.00    +0.000 N 
ATOM     24  C   UNL     1      49.641   5.731  17.537  0.00  0.00    +0.000 C 
ATOM     25  O   UNL     1      48.495   5.357  17.777  0.00  0.00    +0.000 OA
ATOM     26  H   UNL     1      50.855   7.252  16.837  0.00  0.00    +0.000 HD
BRANCH  24  27
ATOM     27  C   UNL     1      50.801   4.899  17.883  0.00  0.00    +0.000 A 
ATOM     28  C   UNL     1      51.888   5.481  18.523  0.00  0.00    +0.000 A 
ATOM     29  S   UNL     1      53.145   4.385  18.874  0.00  0.00    +0.000 S 
ATOM     30  C   UNL     1      52.299   3.098  18.150  0.00  0.00    +0.000 A 
ATOM     31  N   UNL     1      52.845   1.855  18.088  0.00  0.00    +0.000 NA
ATOM     32  C   UNL     1      52.109   0.978  17.483  0.00  0.00    +0.000 A 
ATOM     33  N   UNL     1      50.875   1.237  16.944  0.00  0.00    +0.000 N 
ATOM     34  C   UNL     1      50.266   2.467  17.027  0.00  0.00    +0.000 A 
ATOM     35  O   UNL     1      49.125   2.642  16.607  0.00  0.00    +0.000 OA
ATOM     36  C   UNL     1      51.063   3.495  17.668  0.00  0.00    +0.000 A 
ATOM     37  H   UNL     1      50.346   0.503  16.503  0.00  0.00    +0.000 HD
ENDBRANCH  24  27
ENDBRANCH  22  23
ENDBRANCH   4  22
TORSDOF 10
ENDMDL
MODEL 2
REMARK VINA RESULT:    -7.476      2.113      2.444
REMARK INTER + INTRA:         -12.475
REMARK INTER:                 -11.098
REMARK INTRA:                  -1.377
REMARK UNBOUND:                -0.847
REMARK  Name = 
REMARK  10 active torsions:
REMARK  status: ('A' for Active; 'I' for Inactive)
REMARK    1  A    between atoms: N_1  and  C_2
REMARK    2  A    between atoms: C_2  and  C_3
REMARK    3  A    between atoms: C_3  and  N_4
REMARK    4  A    between atoms: N_4  and  C_5
REMARK    5  A    between atoms: C_5  and  C_6
REMARK    6  A    between atoms: C_9  and  C_10
REMARK    7  A    between atoms: C_10  and  C_11
REMARK    8  A    between atoms: C_14  and  C_15
REMARK    9  A    between atoms: C_15  and  N_16
REMARK   10  A    between atoms: C_17  and  C_19
REMARK                            x       y       z     vdW  Elec       q    Type
REMARK                         _______ _______ _______ _____ _____    ______ ____
ROOT
ATOM      1  C   UNL     1      47.079   7.860  11.956  0.00  0.00    +0.000 C 
ATOM      2  C   UNL     1      47.062   9.228  12.657  0.00  0.00    +0.000 C 
ATOM      3  C   UNL     1      47.942   9.264  13.907  0.00  0.00    +0.000 C 
ATOM      4  C   UNL     1      49.398   8.888  13.589  0.00  0.00    +0.000 C 
ATOM      5  C   UNL     1      49.466   7.543  12.843  0.00  0.00    +0.000 C 
ATOM      6  C   UNL     1      48.538   7.493  11.626  0.00  0.00    +0.000 C 
ENDROOT
BRANCH   1   7
ATOM      7  C   UNL     1      46.406   6.726  12.759  0.00  0.00    +0.000 C 
BRANCH   7  11
ATOM      8  C   UNL     1      44.901   3.559  10.341  0.00  0.00    +0.000 A 
ATOM      9  C   UNL     1      45.137   3.329  11.694  0.00  0.00    +0.000 A 
ATOM     10  C   UNL     1      45.590   4.364  12.500  0.00  0.00    +0.000 A 
ATOM     11  C   UNL     1      45.828   5.610  11.927  0.00  0.00    +0.000 A 
ATOM     12  N   UNL     1      45.607   5.861  10.614  0.00  0.00    +0.000 NA
ATOM     13  C   UNL     1      45.145   4.839   9.855  0.00  0.00    +0.000 A 
BRANCH   8  14
ATOM     14  C   UNL     1      44.440   2.450   9.438  0.00  0.00    +0.000 C 
BRANCH  14  15
ATOM     15  N   UNL     1      45.547   1.554   9.099  0.00  0.00    +0.000 NA
ATOM     16  H   UNL     1      46.153   1.491   9.920  0.00  0.00    +0.000 HD
BRANCH  15  17
ATOM     17  C   UNL     1      46.377   2.094   8.016  0.00  0.00    +0.000 C 
BRANCH  17  18
ATOM     18  C   UNL     1      47.149   1.017   7.225  0.00  0.00    +0.000 C 
BRANCH  18  19
ATOM     19  N   UNL     1      46.775  -0.337   7.649  0.00  0.00    +0.000 NA
ATOM     20  H   UNL     1      47.348  -0.604   8.448  0.00  0.00    +0.000 HD
ATOM     21  H   UNL     1      47.012  -0.992   6.902  0.00  0.00    +0.000 HD
ENDBRANCH  18  19
ENDBRANCH  17  18
ENDBRANCH  15  17
ENDBRANCH  14  15
ENDBRANCH   8  14
ENDBRANCH   7  11
ENDBRANCH   1   7
BRANCH   4  22
ATOM     22  C   UNL     1      50.259   8.824  14.865  0.00  0.00    +0.000 C 
BRANCH  22  23
ATOM     23  N   UNL     1      49.835   7.794  15.790  0.00  0.00    +0.000 N 
ATOM     24  C   UNL     1      50.706   6.879  16.327  0.00  0.00    +0.000 C 
ATOM     25  O   UNL     1      51.902   6.874  16.044  0.00  0.00    +0.000 OA
ATOM     26  H   UNL     1      48.837   7.674  15.934  0.00  0.00    +0.000 HD
BRANCH  24  27
ATOM     27  C   UNL     1      50.152   5.937  17.309  0.00  0.00    +0.000 A 
ATOM     28  C   UNL     1      50.733   5.848  18.567  0.00  0.00    +0.000 A 
ATOM     29  S   UNL     1      49.969   4.727  19.598  0.00  0.00    +0.000 S 
ATOM     30  C   UNL     1      48.854   4.291  18.387  0.00  0.00    +0.000 A 
ATOM     31  N   UNL     1      47.915   3.336  18.618  0.00  0.00    +0.000 NA
ATOM     32  C   UNL     1      47.154   3.080  17.603  0.00  0.00    +0.000 A 
ATOM     33  N   UNL     1      47.246   3.702  16.384  0.00  0.00    +0.000 N 
ATOM     34  C   UNL     1      48.149   4.706  16.124  0.00  0.00    +0.000 A 
ATOM     35  O   UNL     1      48.148   5.299  15.048  0.00  0.00    +0.000 OA
ATOM     36  C   UNL     1      49.049   5.009  17.220  0.00  0.00    +0.000 A 
ATOM     37  H   UNL     1      46.608   3.469  15.642  0.00  0.00    +0.000 HD
ENDBRANCH  24  27
ENDBRANCH  22  23
ENDBRANCH   4  22
TORSDOF 10
ENDMDL
MODEL 3
REMARK VINA RESULT:    -7.235      2.372      3.000
REMARK INTER + INTRA:         -12.101
REMARK INTER:                 -10.295
REMARK INTRA:                  -1.806
REMARK UNBOUND:                -0.847
REMARK  Name = 
REMARK  10 active torsions:
REMARK  status: ('A' for Active; 'I' for Inactive)
REMARK    1  A    between atoms: N_1  and  C_2
REMARK    2  A    between atoms: C_2  and  C_3
REMARK    3  A    between atoms: C_3  and  N_4
REMARK    4  A    between atoms: N_4  and  C_5
REMARK    5  A    between atoms: C_5  and  C_6
REMARK    6  A    between atoms: C_9  and  C_10
REMARK    7  A    between atoms: C_10  and  C_11
REMARK    8  A    between atoms: C_14  and  C_15
REMARK    9  A    between atoms: C_15  and  N_16
REMARK   10  A    between atoms: C_17  and  C_19
REMARK                            x       y       z     vdW  Elec       q    Type
REMARK                         _______ _______ _______ _____ _____    ______ ____
ROOT
ATOM      1  C   UNL     1      47.313   8.660  12.108  0.00  0.00    +0.000 C 
ATOM      2  C   UNL     1      47.978   9.974  12.551  0.00  0.00    +0.000 C 
ATOM      3  C   UNL     1      49.112   9.756  13.553  0.00  0.00    +0.000 C 
ATOM      4  C   UNL     1      50.193   8.817  12.994  0.00  0.00    +0.000 C 
ATOM      5  C   UNL     1      49.570   7.501  12.493  0.00  0.00    +0.000 C 
ATOM      6  C   UNL     1      48.397   7.728  11.535  0.00  0.00    +0.000 C 
ENDROOT
BRANCH   1   7
ATOM      7  C   UNL     1      46.519   7.944  13.221  0.00  0.00    +0.000 C 
BRANCH   7  11
ATOM      8  C   UNL     1      44.551   4.418  11.865  0.00  0.00    +0.000 A 
ATOM      9  C   UNL     1      45.569   4.309  12.809  0.00  0.00    +0.000 A 
ATOM     10  C   UNL     1      46.191   5.454  13.288  0.00  0.00    +0.000 A 
ATOM     11  C   UNL     1      45.799   6.692  12.787  0.00  0.00    +0.000 A 
ATOM     12  N   UNL     1      44.813   6.827  11.869  0.00  0.00    +0.000 NA
ATOM     13  C   UNL     1      44.208   5.695  11.435  0.00  0.00    +0.000 A 
BRANCH   8  14
ATOM     14  C   UNL     1      43.880   3.195  11.307  0.00  0.00    +0.000 C 
BRANCH  14  15
ATOM     15  N   UNL     1      43.715   3.302   9.855  0.00  0.00    +0.000 NA
ATOM     16  H   UNL     1      42.850   2.817   9.608  0.00  0.00    +0.000 HD
BRANCH  15  17
ATOM     17  C   UNL     1      44.792   2.618   9.130  0.00  0.00    +0.000 C 
BRANCH  17  18
ATOM     18  C   UNL     1      45.390   3.447   7.974  0.00  0.00    +0.000 C 
BRANCH  18  19
ATOM     19  N   UNL     1      45.565   4.854   8.353  0.00  0.00    +0.000 NA
ATOM     20  H   UNL     1      45.036   5.036   9.205  0.00  0.00    +0.000 HD
ATOM     21  H   UNL     1      45.146   5.442   7.631  0.00  0.00    +0.000 HD
ENDBRANCH  18  19
ENDBRANCH  17  18
ENDBRANCH  15  17
ENDBRANCH  14  15
ENDBRANCH   8  14
ENDBRANCH   7  11
ENDBRANCH   1   7
BRANCH   4  22
ATOM     22  C   UNL     1      51.281   8.517  14.043  0.00  0.00    +0.000 C 
BRANCH  22  23
ATOM     23  N   UNL     1      51.001   7.337  14.835  0.00  0.00    +0.000 N 
ATOM     24  C   UNL     1      51.612   7.095  16.040  0.00  0.00    +0.000 C 
ATOM     25  O   UNL     1      52.445   7.864  16.515  0.00  0.00    +0.000 OA
ATOM     26  H   UNL     1      50.432   6.610  14.411  0.00  0.00    +0.000 HD
BRANCH  24  27
ATOM     27  C   UNL     1      51.178   5.898  16.771  0.00  0.00    +0.000 A 
ATOM     28  C   UNL     1      52.130   5.085  17.373  0.00  0.00    +0.000 A 
ATOM     29  S   UNL     1      51.470   3.748  18.197  0.00  0.00    +0.000 S 
ATOM     30  C   UNL     1      49.887   4.183  17.748  0.00  0.00    +0.000 A 
ATOM     31  N   UNL     1      48.825   3.420  18.118  0.00  0.00    +0.000 NA
ATOM     32  C   UNL     1      47.684   3.847  17.683  0.00  0.00    +0.000 A 
ATOM     33  N   UNL     1      47.514   4.974  16.919  0.00  0.00    +0.000 N 
ATOM     34  C   UNL     1      48.554   5.799  16.563  0.00  0.00    +0.000 A 
ATOM     35  O   UNL     1      48.356   6.845  15.950  0.00  0.00    +0.000 OA
ATOM     36  C   UNL     1      49.861   5.347  16.999  0.00  0.00    +0.000 A 
ATOM     37  H   UNL     1      46.594   5.262  16.630  0.00  0.00    +0.000 HD
ENDBRANCH  24  27
ENDBRANCH  22  23
ENDBRANCH   4  22
TORSDOF 10
ENDMDL
MODEL 4
REMARK VINA RESULT:    -6.717      3.396      8.938
REMARK INTER + INTRA:         -11.295
REMARK INTER:                 -10.087
REMARK INTRA:                  -1.208
REMARK UNBOUND:                -0.847
REMARK  Name = 
REMARK  10 active torsions:
REMARK  status: ('A' for Active; 'I' for Inactive)
REMARK    1  A    between atoms: N_1  and  C_2
REMARK    2  A    between atoms: C_2  and  C_3
REMARK    3  A    between atoms: C_3  and  N_4
REMARK    4  A    between atoms: N_4  and  C_5
REMARK    5  A    between atoms: C_5  and  C_6
REMARK    6  A    between atoms: C_9  and  C_10
REMARK    7  A    between atoms: C_10  and  C_11
REMARK    8  A    between atoms: C_14  and  C_15
REMARK    9  A    between atoms: C_15  and  N_16
REMARK   10  A    between atoms: C_17  and  C_19
REMARK                            x       y       z     vdW  Elec       q    Type
REMARK                         _______ _______ _______ _____ _____    ______ ____
ROOT
ATOM      1  C   UNL     1      49.464   7.762  14.472  0.00  0.00    +0.000 C 
ATOM      2  C   UNL     1      49.611   7.421  12.980  0.00  0.00    +0.000 C 
ATOM      3  C   UNL     1      48.265   7.237  12.279  0.00  0.00    +0.000 C 
ATOM      4  C   UNL     1      47.377   8.484  12.417  0.00  0.00    +0.000 C 
ATOM      5  C   UNL     1      47.236   8.896  13.894  0.00  0.00    +0.000 C 
ATOM      6  C   UNL     1      48.586   9.021  14.605  0.00  0.00    +0.000 C 
ENDROOT
BRANCH   1   7
ATOM      7  C   UNL     1      48.897   6.615  15.333  0.00  0.00    +0.000 C 
BRANCH   7  11
ATOM      8  C   UNL     1      51.632   4.888  18.104  0.00  0.00    +0.000 A 
ATOM      9  C   UNL     1      51.992   6.051  17.428  0.00  0.00    +0.000 A 
ATOM     10  C   UNL     1      51.094   6.644  16.552  0.00  0.00    +0.000 A 
ATOM     11  C   UNL     1      49.855   6.042  16.347  0.00  0.00    +0.000 A 
ATOM     12  N   UNL     1      49.480   4.912  16.991  0.00  0.00    +0.000 NA
ATOM     13  C   UNL     1      50.367   4.365  17.856  0.00  0.00    +0.000 A 
BRANCH   8  14
ATOM     14  C   UNL     1      52.595   4.206  19.035  0.00  0.00    +0.000 C 
BRANCH  14  15
ATOM     15  N   UNL     1      52.406   2.754  19.015  0.00  0.00    +0.000 NA
ATOM     16  H   UNL     1      52.876   2.372  19.839  0.00  0.00    +0.000 HD
BRANCH  15  17
ATOM     17  C   UNL     1      53.052   2.135  17.851  0.00  0.00    +0.000 C 
BRANCH  17  18
ATOM     18  C   UNL     1      52.208   1.027  17.186  0.00  0.00    +0.000 C 
BRANCH  18  19
ATOM     19  N   UNL     1      51.572   0.159  18.185  0.00  0.00    +0.000 NA
ATOM     20  H   UNL     1      50.634  -0.080  17.865  0.00  0.00    +0.000 HD
ATOM     21  H   UNL     1      51.447   0.691  19.048  0.00  0.00    +0.000 HD
ENDBRANCH  18  19
ENDBRANCH  17  18
ENDBRANCH  15  17
ENDBRANCH  14  15
ENDBRANCH   8  14
ENDBRANCH   7  11
ENDBRANCH   1   7
BRANCH   4  22
ATOM     22  C   UNL     1      45.983   8.259  11.799  0.00  0.00    +0.000 C 
BRANCH  22  23
ATOM     23  N   UNL     1      45.665   6.860  11.600  0.00  0.00    +0.000 N 
ATOM     24  C   UNL     1      44.388   6.420  11.357  0.00  0.00    +0.000 C 
ATOM     25  O   UNL     1      43.432   7.191  11.303  0.00  0.00    +0.000 OA
ATOM     26  H   UNL     1      46.399   6.181  11.781  0.00  0.00    +0.000 HD
BRANCH  24  27
ATOM     27  C   UNL     1      44.223   4.984  11.100  0.00  0.00    +0.000 A 
ATOM     28  C   UNL     1      43.452   4.222  11.968  0.00  0.00    +0.000 A 
ATOM     29  S   UNL     1      43.340   2.579  11.527  0.00  0.00    +0.000 S 
ATOM     30  C   UNL     1      44.350   2.817  10.177  0.00  0.00    +0.000 A 
ATOM     31  N   UNL     1      44.685   1.778   9.368  0.00  0.00    +0.000 NA
ATOM     32  C   UNL     1      45.484   2.092   8.399  0.00  0.00    +0.000 A 
ATOM     33  N   UNL     1      45.968   3.354   8.168  0.00  0.00    +0.000 N 
ATOM     34  C   UNL     1      45.617   4.441   8.933  0.00  0.00    +0.000 A 
ATOM     35  O   UNL     1      46.003   5.572   8.646  0.00  0.00    +0.000 OA
ATOM     36  C   UNL     1      44.748   4.138  10.053  0.00  0.00    +0.000 A 
ATOM     37  H   UNL     1      46.572   3.534   7.383  0.00  0.00    +0.000 HD
ENDBRANCH  24  27
ENDBRANCH  22  23
ENDBRANCH   4  22
TORSDOF 10
ENDMDL
MODEL 5
REMARK VINA RESULT:    -6.648      2.074      2.728
REMARK INTER + INTRA:         -11.187
REMARK INTER:                 -10.493
REMARK INTRA:                  -0.695
REMARK UNBOUND:                -0.847
REMARK  Name = 
REMARK  10 active torsions:
REMARK  status: ('A' for Active; 'I' for Inactive)
REMARK    1  A    between atoms: N_1  and  C_2
REMARK    2  A    between atoms: C_2  and  C_3
REMARK    3  A    between atoms: C_3  and  N_4
REMARK    4  A    between atoms: N_4  and  C_5
REMARK    5  A    between atoms: C_5  and  C_6
REMARK    6  A    between atoms: C_9  and  C_10
REMARK    7  A    between atoms: C_10  and  C_11
REMARK    8  A    between atoms: C_14  and  C_15
REMARK    9  A    between atoms: C_15  and  N_16
REMARK   10  A    between atoms: C_17  and  C_19
REMARK                            x       y       z     vdW  Elec       q    Type
REMARK                         _______ _______ _______ _____ _____    ______ ____
ROOT
ATOM      1  C   UNL     1      45.167   7.050  12.600  0.00  0.00    +0.000 C 
ATOM      2  C   UNL     1      46.078   5.987  13.236  0.00  0.00    +0.000 C 
ATOM      3  C   UNL     1      47.560   6.228  12.951  0.00  0.00    +0.000 C 
ATOM      4  C   UNL     1      48.013   7.617  13.427  0.00  0.00    +0.000 C 
ATOM      5  C   UNL     1      47.102   8.717  12.852  0.00  0.00    +0.000 C 
ATOM      6  C   UNL     1      45.615   8.440  13.091  0.00  0.00    +0.000 C 
ENDROOT
BRANCH   1   7
ATOM      7  C   UNL     1      45.127   7.010  11.058  0.00  0.00    +0.000 C 
BRANCH   7  11
ATOM      8  C   UNL     1      45.009   3.126   9.312  0.00  0.00    +0.000 A 
ATOM      9  C   UNL     1      45.737   4.133   8.684  0.00  0.00    +0.000 A 
ATOM     10  C   UNL     1      45.815   5.392   9.263  0.00  0.00    +0.000 A 
ATOM     11  C   UNL     1      45.134   5.628  10.454  0.00  0.00    +0.000 A 
ATOM     12  N   UNL     1      44.419   4.668  11.087  0.00  0.00    +0.000 NA
ATOM     13  C   UNL     1      44.377   3.443  10.510  0.00  0.00    +0.000 A 
BRANCH   8  14
ATOM     14  C   UNL     1      44.882   1.763   8.693  0.00  0.00    +0.000 C 
BRANCH  14  15
ATOM     15  N   UNL     1      46.200   1.175   8.443  0.00  0.00    +0.000 NA
ATOM     16  H   UNL     1      46.875   1.674   9.027  0.00  0.00    +0.000 HD
BRANCH  15  17
ATOM     17  C   UNL     1      46.633   1.374   7.055  0.00  0.00    +0.000 C 
BRANCH  17  18
ATOM     18  C   UNL     1      48.040   1.995   6.923  0.00  0.00    +0.000 C 
BRANCH  18  19
ATOM     19  N   UNL     1      48.573   1.842   5.564  0.00  0.00    +0.000 NA
ATOM     20  H   UNL     1      48.101   2.503   4.948  0.00  0.00    +0.000 HD
ATOM     21  H   UNL     1      48.328   0.913   5.219  0.00  0.00    +0.000 HD
ENDBRANCH  18  19
ENDBRANCH  17  18
ENDBRANCH  15  17
ENDBRANCH  14  15
ENDBRANCH   8  14
ENDBRANCH   7  11
ENDBRANCH   1   7
BRANCH   4  22
ATOM     22  C   UNL     1      49.479   7.898  13.045  0.00  0.00    +0.000 C 
BRANCH  22  23
ATOM     23  N   UNL     1      50.431   7.326  13.974  0.00  0.00    +0.000 N 
ATOM     24  C   UNL     1      51.005   8.055  14.986  0.00  0.00    +0.000 C 
ATOM     25  O   UNL     1      50.751   9.244  15.157  0.00  0.00    +0.000 OA
ATOM     26  H   UNL     1      50.776   6.391  13.777  0.00  0.00    +0.000 HD
BRANCH  24  27
ATOM     27  C   UNL     1      51.896   7.328  15.899  0.00  0.00    +0.000 A 
ATOM     28  C   UNL     1      53.213   7.746  16.040  0.00  0.00    +0.000 A 
ATOM     29  S   UNL     1      54.114   6.815  17.147  0.00  0.00    +0.000 S 
ATOM     30  C   UNL     1      52.787   5.793  17.452  0.00  0.00    +0.000 A 
ATOM     31  N   UNL     1      52.900   4.744  18.309  0.00  0.00    +0.000 NA
ATOM     32  C   UNL     1      51.826   4.031  18.423  0.00  0.00    +0.000 A 
ATOM     33  N   UNL     1      50.651   4.282  17.762  0.00  0.00    +0.000 N 
ATOM     34  C   UNL     1      50.480   5.358  16.924  0.00  0.00    +0.000 A 
ATOM     35  O   UNL     1      49.389   5.600  16.414  0.00  0.00    +0.000 OA
ATOM     36  C   UNL     1      51.665   6.172  16.735  0.00  0.00    +0.000 A 
ATOM     37  H   UNL     1      49.845   3.698  17.912  0.00  0.00    +0.000 HD
ENDBRANCH  24  27
ENDBRANCH  22  23
ENDBRANCH   4  22
TORSDOF 10
ENDMDL
MODEL 6
REMARK VINA RESULT:    -6.459      5.421      6.956
REMARK INTER + INTRA:         -10.894
REMARK INTER:                  -9.940
REMARK INTRA:                  -0.954
REMARK UNBOUND:                -0.847
REMARK  Name = 
REMARK  10 active torsions:
REMARK  status: ('A' for Active; 'I' for Inactive)
REMARK    1  A    between atoms: N_1  and  C_2
REMARK    2  A    between atoms: C_2  and  C_3
REMARK    3  A    between atoms: C_3  and  N_4
REMARK    4  A    between atoms: N_4  and  C_5
REMARK    5  A    between atoms: C_5  and  C_6
REMARK    6  A    between atoms: C_9  and  C_10
REMARK    7  A    between atoms: C_10  and  C_11
REMARK    8  A    between atoms: C_14  and  C_15
REMARK    9  A    between atoms: C_15  and  N_16
REMARK   10  A    between atoms: C_17  and  C_19
REMARK                            x       y       z     vdW  Elec       q    Type
REMARK                         _______ _______ _______ _____ _____    ______ ____
ROOT
ATOM      1  C   UNL     1      48.059   7.839  13.740  0.00  0.00    +0.000 C 
ATOM      2  C   UNL     1      49.069   8.254  14.822  0.00  0.00    +0.000 C 
ATOM      3  C   UNL     1      50.520   8.137  14.354  0.00  0.00    +0.000 C 
ATOM      4  C   UNL     1      50.778   8.969  13.088  0.00  0.00    +0.000 C 
ATOM      5  C   UNL     1      49.760   8.622  11.987  0.00  0.00    +0.000 C 
ATOM      6  C   UNL     1      48.311   8.685  12.478  0.00  0.00    +0.000 C 
ENDROOT
BRANCH   1   7
ATOM      7  C   UNL     1      48.081   6.335  13.395  0.00  0.00    +0.000 C 
BRANCH   7  11
ATOM      8  C   UNL     1      44.844   4.892  11.033  0.00  0.00    +0.000 A 
ATOM      9  C   UNL     1      45.099   4.304  12.269  0.00  0.00    +0.000 A 
ATOM     10  C   UNL     1      46.126   4.791  13.065  0.00  0.00    +0.000 A 
ATOM     11  C   UNL     1      46.902   5.846  12.592  0.00  0.00    +0.000 A 
ATOM     12  N   UNL     1      46.677   6.435  11.394  0.00  0.00    +0.000 NA
ATOM     13  C   UNL     1      45.654   5.954  10.647  0.00  0.00    +0.000 A 
BRANCH   8  14
ATOM     14  C   UNL     1      43.758   4.366  10.137  0.00  0.00    +0.000 C 
BRANCH  14  15
ATOM     15  N   UNL     1      44.189   4.359   8.737  0.00  0.00    +0.000 NA
ATOM     16  H   UNL     1      43.348   4.356   8.157  0.00  0.00    +0.000 HD
BRANCH  15  17
ATOM     17  C   UNL     1      44.927   3.137   8.398  0.00  0.00    +0.000 C 
BRANCH  17  18
ATOM     18  C   UNL     1      45.881   3.297   7.195  0.00  0.00    +0.000 C 
BRANCH  18  19
ATOM     19  N   UNL     1      46.780   4.445   7.368  0.00  0.00    +0.000 NA
ATOM     20  H   UNL     1      46.740   5.024   6.531  0.00  0.00    +0.000 HD
ATOM     21  H   UNL     1      47.740   4.103   7.428  0.00  0.00    +0.000 HD
ENDBRANCH  18  19
ENDBRANCH  17  18
ENDBRANCH  15  17
ENDBRANCH  14  15
ENDBRANCH   8  14
ENDBRANCH   7  11
ENDBRANCH   1   7
BRANCH   4  22
ATOM     22  C   UNL     1      52.212   8.768  12.560  0.00  0.00    +0.000 C 
BRANCH  22  23
ATOM     23  N   UNL     1      52.258   8.378  11.166  0.00  0.00    +0.000 N 
ATOM     24  C   UNL     1      53.191   8.877  10.290  0.00  0.00    +0.000 C 
ATOM     25  O   UNL     1      54.039   9.695  10.637  0.00  0.00    +0.000 OA
ATOM     26  H   UNL     1      51.489   7.820  10.808  0.00  0.00    +0.000 HD
BRANCH  24  27
ATOM     27  C   UNL     1      53.167   8.338   8.924  0.00  0.00    +0.000 A 
ATOM     28  C   UNL     1      52.884   9.187   7.862  0.00  0.00    +0.000 A 
ATOM     29  S   UNL     1      52.913   8.419   6.342  0.00  0.00    +0.000 S 
ATOM     30  C   UNL     1      53.268   6.912   7.049  0.00  0.00    +0.000 A 
ATOM     31  N   UNL     1      53.400   5.798   6.282  0.00  0.00    +0.000 NA
ATOM     32  C   UNL     1      53.638   4.715   6.949  0.00  0.00    +0.000 A 
ATOM     33  N   UNL     1      53.763   4.654   8.314  0.00  0.00    +0.000 N 
ATOM     34  C   UNL     1      53.685   5.763   9.122  0.00  0.00    +0.000 A 
ATOM     35  O   UNL     1      53.885   5.685  10.331  0.00  0.00    +0.000 OA
ATOM     36  C   UNL     1      53.387   6.999   8.426  0.00  0.00    +0.000 A 
ATOM     37  H   UNL     1      53.968   3.780   8.769  0.00  0.00    +0.000 HD
ENDBRANCH  24  27
ENDBRANCH  22  23
ENDBRANCH   4  22
TORSDOF 10
ENDMDL
MODEL 7
REMARK VINA RESULT:    -6.451      2.722      4.694
REMARK INTER + INTRA:         -10.881
REMARK INTER:                  -9.569
REMARK INTRA:                  -1.312
REMARK UNBOUND:                -0.847
REMARK  Name = 
REMARK  10 active torsions:
REMARK  status: ('A' for Active; 'I' for Inactive)
REMARK    1  A    between atoms: N_1  and  C_2
REMARK    2  A    between atoms: C_2  and  C_3
REMARK    3  A    between atoms: C_3  and  N_4
REMARK    4  A    between atoms: N_4  and  C_5
REMARK    5  A    between atoms: C_5  and  C_6
REMARK    6  A    between atoms: C_9  and  C_10
REMARK    7  A    between atoms: C_10  and  C_11
REMARK    8  A    between atoms: C_14  and  C_15
REMARK    9  A    between atoms: C_15  and  N_16
REMARK   10  A    between atoms: C_17  and  C_19
REMARK                            x       y       z     vdW  Elec       q    Type
REMARK                         _______ _______ _______ _____ _____    ______ ____
ROOT
ATOM      1  C   UNL     1      47.123   3.976  16.457  0.00  0.00    +0.000 C 
ATOM      2  C   UNL     1      47.986   2.719  16.651  0.00  0.00    +0.000 C 
ATOM      3  C   UNL     1      49.424   3.044  17.055  0.00  0.00    +0.000 C 
ATOM      4  C   UNL     1      49.478   3.886  18.340  0.00  0.00    +0.000 C 
ATOM      5  C   UNL     1      48.590   5.137  18.212  0.00  0.00    +0.000 C 
ATOM      6  C   UNL     1      47.167   4.810  17.751  0.00  0.00    +0.000 C 
ENDROOT
BRANCH   1   7
ATOM      7  C   UNL     1      47.525   4.841  15.243  0.00  0.00    +0.000 C 
BRANCH   7  11
ATOM      8  C   UNL     1      45.079   4.182  11.820  0.00  0.00    +0.000 A 
ATOM      9  C   UNL     1      45.360   5.488  12.214  0.00  0.00    +0.000 A 
ATOM     10  C   UNL     1      46.188   5.715  13.305  0.00  0.00    +0.000 A 
ATOM     11  C   UNL     1      46.699   4.624  14.002  0.00  0.00    +0.000 A 
ATOM     12  N   UNL     1      46.442   3.344  13.640  0.00  0.00    +0.000 NA
ATOM     13  C   UNL     1      45.648   3.151  12.559  0.00  0.00    +0.000 A 
BRANCH   8  14
ATOM     14  C   UNL     1      44.162   3.905  10.662  0.00  0.00    +0.000 C 
BRANCH  14  15
ATOM     15  N   UNL     1      44.292   2.518  10.209  0.00  0.00    +0.000 NA
ATOM     16  H   UNL     1      44.851   2.020  10.905  0.00  0.00    +0.000 HD
BRANCH  15  17
ATOM     17  C   UNL     1      45.029   2.422   8.944  0.00  0.00    +0.000 C 
BRANCH  17  18
ATOM     18  C   UNL     1      44.877   3.662   8.038  0.00  0.00    +0.000 C 
BRANCH  18  19
ATOM     19  N   UNL     1      46.182   4.224   7.669  0.00  0.00    +0.000 NA
ATOM     20  H   UNL     1      46.644   4.567   8.510  0.00  0.00    +0.000 HD
ATOM     21  H   UNL     1      46.031   5.044   7.078  0.00  0.00    +0.000 HD
ENDBRANCH  18  19
ENDBRANCH  17  18
ENDBRANCH  15  17
ENDBRANCH  14  15
ENDBRANCH   8  14
ENDBRANCH   7  11
ENDBRANCH   1   7
BRANCH   4  22
ATOM     22  C   UNL     1      50.921   4.300  18.687  0.00  0.00    +0.000 C 
BRANCH  22  23
ATOM     23  N   UNL     1      51.552   5.094  17.654  0.00  0.00    +0.000 N 
ATOM     24  C   UNL     1      52.131   6.313  17.908  0.00  0.00    +0.000 C 
ATOM     25  O   UNL     1      52.137   6.809  19.032  0.00  0.00    +0.000 OA
ATOM     26  H   UNL     1      51.440   4.788  16.692  0.00  0.00    +0.000 HD
BRANCH  24  27
ATOM     27  C   UNL     1      52.800   6.973  16.780  0.00  0.00    +0.000 A 
ATOM     28  C   UNL     1      54.156   7.264  16.869  0.00  0.00    +0.000 A 
ATOM     29  S   UNL     1      54.791   8.012  15.477  0.00  0.00    +0.000 S 
ATOM     30  C   UNL     1      53.269   8.011  14.715  0.00  0.00    +0.000 A 
ATOM     31  N   UNL     1      53.111   8.547  13.476  0.00  0.00    +0.000 NA
ATOM     32  C   UNL     1      51.897   8.509  13.029  0.00  0.00    +0.000 A 
ATOM     33  N   UNL     1      50.833   7.974  13.710  0.00  0.00    +0.000 N 
ATOM     34  C   UNL     1      50.957   7.380  14.944  0.00  0.00    +0.000 A 
ATOM     35  O   UNL     1      49.999   6.837  15.488  0.00  0.00    +0.000 OA
ATOM     36  C   UNL     1      52.294   7.425  15.505  0.00  0.00    +0.000 A 
ATOM     37  H   UNL     1      49.916   7.959  13.295  0.00  0.00    +0.000 HD
ENDBRANCH  24  27
ENDBRANCH  22  23
ENDBRANCH   4  22
TORSDOF 10
ENDMDL
MODEL 8
REMARK VINA RESULT:    -6.371      3.547      8.433
REMARK INTER + INTRA:         -10.757
REMARK INTER:                 -10.242
REMARK INTRA:                  -0.515
REMARK UNBOUND:                -0.847
REMARK  Name = 
REMARK  10 active torsions:
REMARK  status: ('A' for Active; 'I' for Inactive)
REMARK    1  A    between atoms: N_1  and  C_2
REMARK    2  A    between atoms: C_2  and  C_3
REMARK    3  A    between atoms: C_3  and  N_4
REMARK    4  A    between atoms: N_4  and  C_5
REMARK    5  A    between atoms: C_5  and  C_6
REMARK    6  A    between atoms: C_9  and  C_10
REMARK    7  A    between atoms: C_10  and  C_11
REMARK    8  A    between atoms: C_14  and  C_15
REMARK    9  A    between atoms: C_15  and  N_16
REMARK   10  A    between atoms: C_17  and  C_19
REMARK                            x       y       z     vdW  Elec       q    Type
REMARK                         _______ _______ _______ _____ _____    ______ ____
ROOT
ATOM      1  C   UNL     1      50.725   9.282  12.505  0.00  0.00    +0.000 C 
ATOM      2  C   UNL     1      50.370   7.795  12.347  0.00  0.00    +0.000 C 
ATOM      3  C   UNL     1      48.896   7.504  12.631  0.00  0.00    +0.000 C 
ATOM      4  C   UNL     1      47.969   8.334  11.730  0.00  0.00    +0.000 C 
ATOM      5  C   UNL     1      48.315   9.832  11.818  0.00  0.00    +0.000 C 
ATOM      6  C   UNL     1      49.804  10.110  11.590  0.00  0.00    +0.000 C 
ENDROOT
BRANCH   1   7
ATOM      7  C   UNL     1      50.652   9.801  13.957  0.00  0.00    +0.000 C 
BRANCH   7  11
ATOM      8  C   UNL     1      49.968   6.732  16.830  0.00  0.00    +0.000 A 
ATOM      9  C   UNL     1      51.180   6.765  16.145  0.00  0.00    +0.000 A 
ATOM     10  C   UNL     1      51.430   7.783  15.235  0.00  0.00    +0.000 A 
ATOM     11  C   UNL     1      50.443   8.738  15.006  0.00  0.00    +0.000 A 
ATOM     12  N   UNL     1      49.257   8.730  15.658  0.00  0.00    +0.000 NA
ATOM     13  C   UNL     1      49.047   7.737  16.556  0.00  0.00    +0.000 A 
BRANCH   8  14
ATOM     14  C   UNL     1      49.658   5.626  17.799  0.00  0.00    +0.000 C 
BRANCH  14  15
ATOM     15  N   UNL     1      50.233   4.356  17.347  0.00  0.00    +0.000 NA
ATOM     16  H   UNL     1      50.147   4.325  16.329  0.00  0.00    +0.000 HD
BRANCH  15  17
ATOM     17  C   UNL     1      49.482   3.203  17.858  0.00  0.00    +0.000 C 
BRANCH  17  18
ATOM     18  C   UNL     1      48.640   2.482  16.785  0.00  0.00    +0.000 C 
BRANCH  18  19
ATOM     19  N   UNL     1      49.486   1.730  15.850  0.00  0.00    +0.000 NA
ATOM     20  H   UNL     1      48.890   1.253  15.175  0.00  0.00    +0.000 HD
ATOM     21  H   UNL     1      49.970   0.993  16.366  0.00  0.00    +0.000 HD
ENDBRANCH  18  19
ENDBRANCH  17  18
ENDBRANCH  15  17
ENDBRANCH  14  15
ENDBRANCH   8  14
ENDBRANCH   7  11
ENDBRANCH   1   7
BRANCH   4  22
ATOM     22  C   UNL     1      46.486   8.117  12.089  0.00  0.00    +0.000 C 
BRANCH  22  23
ATOM     23  N   UNL     1      46.034   6.761  11.857  0.00  0.00    +0.000 N 
ATOM     24  C   UNL     1      44.743   6.463  11.498  0.00  0.00    +0.000 C 
ATOM     25  O   UNL     1      43.887   7.335  11.363  0.00  0.00    +0.000 OA
ATOM     26  H   UNL     1      46.669   6.006  12.099  0.00  0.00    +0.000 HD
BRANCH  24  27
ATOM     27  C   UNL     1      44.443   5.053  11.221  0.00  0.00    +0.000 A 
ATOM     28  C   UNL     1      43.662   4.335  12.118  0.00  0.00    +0.000 A 
ATOM     29  S   UNL     1      43.388   2.719  11.650  0.00  0.00    +0.000 S 
ATOM     30  C   UNL     1      44.335   2.908  10.248  0.00  0.00    +0.000 A 
ATOM     31  N   UNL     1      44.533   1.866   9.398  0.00  0.00    +0.000 NA
ATOM     32  C   UNL     1      45.299   2.138   8.390  0.00  0.00    +0.000 A 
ATOM     33  N   UNL     1      45.873   3.362   8.156  0.00  0.00    +0.000 N 
ATOM     34  C   UNL     1      45.659   4.454   8.964  0.00  0.00    +0.000 A 
ATOM     35  O   UNL     1      46.121   5.555   8.679  0.00  0.00    +0.000 OA
ATOM     36  C   UNL     1      44.834   4.194  10.127  0.00  0.00    +0.000 A 
ATOM     37  H   UNL     1      46.443   3.511   7.341  0.00  0.00    +0.000 HD
ENDBRANCH  24  27
ENDBRANCH  22  23
ENDBRANCH   4  22
TORSDOF 10
ENDMDL
MODEL 9
REMARK VINA RESULT:    -6.370      3.913      8.418
REMARK INTER + INTRA:         -10.755
REMARK INTER:                  -9.309
REMARK INTRA:                  -1.446
REMARK UNBOUND:                -0.847
REMARK  Name = 
REMARK  10 active torsions:
REMARK  status: ('A' for Active; 'I' for Inactive)
REMARK    1  A    between atoms: N_1  and  C_2
REMARK    2  A    between atoms: C_2  and  C_3
REMARK    3  A    between atoms: C_3  and  N_4
REMARK    4  A    between atoms: N_4  and  C_5
REMARK    5  A    between atoms: C_5  and  C_6
REMARK    6  A    between atoms: C_9  and  C_10
REMARK    7  A    between atoms: C_10  and  C_11
REMARK    8  A    between atoms: C_14  and  C_15
REMARK    9  A    between atoms: C_15  and  N_16
REMARK   10  A    between atoms: C_17  and  C_19
REMARK                            x       y       z     vdW  Elec       q    Type
REMARK                         _______ _______ _______ _____ _____    ______ ____
ROOT
ATOM      1  C   UNL     1      50.827   5.535  18.228  0.00  0.00    +0.000 C 
ATOM      2  C   UNL     1      49.436   6.149  18.457  0.00  0.00    +0.000 C 
ATOM      3  C   UNL     1      48.370   5.564  17.530  0.00  0.00    +0.000 C 
ATOM      4  C   UNL     1      48.268   4.038  17.673  0.00  0.00    +0.000 C 
ATOM      5  C   UNL     1      49.648   3.377  17.497  0.00  0.00    +0.000 C 
ATOM      6  C   UNL     1      50.724   4.007  18.386  0.00  0.00    +0.000 C 
ENDROOT
BRANCH   1   7
ATOM      7  C   UNL     1      51.464   5.895  16.869  0.00  0.00    +0.000 C 
BRANCH   7  11
ATOM      8  C   UNL     1      50.316   9.731  15.415  0.00  0.00    +0.000 A 
ATOM      9  C   UNL     1      51.126   9.646  16.544  0.00  0.00    +0.000 A 
ATOM     10  C   UNL     1      51.539   8.403  17.004  0.00  0.00    +0.000 A 
ATOM     11  C   UNL     1      51.106   7.260  16.337  0.00  0.00    +0.000 A 
ATOM     12  N   UNL     1      50.318   7.314  15.237  0.00  0.00    +0.000 NA
ATOM     13  C   UNL     1      49.948   8.540  14.797  0.00  0.00    +0.000 A 
BRANCH   8  14
ATOM     14  C   UNL     1      49.829  11.060  14.911  0.00  0.00    +0.000 C 
BRANCH  14  15
ATOM     15  N   UNL     1      49.903  11.128  13.450  0.00  0.00    +0.000 NA
ATOM     16  H   UNL     1      50.458  11.952  13.209  0.00  0.00    +0.000 HD
BRANCH  15  17
ATOM     17  C   UNL     1      48.582  11.331  12.844  0.00  0.00    +0.000 C 
BRANCH  17  18
ATOM     18  C   UNL     1      48.393  10.598  11.500  0.00  0.00    +0.000 C 
BRANCH  18  19
ATOM     19  N   UNL     1      49.181   9.360  11.444  0.00  0.00    +0.000 NA
ATOM     20  H   UNL     1      49.642   9.303  10.537  0.00  0.00    +0.000 HD
ATOM     21  H   UNL     1      48.543   8.564  11.486  0.00  0.00    +0.000 HD
ENDBRANCH  18  19
ENDBRANCH  17  18
ENDBRANCH  15  17
ENDBRANCH  14  15
ENDBRANCH   8  14
ENDBRANCH   7  11
ENDBRANCH   1   7
BRANCH   4  22
ATOM     22  C   UNL     1      47.267   3.440  16.665  0.00  0.00    +0.000 C 
BRANCH  22  23
ATOM     23  N   UNL     1      46.764   4.410  15.714  0.00  0.00    +0.000 N 
ATOM     24  C   UNL     1      46.770   4.189  14.360  0.00  0.00    +0.000 C 
ATOM     25  O   UNL     1      47.214   3.153  13.870  0.00  0.00    +0.000 OA
ATOM     26  H   UNL     1      46.525   5.332  16.067  0.00  0.00    +0.000 HD
BRANCH  24  27
ATOM     27  C   UNL     1      46.160   5.227  13.519  0.00  0.00    +0.000 A 
ATOM     28  C   UNL     1      46.846   6.415  13.300  0.00  0.00    +0.000 A 
ATOM     29  S   UNL     1      46.019   7.511  12.291  0.00  0.00    +0.000 S 
ATOM     30  C   UNL     1      44.693   6.454  12.140  0.00  0.00    +0.000 A 
ATOM     31  N   UNL     1      43.602   6.808  11.410  0.00  0.00    +0.000 NA
ATOM     32  C   UNL     1      42.655   5.926  11.405  0.00  0.00    +0.000 A 
ATOM     33  N   UNL     1      42.709   4.721  12.058  0.00  0.00    +0.000 N 
ATOM     34  C   UNL     1      43.811   4.304  12.767  0.00  0.00    +0.000 A 
ATOM     35  O   UNL     1      43.859   3.184  13.269  0.00  0.00    +0.000 OA
ATOM     36  C   UNL     1      44.890   5.271  12.831  0.00  0.00    +0.000 A 
ATOM     37  H   UNL     1      41.943   4.071  11.997  0.00  0.00    +0.000 HD
ENDBRANCH  24  27
ENDBRANCH  22  23
ENDBRANCH   4  22
TORSDOF 10
ENDMDL
