MODEL 1
REMARK VINA RESULT:    -8.505      0.000      0.000
REMARK INTER + INTRA:         -13.112
REMARK INTER:                 -11.986
REMARK INTRA:                  -1.127
REMARK UNBOUND:                -1.127
REMARK  Name = 
REMARK  7 active torsions:
REMARK  status: ('A' for Active; 'I' for Inactive)
REMARK    1  A    between atoms: C_2  and  C_20
REMARK    2  A    between atoms: N_3  and  C_4
REMARK    3  A    between atoms: C_4  and  C_5
REMARK    4  A    between atoms: C_8  and  C_9
REMARK    5  A    between atoms: C_9  and  N_10
REMARK    6  A    between atoms: N_10  and  C_11
REMARK    7  A    between atoms: C_11  and  C_12
REMARK                            x       y       z     vdW  Elec       q    Type
REMARK                         _______ _______ _______ _____ _____    ______ ____
ROOT
ATOM      1  C   UNL     1      46.616   7.976  12.767  0.00  0.00    +0.000 C 
ENDROOT
BRANCH   1   2
ATOM      2  C   UNL     1      45.586   7.031  12.124  0.00  0.00    +0.000 C 
ATOM      3  C   UNL     1      44.943   6.104  13.171  0.00  0.00    +0.000 C 
ATOM      4  C   UNL     1      43.995   5.083  12.540  0.00  0.00    +0.000 C 
ATOM      5  C   UNL     1      44.687   4.269  11.436  0.00  0.00    +0.000 C 
ATOM      6  C   UNL     1      45.293   5.215  10.386  0.00  0.00    +0.000 C 
ATOM      7  C   UNL     1      46.254   6.217  11.014  0.00  0.00    +0.000 C 
BRANCH   5   8
ATOM      8  C   UNL     1      43.713   3.266  10.786  0.00  0.00    +0.000 C 
BRANCH   8   9
ATOM      9  N   UNL     1      44.048   3.100   9.370  0.00  0.00    +0.000 NA
ATOM     10  H   UNL     1      44.620   3.888   9.062  0.00  0.00    +0.000 HD
BRANCH   9  11
ATOM     11  C   UNL     1      44.788   1.860   9.121  0.00  0.00    +0.000 C 
BRANCH  11  12
ATOM     12  C   UNL     1      45.858   2.037   8.066  0.00  0.00    +0.000 A 
ATOM     13  C   UNL     1      46.758   1.012   7.780  0.00  0.00    +0.000 A 
ATOM     14  N   UNL     1      47.742   1.128   6.855  0.00  0.00    +0.000 NA
ATOM     15  C   UNL     1      47.790   2.318   6.215  0.00  0.00    +0.000 A 
ATOM     16  C   UNL     1      46.899   3.342   6.487  0.00  0.00    +0.000 A 
ATOM     17  N   UNL     1      45.919   3.227   7.413  0.00  0.00    +0.000 NA
ENDBRANCH  11  12
ENDBRANCH   9  11
ENDBRANCH   8   9
ENDBRANCH   5   8
ENDBRANCH   1   2
BRANCH   1  20
ATOM     18  O   UNL     1      48.985   6.448  13.161  0.00  0.00    +0.000 OA
ATOM     19  C   UNL     1      48.292   6.750  14.126  0.00  0.00    +0.000 C 
ATOM     20  N   UNL     1      47.105   7.434  14.010  0.00  0.00    +0.000 N 
ATOM     21  H   UNL     1      46.720   7.858  14.845  0.00  0.00    +0.000 HD
BRANCH  19  22
ATOM     22  C   UNL     1      48.648   6.354  15.492  0.00  0.00    +0.000 A 
ATOM     23  C   UNL     1      49.470   7.161  16.268  0.00  0.00    +0.000 A 
ATOM     24  S   UNL     1      49.782   6.520  17.820  0.00  0.00    +0.000 S 
ATOM     25  C   UNL     1      48.802   5.159  17.519  0.00  0.00    +0.000 A 
ATOM     26  N   UNL     1      48.613   4.205  18.465  0.00  0.00    +0.000 NA
ATOM     27  C   UNL     1      47.823   3.245  18.109  0.00  0.00    +0.000 A 
ATOM     28  N   UNL     1      47.210   3.153  16.888  0.00  0.00    +0.000 N 
ATOM     29  C   UNL     1      47.411   4.067  15.886  0.00  0.00    +0.000 A 
ATOM     30  O   UNL     1      46.916   3.899  14.773  0.00  0.00    +0.000 OA
ATOM     31  C   UNL     1      48.266   5.182  16.244  0.00  0.00    +0.000 A 
ATOM     32  H   UNL     1      46.622   2.367  16.656  0.00  0.00    +0.000 HD
ENDBRANCH  19  22
ENDBRANCH   1  20
TORSDOF 7
ENDMDL
MODEL 2
REMARK VINA RESULT:    -7.891      1.440      1.689
REMARK INTER + INTRA:         -12.247
REMARK INTER:                 -11.359
REMARK INTRA:                  -0.888
REMARK UNBOUND:                -1.127
REMARK  Name = 
REMARK  7 active torsions:
REMARK  status: ('A' for Active; 'I' for Inactive)
REMARK    1  A    between atoms: C_2  and  C_20
REMARK    2  A    between atoms: N_3  and  C_4
REMARK    3  A    between atoms: C_4  and  C_5
REMARK    4  A    between atoms: C_8  and  C_9
REMARK    5  A    between atoms: C_9  and  N_10
REMARK    6  A    between atoms: N_10  and  C_11
REMARK    7  A    between atoms: C_11  and  C_12
REMARK                            x       y       z     vdW  Elec       q    Type
REMARK                         _______ _______ _______ _____ _____    ______ ____
ROOT
ATOM      1  C   UNL     1      47.877   6.820  13.496  0.00  0.00    +0.000 C 
ENDROOT
BRANCH   1   2
ATOM      2  C   UNL     1      46.546   6.290  12.936  0.00  0.00    +0.000 C 
ATOM      3  C   UNL     1      46.198   4.912  13.524  0.00  0.00    +0.000 C 
ATOM      4  C   UNL     1      44.933   4.316  12.902  0.00  0.00    +0.000 C 
ATOM      5  C   UNL     1      45.028   4.252  11.369  0.00  0.00    +0.000 C 
ATOM      6  C   UNL     1      45.344   5.647  10.804  0.00  0.00    +0.000 C 
ATOM      7  C   UNL     1      46.616   6.228  11.409  0.00  0.00    +0.000 C 
BRANCH   5   8
ATOM      8  C   UNL     1      43.737   3.680  10.752  0.00  0.00    +0.000 C 
BRANCH   8   9
ATOM      9  N   UNL     1      43.974   3.327   9.350  0.00  0.00    +0.000 NA
ATOM     10  H   UNL     1      44.524   4.062   8.904  0.00  0.00    +0.000 HD
BRANCH   9  11
ATOM     11  C   UNL     1      44.694   2.059   9.217  0.00  0.00    +0.000 C 
BRANCH  11  12
ATOM     12  C   UNL     1      45.851   2.158   8.247  0.00  0.00    +0.000 A 
ATOM     13  C   UNL     1      46.606   1.035   7.915  0.00  0.00    +0.000 A 
ATOM     14  N   UNL     1      47.660   1.078   7.063  0.00  0.00    +0.000 NA
ATOM     15  C   UNL     1      47.929   2.297   6.545  0.00  0.00    +0.000 A 
ATOM     16  C   UNL     1      47.183   3.418   6.863  0.00  0.00    +0.000 A 
ATOM     17  N   UNL     1      46.134   3.377   7.716  0.00  0.00    +0.000 NA
ENDBRANCH  11  12
ENDBRANCH   9  11
ENDBRANCH   8   9
ENDBRANCH   5   8
ENDBRANCH   1   2
BRANCH   1  20
ATOM     18  O   UNL     1      50.149   6.743  15.209  0.00  0.00    +0.000 OA
ATOM     19  C   UNL     1      49.025   6.803  15.695  0.00  0.00    +0.000 C 
ATOM     20  N   UNL     1      47.879   6.785  14.937  0.00  0.00    +0.000 N 
ATOM     21  H   UNL     1      47.017   7.082  15.377  0.00  0.00    +0.000 HD
BRANCH  19  22
ATOM     22  C   UNL     1      48.809   6.845  17.146  0.00  0.00    +0.000 A 
ATOM     23  C   UNL     1      48.531   8.048  17.782  0.00  0.00    +0.000 A 
ATOM     24  S   UNL     1      48.329   7.891  19.470  0.00  0.00    +0.000 S 
ATOM     25  C   UNL     1      48.573   6.206  19.403  0.00  0.00    +0.000 A 
ATOM     26  N   UNL     1      48.506   5.440  20.521  0.00  0.00    +0.000 NA
ATOM     27  C   UNL     1      48.683   4.176  20.316  0.00  0.00    +0.000 A 
ATOM     28  N   UNL     1      48.925   3.611  19.092  0.00  0.00    +0.000 N 
ATOM     29  C   UNL     1      49.050   4.352  17.945  0.00  0.00    +0.000 A 
ATOM     30  O   UNL     1      49.360   3.817  16.882  0.00  0.00    +0.000 OA
ATOM     31  C   UNL     1      48.829   5.774  18.114  0.00  0.00    +0.000 A 
ATOM     32  H   UNL     1      49.080   2.619  18.996  0.00  0.00    +0.000 HD
ENDBRANCH  19  22
ENDBRANCH   1  20
TORSDOF 7
ENDMDL
MODEL 3
REMARK VINA RESULT:    -7.435      2.131      2.725
REMARK INTER + INTRA:         -11.604
REMARK INTER:                 -10.682
REMARK INTRA:                  -0.922
REMARK UNBOUND:                -1.127
REMARK  Name = 
REMARK  7 active torsions:
REMARK  status: ('A' for Active; 'I' for Inactive)
REMARK    1  A    between atoms: C_2  and  C_20
REMARK    2  A    between atoms: N_3  and  C_4
REMARK    3  A    between atoms: C_4  and  C_5
REMARK    4  A    between atoms: C_8  and  C_9
REMARK    5  A    between atoms: C_9  and  N_10
REMARK    6  A    between atoms: N_10  and  C_11
REMARK    7  A    between atoms: C_11  and  C_12
REMARK                            x       y       z     vdW  Elec       q    Type
REMARK                         _______ _______ _______ _____ _____    ______ ____
ROOT
ATOM      1  C   UNL     1      47.922   7.300  13.819  0.00  0.00    +0.000 C 
ENDROOT
BRANCH   1   2
ATOM      2  C   UNL     1      46.959   6.600  12.845  0.00  0.00    +0.000 C 
ATOM      3  C   UNL     1      45.767   7.505  12.486  0.00  0.00    +0.000 C 
ATOM      4  C   UNL     1      44.740   6.793  11.603  0.00  0.00    +0.000 C 
ATOM      5  C   UNL     1      44.261   5.477  12.236  0.00  0.00    +0.000 C 
ATOM      6  C   UNL     1      45.466   4.577  12.556  0.00  0.00    +0.000 C 
ATOM      7  C   UNL     1      46.477   5.282  13.452  0.00  0.00    +0.000 C 
BRANCH   5   8
ATOM      8  C   UNL     1      43.251   4.753  11.323  0.00  0.00    +0.000 C 
BRANCH   8   9
ATOM      9  N   UNL     1      43.939   3.714  10.552  0.00  0.00    +0.000 NA
ATOM     10  H   UNL     1      43.377   2.862  10.555  0.00  0.00    +0.000 HD
BRANCH   9  11
ATOM     11  C   UNL     1      44.165   4.120   9.163  0.00  0.00    +0.000 C 
BRANCH  11  12
ATOM     12  C   UNL     1      45.222   3.275   8.487  0.00  0.00    +0.000 A 
ATOM     13  C   UNL     1      45.372   1.926   8.805  0.00  0.00    +0.000 A 
ATOM     14  N   UNL     1      46.313   1.132   8.237  0.00  0.00    +0.000 NA
ATOM     15  C   UNL     1      47.103   1.742   7.325  0.00  0.00    +0.000 A 
ATOM     16  C   UNL     1      46.960   3.079   6.997  0.00  0.00    +0.000 A 
ATOM     17  N   UNL     1      46.023   3.872   7.566  0.00  0.00    +0.000 NA
ENDBRANCH  11  12
ENDBRANCH   9  11
ENDBRANCH   8   9
ENDBRANCH   5   8
ENDBRANCH   1   2
BRANCH   1  20
ATOM     18  O   UNL     1      50.163   6.611  15.433  0.00  0.00    +0.000 OA
ATOM     19  C   UNL     1      49.029   6.411  15.854  0.00  0.00    +0.000 C 
ATOM     20  N   UNL     1      47.900   6.662  15.111  0.00  0.00    +0.000 N 
ATOM     21  H   UNL     1      47.014   6.707  15.599  0.00  0.00    +0.000 HD
BRANCH  19  22
ATOM     22  C   UNL     1      48.784   5.829  17.178  0.00  0.00    +0.000 A 
ATOM     23  C   UNL     1      49.020   4.480  17.409  0.00  0.00    +0.000 A 
ATOM     24  S   UNL     1      48.660   3.992  19.005  0.00  0.00    +0.000 S 
ATOM     25  C   UNL     1      48.209   5.574  19.451  0.00  0.00    +0.000 A 
ATOM     26  N   UNL     1      47.812   5.863  20.715  0.00  0.00    +0.000 NA
ATOM     27  C   UNL     1      47.527   7.108  20.917  0.00  0.00    +0.000 A 
ATOM     28  N   UNL     1      47.602   8.088  19.964  0.00  0.00    +0.000 N 
ATOM     29  C   UNL     1      47.950   7.833  18.662  0.00  0.00    +0.000 A 
ATOM     30  O   UNL     1      47.913   8.724  17.815  0.00  0.00    +0.000 OA
ATOM     31  C   UNL     1      48.309   6.455  18.389  0.00  0.00    +0.000 A 
ATOM     32  H   UNL     1      47.343   9.041  20.172  0.00  0.00    +0.000 HD
ENDBRANCH  19  22
ENDBRANCH   1  20
TORSDOF 7
ENDMDL
MODEL 4
REMARK VINA RESULT:    -7.382      2.223      3.435
REMARK INTER + INTRA:         -11.530
REMARK INTER:                 -10.439
REMARK INTRA:                  -1.091
REMARK UNBOUND:                -1.127
REMARK  Name = 
REMARK  7 active torsions:
REMARK  status: ('A' for Active; 'I' for Inactive)
REMARK    1  A    between atoms: C_2  and  C_20
REMARK    2  A    between atoms: N_3  and  C_4
REMARK    3  A    between atoms: C_4  and  C_5
REMARK    4  A    between atoms: C_8  and  C_9
REMARK    5  A    between atoms: C_9  and  N_10
REMARK    6  A    between atoms: N_10  and  C_11
REMARK    7  A    between atoms: C_11  and  C_12
REMARK                            x       y       z     vdW  Elec       q    Type
REMARK                         _______ _______ _______ _____ _____    ______ ____
ROOT
ATOM      1  C   UNL     1      47.465   4.246  14.851  0.00  0.00    +0.000 C 
ENDROOT
BRANCH   1   2
ATOM      2  C   UNL     1      46.216   4.430  13.973  0.00  0.00    +0.000 C 
ATOM      3  C   UNL     1      46.023   3.243  13.014  0.00  0.00    +0.000 C 
ATOM      4  C   UNL     1      44.849   3.452  12.056  0.00  0.00    +0.000 C 
ATOM      5  C   UNL     1      44.977   4.772  11.278  0.00  0.00    +0.000 C 
ATOM      6  C   UNL     1      45.136   5.946  12.258  0.00  0.00    +0.000 C 
ATOM      7  C   UNL     1      46.319   5.744  13.197  0.00  0.00    +0.000 C 
BRANCH   5   8
ATOM      8  C   UNL     1      43.773   4.988  10.340  0.00  0.00    +0.000 C 
BRANCH   8   9
ATOM      9  N   UNL     1      44.020   4.323   9.059  0.00  0.00    +0.000 NA
ATOM     10  H   UNL     1      43.384   4.699   8.354  0.00  0.00    +0.000 HD
BRANCH   9  11
ATOM     11  C   UNL     1      45.397   4.517   8.595  0.00  0.00    +0.000 C 
BRANCH  11  12
ATOM     12  C   UNL     1      46.023   3.228   8.112  0.00  0.00    +0.000 A 
ATOM     13  C   UNL     1      45.614   1.997   8.623  0.00  0.00    +0.000 A 
ATOM     14  N   UNL     1      46.154   0.817   8.232  0.00  0.00    +0.000 NA
ATOM     15  C   UNL     1      47.126   0.914   7.297  0.00  0.00    +0.000 A 
ATOM     16  C   UNL     1      47.537   2.129   6.778  0.00  0.00    +0.000 A 
ATOM     17  N   UNL     1      47.000   3.307   7.170  0.00  0.00    +0.000 NA
ENDBRANCH  11  12
ENDBRANCH   9  11
ENDBRANCH   8   9
ENDBRANCH   5   8
ENDBRANCH   1   2
BRANCH   1  20
ATOM     18  O   UNL     1      49.620   4.747  16.642  0.00  0.00    +0.000 OA
ATOM     19  C   UNL     1      48.629   5.469  16.670  0.00  0.00    +0.000 C 
ATOM     20  N   UNL     1      47.525   5.255  15.879  0.00  0.00    +0.000 N 
ATOM     21  H   UNL     1      46.863   6.014  15.776  0.00  0.00    +0.000 HD
BRANCH  19  22
ATOM     22  C   UNL     1      48.517   6.598  17.599  0.00  0.00    +0.000 A 
ATOM     23  C   UNL     1      48.522   6.385  18.971  0.00  0.00    +0.000 A 
ATOM     24  S   UNL     1      48.366   7.821  19.882  0.00  0.00    +0.000 S 
ATOM     25  C   UNL     1      48.321   8.779  18.473  0.00  0.00    +0.000 A 
ATOM     26  N   UNL     1      48.222  10.131  18.545  0.00  0.00    +0.000 NA
ATOM     27  C   UNL     1      48.227  10.730  17.399  0.00  0.00    +0.000 A 
ATOM     28  N   UNL     1      48.319  10.096  16.189  0.00  0.00    +0.000 N 
ATOM     29  C   UNL     1      48.371   8.731  16.068  0.00  0.00    +0.000 A 
ATOM     30  O   UNL     1      48.358   8.197  14.960  0.00  0.00    +0.000 OA
ATOM     31  C   UNL     1      48.399   8.011  17.326  0.00  0.00    +0.000 A 
ATOM     32  H   UNL     1      48.294  10.615  15.324  0.00  0.00    +0.000 HD
ENDBRANCH  19  22
ENDBRANCH   1  20
TORSDOF 7
ENDMDL
MODEL 5
REMARK VINA RESULT:    -7.266      2.299      3.957
REMARK INTER + INTRA:         -11.366
REMARK INTER:                 -10.244
REMARK INTRA:                  -1.122
REMARK UNBOUND:                -1.127
REMARK  Name = 
REMARK  7 active torsions:
REMARK  status: ('A' for Active; 'I' for Inactive)
REMARK    1  A    between atoms: C_2  and  C_20
REMARK    2  A    between atoms: N_3  and  C_4
REMARK    3  A    between atoms: C_4  and  C_5
REMARK    4  A    between atoms: C_8  and  C_9
REMARK    5  A    between atoms: C_9  and  N_10
REMARK    6  A    between atoms: N_10  and  C_11
REMARK    7  A    between atoms: C_11  and  C_12
REMARK                            x       y       z     vdW  Elec       q    Type
REMARK                         _______ _______ _______ _____ _____    ______ ____
ROOT
ATOM      1  C   UNL     1      47.321   4.818  14.795  0.00  0.00    +0.000 C 
ENDROOT
BRANCH   1   2
ATOM      2  C   UNL     1      46.056   4.746  13.924  0.00  0.00    +0.000 C 
ATOM      3  C   UNL     1      46.080   3.517  12.998  0.00  0.00    +0.000 C 
ATOM      4  C   UNL     1      44.883   3.482  12.045  0.00  0.00    +0.000 C 
ATOM      5  C   UNL     1      44.764   4.780  11.232  0.00  0.00    +0.000 C 
ATOM      6  C   UNL     1      44.709   5.991  12.179  0.00  0.00    +0.000 C 
ATOM      7  C   UNL     1      45.913   6.035  13.112  0.00  0.00    +0.000 C 
BRANCH   5   8
ATOM      8  C   UNL     1      43.537   4.746  10.300  0.00  0.00    +0.000 C 
BRANCH   8   9
ATOM      9  N   UNL     1      43.956   4.374   8.946  0.00  0.00    +0.000 NA
ATOM     10  H   UNL     1      43.471   4.963   8.267  0.00  0.00    +0.000 HD
BRANCH   9  11
ATOM     11  C   UNL     1      45.399   4.533   8.754  0.00  0.00    +0.000 C 
BRANCH  11  12
ATOM     12  C   UNL     1      46.041   3.282   8.195  0.00  0.00    +0.000 A 
ATOM     13  C   UNL     1      45.656   2.018   8.641  0.00  0.00    +0.000 A 
ATOM     14  N   UNL     1      46.211   0.871   8.181  0.00  0.00    +0.000 NA
ATOM     15  C   UNL     1      47.172   1.034   7.244  0.00  0.00    +0.000 A 
ATOM     16  C   UNL     1      47.560   2.283   6.790  0.00  0.00    +0.000 A 
ATOM     17  N   UNL     1      47.008   3.429   7.251  0.00  0.00    +0.000 NA
ENDBRANCH  11  12
ENDBRANCH   9  11
ENDBRANCH   8   9
ENDBRANCH   5   8
ENDBRANCH   1   2
BRANCH   1  20
ATOM     18  O   UNL     1      49.488   5.802  16.357  0.00  0.00    +0.000 OA
ATOM     19  C   UNL     1      49.006   6.507  15.477  0.00  0.00    +0.000 C 
ATOM     20  N   UNL     1      47.922   6.126  14.722  0.00  0.00    +0.000 N 
ATOM     21  H   UNL     1      47.738   6.638  13.868  0.00  0.00    +0.000 HD
BRANCH  19  22
ATOM     22  C   UNL     1      49.517   7.852  15.193  0.00  0.00    +0.000 A 
ATOM     23  C   UNL     1      49.783   8.738  16.230  0.00  0.00    +0.000 A 
ATOM     24  S   UNL     1      50.355  10.255  15.696  0.00  0.00    +0.000 S 
ATOM     25  C   UNL     1      50.300   9.768  14.063  0.00  0.00    +0.000 A 
ATOM     26  N   UNL     1      50.690  10.602  13.067  0.00  0.00    +0.000 NA
ATOM     27  C   UNL     1      50.621  10.089  11.881  0.00  0.00    +0.000 A 
ATOM     28  N   UNL     1      50.193   8.819  11.606  0.00  0.00    +0.000 N 
ATOM     29  C   UNL     1      49.743   7.960  12.576  0.00  0.00    +0.000 A 
ATOM     30  O   UNL     1      49.278   6.862  12.277  0.00  0.00    +0.000 OA
ATOM     31  C   UNL     1      49.828   8.475  13.928  0.00  0.00    +0.000 A 
ATOM     32  H   UNL     1      50.137   8.481  10.657  0.00  0.00    +0.000 HD
ENDBRANCH  19  22
ENDBRANCH   1  20
TORSDOF 7
ENDMDL
MODEL 6
REMARK VINA RESULT:    -7.251      1.439      1.826
REMARK INTER + INTRA:         -11.344
REMARK INTER:                 -10.164
REMARK INTRA:                  -1.180
REMARK UNBOUND:                -1.127
REMARK  Name = 
REMARK  7 active torsions:
REMARK  status: ('A' for Active; 'I' for Inactive)
REMARK    1  A    between atoms: C_2  and  C_20
REMARK    2  A    between atoms: N_3  and  C_4
REMARK    3  A    between atoms: C_4  and  C_5
REMARK    4  A    between atoms: C_8  and  C_9
REMARK    5  A    between atoms: C_9  and  N_10
REMARK    6  A    between atoms: N_10  and  C_11
REMARK    7  A    between atoms: C_11  and  C_12
REMARK                            x       y       z     vdW  Elec       q    Type
REMARK                         _______ _______ _______ _____ _____    ______ ____
ROOT
ATOM      1  C   UNL     1      48.581   8.769  13.156  0.00  0.00    +0.000 C 
ENDROOT
BRANCH   1   2
ATOM      2  C   UNL     1      47.406   8.228  12.322  0.00  0.00    +0.000 C 
ATOM      3  C   UNL     1      46.075   8.344  13.085  0.00  0.00    +0.000 C 
ATOM      4  C   UNL     1      44.909   7.715  12.321  0.00  0.00    +0.000 C 
ATOM      5  C   UNL     1      45.199   6.254  11.940  0.00  0.00    +0.000 C 
ATOM      6  C   UNL     1      46.516   6.168  11.152  0.00  0.00    +0.000 C 
ATOM      7  C   UNL     1      47.680   6.776  11.925  0.00  0.00    +0.000 C 
BRANCH   5   8
ATOM      8  C   UNL     1      44.031   5.641  11.143  0.00  0.00    +0.000 C 
BRANCH   8   9
ATOM      9  N   UNL     1      44.430   4.338  10.605  0.00  0.00    +0.000 NA
ATOM     10  H   UNL     1      43.889   3.602  11.061  0.00  0.00    +0.000 HD
BRANCH   9  11
ATOM     11  C   UNL     1      44.213   4.250   9.159  0.00  0.00    +0.000 C 
BRANCH  11  12
ATOM     12  C   UNL     1      45.239   3.369   8.481  0.00  0.00    +0.000 A 
ATOM     13  C   UNL     1      45.380   2.029   8.837  0.00  0.00    +0.000 A 
ATOM     14  N   UNL     1      46.293   1.205   8.268  0.00  0.00    +0.000 NA
ATOM     15  C   UNL     1      47.065   1.775   7.315  0.00  0.00    +0.000 A 
ATOM     16  C   UNL     1      46.930   3.103   6.949  0.00  0.00    +0.000 A 
ATOM     17  N   UNL     1      46.021   3.926   7.518  0.00  0.00    +0.000 NA
ENDBRANCH  11  12
ENDBRANCH   9  11
ENDBRANCH   8   9
ENDBRANCH   5   8
ENDBRANCH   1   2
BRANCH   1  20
ATOM     18  O   UNL     1      48.225   8.986  15.971  0.00  0.00    +0.000 OA
ATOM     19  C   UNL     1      48.724   7.969  15.500  0.00  0.00    +0.000 C 
ATOM     20  N   UNL     1      48.982   7.815  14.159  0.00  0.00    +0.000 N 
ATOM     21  H   UNL     1      49.159   6.879  13.816  0.00  0.00    +0.000 HD
BRANCH  19  22
ATOM     22  C   UNL     1      49.143   6.847  16.346  0.00  0.00    +0.000 A 
ATOM     23  C   UNL     1      50.155   7.009  17.283  0.00  0.00    +0.000 A 
ATOM     24  S   UNL     1      50.507   5.584  18.156  0.00  0.00    +0.000 S 
ATOM     25  C   UNL     1      49.295   4.711  17.334  0.00  0.00    +0.000 A 
ATOM     26  N   UNL     1      49.047   3.409  17.624  0.00  0.00    +0.000 NA
ATOM     27  C   UNL     1      48.082   2.883  16.943  0.00  0.00    +0.000 A 
ATOM     28  N   UNL     1      47.347   3.543  15.995  0.00  0.00    +0.000 N 
ATOM     29  C   UNL     1      47.596   4.842  15.635  0.00  0.00    +0.000 A 
ATOM     30  O   UNL     1      46.976   5.369  14.713  0.00  0.00    +0.000 OA
ATOM     31  C   UNL     1      48.650   5.490  16.391  0.00  0.00    +0.000 A 
ATOM     32  H   UNL     1      46.621   3.072  15.477  0.00  0.00    +0.000 HD
ENDBRANCH  19  22
ENDBRANCH   1  20
TORSDOF 7
ENDMDL
MODEL 7
REMARK VINA RESULT:    -7.005      2.671      8.115
REMARK INTER + INTRA:         -10.998
REMARK INTER:                  -9.587
REMARK INTRA:                  -1.411
REMARK UNBOUND:                -1.127
REMARK  Name = 
REMARK  7 active torsions:
REMARK  status: ('A' for Active; 'I' for Inactive)
REMARK    1  A    between atoms: C_2  and  C_20
REMARK    2  A    between atoms: N_3  and  C_4
REMARK    3  A    between atoms: C_4  and  C_5
REMARK    4  A    between atoms: C_8  and  C_9
REMARK    5  A    between atoms: C_9  and  N_10
REMARK    6  A    between atoms: N_10  and  C_11
REMARK    7  A    between atoms: C_11  and  C_12
REMARK                            x       y       z     vdW  Elec       q    Type
REMARK                         _______ _______ _______ _____ _____    ______ ____
ROOT
ATOM      1  C   UNL     1      47.970   7.879  11.743  0.00  0.00    +0.000 C 
ENDROOT
BRANCH   1   2
ATOM      2  C   UNL     1      48.632   8.063  13.119  0.00  0.00    +0.000 C 
ATOM      3  C   UNL     1      48.857   6.712  13.820  0.00  0.00    +0.000 C 
ATOM      4  C   UNL     1      49.415   6.876  15.235  0.00  0.00    +0.000 C 
ATOM      5  C   UNL     1      48.535   7.800  16.091  0.00  0.00    +0.000 C 
ATOM      6  C   UNL     1      48.352   9.154  15.386  0.00  0.00    +0.000 C 
ATOM      7  C   UNL     1      47.776   8.989  13.985  0.00  0.00    +0.000 C 
BRANCH   5   8
ATOM      8  C   UNL     1      49.124   7.983  17.504  0.00  0.00    +0.000 C 
BRANCH   8   9
ATOM      9  N   UNL     1      48.227   7.383  18.494  0.00  0.00    +0.000 NA
ATOM     10  H   UNL     1      47.348   7.126  18.044  0.00  0.00    +0.000 HD
BRANCH   9  11
ATOM     11  C   UNL     1      48.806   6.184  19.106  0.00  0.00    +0.000 C 
BRANCH  11  12
ATOM     12  C   UNL     1      48.492   4.933  18.316  0.00  0.00    +0.000 A 
ATOM     13  C   UNL     1      47.204   4.689  17.842  0.00  0.00    +0.000 A 
ATOM     14  N   UNL     1      46.871   3.577  17.143  0.00  0.00    +0.000 NA
ATOM     15  C   UNL     1      47.886   2.711  16.927  0.00  0.00    +0.000 A 
ATOM     16  C   UNL     1      49.170   2.944  17.387  0.00  0.00    +0.000 A 
ATOM     17  N   UNL     1      49.502   4.052  18.088  0.00  0.00    +0.000 NA
ENDBRANCH  11  12
ENDBRANCH   9  11
ENDBRANCH   8   9
ENDBRANCH   5   8
ENDBRANCH   1   2
BRANCH   1  20
ATOM     18  O   UNL     1      45.126   7.829  11.838  0.00  0.00    +0.000 OA
ATOM     19  C   UNL     1      45.747   6.777  11.726  0.00  0.00    +0.000 C 
ATOM     20  N   UNL     1      47.120   6.715  11.732  0.00  0.00    +0.000 N 
ATOM     21  H   UNL     1      47.556   5.866  11.394  0.00  0.00    +0.000 HD
BRANCH  19  22
ATOM     22  C   UNL     1      45.067   5.481  11.632  0.00  0.00    +0.000 A 
ATOM     23  C   UNL     1      44.358   4.977  12.714  0.00  0.00    +0.000 A 
ATOM     24  S   UNL     1      43.654   3.451  12.413  0.00  0.00    +0.000 S 
ATOM     25  C   UNL     1      44.244   3.428  10.814  0.00  0.00    +0.000 A 
ATOM     26  N   UNL     1      43.975   2.393   9.979  0.00  0.00    +0.000 NA
ATOM     27  C   UNL     1      44.463   2.524   8.788  0.00  0.00    +0.000 A 
ATOM     28  N   UNL     1      45.199   3.597   8.361  0.00  0.00    +0.000 N 
ATOM     29  C   UNL     1      45.537   4.640   9.185  0.00  0.00    +0.000 A 
ATOM     30  O   UNL     1      46.279   5.538   8.790  0.00  0.00    +0.000 OA
ATOM     31  C   UNL     1      44.988   4.558  10.524  0.00  0.00    +0.000 A 
ATOM     32  H   UNL     1      45.576   3.633   7.427  0.00  0.00    +0.000 HD
ENDBRANCH  19  22
ENDBRANCH   1  20
TORSDOF 7
ENDMDL
MODEL 8
REMARK VINA RESULT:    -6.532      3.046      4.503
REMARK INTER + INTRA:         -10.331
REMARK INTER:                  -9.265
REMARK INTRA:                  -1.067
REMARK UNBOUND:                -1.127
REMARK  Name = 
REMARK  7 active torsions:
REMARK  status: ('A' for Active; 'I' for Inactive)
REMARK    1  A    between atoms: C_2  and  C_20
REMARK    2  A    between atoms: N_3  and  C_4
REMARK    3  A    between atoms: C_4  and  C_5
REMARK    4  A    between atoms: C_8  and  C_9
REMARK    5  A    between atoms: C_9  and  N_10
REMARK    6  A    between atoms: N_10  and  C_11
REMARK    7  A    between atoms: C_11  and  C_12
REMARK                            x       y       z     vdW  Elec       q    Type
REMARK                         _______ _______ _______ _____ _____    ______ ____
ROOT
ATOM      1  C   UNL     1      47.841   6.004  14.540  0.00  0.00    +0.000 C 
ENDROOT
BRANCH   1   2
ATOM      2  C   UNL     1      47.072   5.563  13.283  0.00  0.00    +0.000 C 
ATOM      3  C   UNL     1      46.418   6.762  12.575  0.00  0.00    +0.000 C 
ATOM      4  C   UNL     1      45.559   6.336  11.382  0.00  0.00    +0.000 C 
ATOM      5  C   UNL     1      44.505   5.293  11.784  0.00  0.00    +0.000 C 
ATOM      6  C   UNL     1      45.185   4.091  12.460  0.00  0.00    +0.000 C 
ATOM      7  C   UNL     1      46.023   4.516  13.660  0.00  0.00    +0.000 C 
BRANCH   5   8
ATOM      8  C   UNL     1      43.666   4.848  10.569  0.00  0.00    +0.000 C 
BRANCH   8   9
ATOM      9  N   UNL     1      44.555   4.468   9.469  0.00  0.00    +0.000 NA
ATOM     10  H   UNL     1      45.520   4.690   9.720  0.00  0.00    +0.000 HD
BRANCH   9  11
ATOM     11  C   UNL     1      44.470   3.037   9.163  0.00  0.00    +0.000 C 
BRANCH  11  12
ATOM     12  C   UNL     1      45.635   2.564   8.322  0.00  0.00    +0.000 A 
ATOM     13  C   UNL     1      46.329   3.447   7.495  0.00  0.00    +0.000 A 
ATOM     14  N   UNL     1      47.369   3.067   6.714  0.00  0.00    +0.000 NA
ATOM     15  C   UNL     1      47.698   1.759   6.794  0.00  0.00    +0.000 A 
ATOM     16  C   UNL     1      47.021   0.873   7.615  0.00  0.00    +0.000 A 
ATOM     17  N   UNL     1      45.981   1.251   8.393  0.00  0.00    +0.000 NA
ENDBRANCH  11  12
ENDBRANCH   9  11
ENDBRANCH   8   9
ENDBRANCH   5   8
ENDBRANCH   1   2
BRANCH   1  20
ATOM     18  O   UNL     1      48.397   8.759  14.986  0.00  0.00    +0.000 OA
ATOM     19  C   UNL     1      49.256   8.041  14.485  0.00  0.00    +0.000 C 
ATOM     20  N   UNL     1      49.042   6.717  14.185  0.00  0.00    +0.000 N 
ATOM     21  H   UNL     1      49.852   6.136  14.009  0.00  0.00    +0.000 HD
BRANCH  19  22
ATOM     22  C   UNL     1      50.576   8.557  14.110  0.00  0.00    +0.000 A 
ATOM     23  C   UNL     1      51.400   9.143  15.062  0.00  0.00    +0.000 A 
ATOM     24  S   UNL     1      52.886   9.695  14.427  0.00  0.00    +0.000 S 
ATOM     25  C   UNL     1      52.493   9.139  12.865  0.00  0.00    +0.000 A 
ATOM     26  N   UNL     1      53.360   9.276  11.830  0.00  0.00    +0.000 NA
ATOM     27  C   UNL     1      52.940   8.782  10.711  0.00  0.00    +0.000 A 
ATOM     28  N   UNL     1      51.729   8.168  10.535  0.00  0.00    +0.000 N 
ATOM     29  C   UNL     1      50.803   8.053  11.539  0.00  0.00    +0.000 A 
ATOM     30  O   UNL     1      49.690   7.579  11.317  0.00  0.00    +0.000 OA
ATOM     31  C   UNL     1      51.236   8.563  12.825  0.00  0.00    +0.000 A 
ATOM     32  H   UNL     1      51.445   7.824   9.630  0.00  0.00    +0.000 HD
ENDBRANCH  19  22
ENDBRANCH   1  20
TORSDOF 7
ENDMDL
MODEL 9
REMARK VINA RESULT:    -6.407      2.071      2.941
REMARK INTER + INTRA:         -10.155
REMARK INTER:                  -9.183
REMARK INTRA:                  -0.973
REMARK UNBOUND:                -1.127
REMARK  Name = 
REMARK  7 active torsions:
REMARK  status: ('A' for Active; 'I' for Inactive)
REMARK    1  A    between atoms: C_2  and  C_20
REMARK    2  A    between atoms: N_3  and  C_4
REMARK    3  A    between atoms: C_4  and  C_5
REMARK    4  A    between atoms: C_8  and  C_9
REMARK    5  A    between atoms: C_9  and  N_10
REMARK    6  A    between atoms: N_10  and  C_11
REMARK    7  A    between atoms: C_11  and  C_12
REMARK                            x       y       z     vdW  Elec       q    Type
REMARK                         _______ _______ _______ _____ _____    ______ ____
ROOT
ATOM      1  C   UNL     1      49.603   8.171  14.006  0.00  0.00    +0.000 C 
ENDROOT
BRANCH   1   2
ATOM      2  C   UNL     1      48.380   8.061  13.079  0.00  0.00    +0.000 C 
ATOM      3  C   UNL     1      47.099   8.547  13.779  0.00  0.00    +0.000 C 
ATOM      4  C   UNL     1      45.851   8.347  12.916  0.00  0.00    +0.000 C 
ATOM      5  C   UNL     1      45.706   6.889  12.454  0.00  0.00    +0.000 C 
ATOM      6  C   UNL     1      46.985   6.436  11.731  0.00  0.00    +0.000 C 
ATOM      7  C   UNL     1      48.222   6.616  12.601  0.00  0.00    +0.000 C 
BRANCH   5   8
ATOM      8  C   UNL     1      44.464   6.706  11.560  0.00  0.00    +0.000 C 
BRANCH   8   9
ATOM      9  N   UNL     1      44.855   6.079  10.295  0.00  0.00    +0.000 NA
ATOM     10  H   UNL     1      45.864   5.922  10.292  0.00  0.00    +0.000 HD
BRANCH   9  11
ATOM     11  C   UNL     1      44.182   4.794  10.086  0.00  0.00    +0.000 C 
BRANCH  11  12
ATOM     12  C   UNL     1      44.984   3.867   9.200  0.00  0.00    +0.000 A 
ATOM     13  C   UNL     1      45.049   2.500   9.465  0.00  0.00    +0.000 A 
ATOM     14  N   UNL     1      45.765   1.633   8.709  0.00  0.00    +0.000 NA
ATOM     15  C   UNL     1      46.417   2.188   7.663  0.00  0.00    +0.000 A 
ATOM     16  C   UNL     1      46.357   3.543   7.386  0.00  0.00    +0.000 A 
ATOM     17  N   UNL     1      45.645   4.409   8.143  0.00  0.00    +0.000 NA
ENDBRANCH  11  12
ENDBRANCH   9  11
ENDBRANCH   8   9
ENDBRANCH   5   8
ENDBRANCH   1   2
BRANCH   1  20
ATOM     18  O   UNL     1      50.733   9.192  16.410  0.00  0.00    +0.000 OA
ATOM     19  C   UNL     1      49.818   8.378  16.469  0.00  0.00    +0.000 C 
ATOM     20  N   UNL     1      49.261   7.796  15.355  0.00  0.00    +0.000 N 
ATOM     21  H   UNL     1      48.367   7.334  15.460  0.00  0.00    +0.000 HD
BRANCH  19  22
ATOM     22  C   UNL     1      49.275   7.912  17.749  0.00  0.00    +0.000 A 
ATOM     23  C   UNL     1      48.716   8.813  18.647  0.00  0.00    +0.000 A 
ATOM     24  S   UNL     1      48.156   8.080  20.084  0.00  0.00    +0.000 S 
ATOM     25  C   UNL     1      48.611   6.530  19.540  0.00  0.00    +0.000 A 
ATOM     26  N   UNL     1      48.385   5.425  20.295  0.00  0.00    +0.000 NA
ATOM     27  C   UNL     1      48.755   4.315  19.745  0.00  0.00    +0.000 A 
ATOM     28  N   UNL     1      49.335   4.214  18.509  0.00  0.00    +0.000 N 
ATOM     29  C   UNL     1      49.627   5.306  17.734  0.00  0.00    +0.000 A 
ATOM     30  O   UNL     1      50.233   5.180  16.671  0.00  0.00    +0.000 OA
ATOM     31  C   UNL     1      49.203   6.576  18.291  0.00  0.00    +0.000 A 
ATOM     32  H   UNL     1      49.627   3.321  18.141  0.00  0.00    +0.000 HD
ENDBRANCH  19  22
ENDBRANCH   1  20
TORSDOF 7
ENDMDL
