MODEL 1
REMARK VINA RESULT:    -7.836      0.000      0.000
REMARK INTER + INTRA:          -9.568
REMARK INTER:                  -9.211
REMARK INTRA:                  -0.357
REMARK UNBOUND:                -0.357
REMARK  Name = 
REMARK  3 active torsions:
REMARK  status: ('A' for Active; 'I' for Inactive)
REMARK    1  A    between atoms: C_3  and  C_4
REMARK    2  A    between atoms: C_4  and  N_5
REMARK    3  A    between atoms: N_5  and  C_6
REMARK                            x       y       z     vdW  Elec       q    Type
REMARK                         _______ _______ _______ _____ _____    ______ ____
ROOT
ATOM      1  C   UNL     1      43.298   4.049  12.922  0.00  0.00    +0.000 A 
ATOM      2  C   UNL     1      43.382   3.281  11.768  0.00  0.00    +0.000 A 
ATOM      3  C   UNL     1      44.230   3.706  10.752  0.00  0.00    +0.000 A 
ATOM      4  N   UNL     1      44.996   4.824  10.863  0.00  0.00    +0.000 NA
ATOM      5  C   UNL     1      44.933   5.558  11.991  0.00  0.00    +0.000 A 
ATOM      6  N   UNL     1      45.814   6.626  12.179  0.00  0.00    +0.000 N 
ATOM      7  C   UNL     1      46.993   6.607  11.309  0.00  0.00    +0.000 C 
ATOM      8  C   UNL     1      48.068   7.462  11.982  0.00  0.00    +0.000 C 
ATOM      9  C   UNL     1      47.563   8.879  12.263  0.00  0.00    +0.000 C 
ATOM     10  C   UNL     1      46.209   8.876  12.979  0.00  0.00    +0.000 C 
ATOM     11  C   UNL     1      45.200   7.949  12.296  0.00  0.00    +0.000 C 
ATOM     12  C   UNL     1      44.073   5.200  13.029  0.00  0.00    +0.000 A 
ENDROOT
BRANCH   3  13
ATOM     13  C   UNL     1      44.341   2.928   9.457  0.00  0.00    +0.000 C 
BRANCH  13  14
ATOM     14  N   UNL     1      45.199   3.617   8.488  0.00  0.00    +0.000 N 
ATOM     15  H   UNL     1      45.616   4.467   8.857  0.00  0.00    +0.000 HD
BRANCH  14  16
ATOM     16  C   UNL     1      46.053   2.873   7.670  0.00  0.00    +0.000 A 
ATOM     17  C   UNL     1      46.711   3.403   6.560  0.00  0.00    +0.000 A 
ATOM     18  C   UNL     1      47.600   2.608   5.849  0.00  0.00    +0.000 A 
ATOM     19  N   UNL     1      47.892   1.333   6.170  0.00  0.00    +0.000 NA
ATOM     20  C   UNL     1      47.286   0.847   7.270  0.00  0.00    +0.000 A 
ATOM     21  C   UNL     1      46.388   1.569   8.045  0.00  0.00    +0.000 A 
ENDBRANCH  14  16
ENDBRANCH  13  14
ENDBRANCH   3  13
TORSDOF 3
ENDMDL
MODEL 2
REMARK VINA RESULT:    -7.811      0.184      1.058
REMARK INTER + INTRA:          -9.538
REMARK INTER:                  -9.184
REMARK INTRA:                  -0.354
REMARK UNBOUND:                -0.357
REMARK  Name = 
REMARK  3 active torsions:
REMARK  status: ('A' for Active; 'I' for Inactive)
REMARK    1  A    between atoms: C_3  and  C_4
REMARK    2  A    between atoms: C_4  and  N_5
REMARK    3  A    between atoms: N_5  and  C_6
REMARK                            x       y       z     vdW  Elec       q    Type
REMARK                         _______ _______ _______ _____ _____    ______ ____
ROOT
ATOM      1  C   UNL     1      43.316   4.233  13.065  0.00  0.00    +0.000 A 
ATOM      2  C   UNL     1      43.354   3.417  11.942  0.00  0.00    +0.000 A 
ATOM      3  C   UNL     1      44.190   3.778  10.892  0.00  0.00    +0.000 A 
ATOM      4  N   UNL     1      44.987   4.879  10.939  0.00  0.00    +0.000 NA
ATOM      5  C   UNL     1      44.968   5.659  12.037  0.00  0.00    +0.000 A 
ATOM      6  N   UNL     1      45.879   6.710  12.162  0.00  0.00    +0.000 N 
ATOM      7  C   UNL     1      47.038   6.626  11.269  0.00  0.00    +0.000 C 
ATOM      8  C   UNL     1      48.148   7.478  11.883  0.00  0.00    +0.000 C 
ATOM      9  C   UNL     1      47.687   8.919  12.116  0.00  0.00    +0.000 C 
ATOM     10  C   UNL     1      46.350   8.980  12.861  0.00  0.00    +0.000 C 
ATOM     11  C   UNL     1      45.302   8.053  12.238  0.00  0.00    +0.000 C 
ATOM     12  C   UNL     1      44.123   5.366  13.108  0.00  0.00    +0.000 A 
ENDROOT
BRANCH   3  13
ATOM     13  C   UNL     1      44.252   2.945   9.627  0.00  0.00    +0.000 C 
BRANCH  13  14
ATOM     14  N   UNL     1      45.080   3.587   8.602  0.00  0.00    +0.000 N 
ATOM     15  H   UNL     1      45.402   4.512   8.870  0.00  0.00    +0.000 HD
BRANCH  14  16
ATOM     16  C   UNL     1      46.029   2.831   7.909  0.00  0.00    +0.000 A 
ATOM     17  C   UNL     1      46.258   1.476   8.149  0.00  0.00    +0.000 A 
ATOM     18  C   UNL     1      47.168   0.786   7.360  0.00  0.00    +0.000 A 
ATOM     19  N   UNL     1      47.855   1.342   6.343  0.00  0.00    +0.000 NA
ATOM     20  C   UNL     1      47.592   2.639   6.091  0.00  0.00    +0.000 A 
ATOM     21  C   UNL     1      46.695   3.405   6.823  0.00  0.00    +0.000 A 
ENDBRANCH  14  16
ENDBRANCH  13  14
ENDBRANCH   3  13
TORSDOF 3
ENDMDL
MODEL 3
REMARK VINA RESULT:    -7.085      2.223      2.899
REMARK INTER + INTRA:          -8.685
REMARK INTER:                  -8.315
REMARK INTRA:                  -0.370
REMARK UNBOUND:                -0.357
REMARK  Name = 
REMARK  3 active torsions:
REMARK  status: ('A' for Active; 'I' for Inactive)
REMARK    1  A    between atoms: C_3  and  C_4
REMARK    2  A    between atoms: C_4  and  N_5
REMARK    3  A    between atoms: N_5  and  C_6
REMARK                            x       y       z     vdW  Elec       q    Type
REMARK                         _______ _______ _______ _____ _____    ______ ____
ROOT
ATOM      1  C   UNL     1      44.444   6.718  11.583  0.00  0.00    +0.000 A 
ATOM      2  C   UNL     1      44.123   5.515  10.971  0.00  0.00    +0.000 A 
ATOM      3  C   UNL     1      44.774   4.363  11.395  0.00  0.00    +0.000 A 
ATOM      4  N   UNL     1      45.686   4.371  12.404  0.00  0.00    +0.000 NA
ATOM      5  C   UNL     1      45.982   5.534  13.016  0.00  0.00    +0.000 A 
ATOM      6  N   UNL     1      46.807   5.540  14.143  0.00  0.00    +0.000 N 
ATOM      7  C   UNL     1      46.956   4.239  14.799  0.00  0.00    +0.000 C 
ATOM      8  C   UNL     1      47.391   4.504  16.241  0.00  0.00    +0.000 C 
ATOM      9  C   UNL     1      48.670   5.343  16.296  0.00  0.00    +0.000 C 
ATOM     10  C   UNL     1      48.575   6.594  15.418  0.00  0.00    +0.000 C 
ATOM     11  C   UNL     1      48.069   6.271  14.010  0.00  0.00    +0.000 C 
ATOM     12  C   UNL     1      45.387   6.728  12.607  0.00  0.00    +0.000 A 
ENDROOT
BRANCH   3  13
ATOM     13  C   UNL     1      44.489   3.024  10.744  0.00  0.00    +0.000 C 
BRANCH  13  14
ATOM     14  N   UNL     1      44.410   3.142   9.286  0.00  0.00    +0.000 N 
ATOM     15  H   UNL     1      43.991   4.015   8.977  0.00  0.00    +0.000 HD
BRANCH  14  16
ATOM     16  C   UNL     1      45.485   2.718   8.500  0.00  0.00    +0.000 A 
ATOM     17  C   UNL     1      45.883   1.385   8.397  0.00  0.00    +0.000 A 
ATOM     18  C   UNL     1      46.916   1.045   7.533  0.00  0.00    +0.000 A 
ATOM     19  N   UNL     1      47.568   1.930   6.756  0.00  0.00    +0.000 NA
ATOM     20  C   UNL     1      47.144   3.207   6.829  0.00  0.00    +0.000 A 
ATOM     21  C   UNL     1      46.118   3.637   7.659  0.00  0.00    +0.000 A 
ENDBRANCH  14  16
ENDBRANCH  13  14
ENDBRANCH   3  13
TORSDOF 3
ENDMDL
MODEL 4
REMARK VINA RESULT:    -6.087      1.720      2.876
REMARK INTER + INTRA:          -7.512
REMARK INTER:                  -7.097
REMARK INTRA:                  -0.415
REMARK UNBOUND:                -0.357
REMARK  Name = 
REMARK  3 active torsions:
REMARK  status: ('A' for Active; 'I' for Inactive)
REMARK    1  A    between atoms: C_3  and  C_4
REMARK    2  A    between atoms: C_4  and  N_5
REMARK    3  A    between atoms: N_5  and  C_6
REMARK                            x       y       z     vdW  Elec       q    Type
REMARK                         _______ _______ _______ _____ _____    ______ ____
ROOT
ATOM      1  C   UNL     1      44.593   7.927  11.557  0.00  0.00    +0.000 A 
ATOM      2  C   UNL     1      44.218   6.593  11.479  0.00  0.00    +0.000 A 
ATOM      3  C   UNL     1      45.145   5.624  11.843  0.00  0.00    +0.000 A 
ATOM      4  N   UNL     1      46.388   5.938  12.297  0.00  0.00    +0.000 NA
ATOM      5  C   UNL     1      46.747   7.233  12.395  0.00  0.00    +0.000 A 
ATOM      6  N   UNL     1      47.962   7.578  12.989  0.00  0.00    +0.000 N 
ATOM      7  C   UNL     1      48.561   6.525  13.814  0.00  0.00    +0.000 C 
ATOM      8  C   UNL     1      49.525   7.203  14.788  0.00  0.00    +0.000 C 
ATOM      9  C   UNL     1      50.571   8.042  14.051  0.00  0.00    +0.000 C 
ATOM     10  C   UNL     1      49.934   8.984  13.025  0.00  0.00    +0.000 C 
ATOM     11  C   UNL     1      48.929   8.258  12.126  0.00  0.00    +0.000 C 
ATOM     12  C   UNL     1      45.870   8.248  12.010  0.00  0.00    +0.000 A 
ENDROOT
BRANCH   3  13
ATOM     13  C   UNL     1      44.806   4.150  11.750  0.00  0.00    +0.000 C 
BRANCH  13  14
ATOM     14  N   UNL     1      44.157   3.828  10.475  0.00  0.00    +0.000 N 
ATOM     15  H   UNL     1      43.411   4.472  10.232  0.00  0.00    +0.000 HD
BRANCH  14  16
ATOM     16  C   UNL     1      44.936   3.422   9.388  0.00  0.00    +0.000 A 
ATOM     17  C   UNL     1      45.527   4.311   8.491  0.00  0.00    +0.000 A 
ATOM     18  C   UNL     1      46.347   3.821   7.483  0.00  0.00    +0.000 A 
ATOM     19  N   UNL     1      46.633   2.516   7.314  0.00  0.00    +0.000 NA
ATOM     20  C   UNL     1      46.094   1.671   8.214  0.00  0.00    +0.000 A 
ATOM     21  C   UNL     1      45.268   2.071   9.256  0.00  0.00    +0.000 A 
ENDBRANCH  14  16
ENDBRANCH  13  14
ENDBRANCH   3  13
TORSDOF 3
ENDMDL
MODEL 5
REMARK VINA RESULT:    -6.043      3.936      7.432
REMARK INTER + INTRA:          -7.460
REMARK INTER:                  -7.033
REMARK INTRA:                  -0.427
REMARK UNBOUND:                -0.357
REMARK  Name = 
REMARK  3 active torsions:
REMARK  status: ('A' for Active; 'I' for Inactive)
REMARK    1  A    between atoms: C_3  and  C_4
REMARK    2  A    between atoms: C_4  and  N_5
REMARK    3  A    between atoms: N_5  and  C_6
REMARK                            x       y       z     vdW  Elec       q    Type
REMARK                         _______ _______ _______ _____ _____    ______ ____
ROOT
ATOM      1  C   UNL     1      48.594   7.702  11.782  0.00  0.00    +0.000 A 
ATOM      2  C   UNL     1      49.064   7.693  13.088  0.00  0.00    +0.000 A 
ATOM      3  C   UNL     1      48.346   6.983  14.044  0.00  0.00    +0.000 A 
ATOM      4  N   UNL     1      47.225   6.277  13.737  0.00  0.00    +0.000 NA
ATOM      5  C   UNL     1      46.780   6.266  12.465  0.00  0.00    +0.000 A 
ATOM      6  N   UNL     1      45.716   5.436  12.105  0.00  0.00    +0.000 N 
ATOM      7  C   UNL     1      45.434   4.355  13.053  0.00  0.00    +0.000 C 
ATOM      8  C   UNL     1      44.673   3.269  12.292  0.00  0.00    +0.000 C 
ATOM      9  C   UNL     1      43.406   3.826  11.638  0.00  0.00    +0.000 C 
ATOM     10  C   UNL     1      43.687   5.095  10.828  0.00  0.00    +0.000 C 
ATOM     11  C   UNL     1      44.511   6.112  11.622  0.00  0.00    +0.000 C 
ATOM     12  C   UNL     1      47.439   6.990  11.471  0.00  0.00    +0.000 A 
ENDROOT
BRANCH   3  13
ATOM     13  C   UNL     1      48.791   6.961  15.492  0.00  0.00    +0.000 C 
BRANCH  13  14
ATOM     14  N   UNL     1      47.973   6.043  16.291  0.00  0.00    +0.000 N 
ATOM     15  H   UNL     1      47.008   5.991  15.978  0.00  0.00    +0.000 HD
BRANCH  14  16
ATOM     16  C   UNL     1      48.508   4.816  16.694  0.00  0.00    +0.000 A 
ATOM     17  C   UNL     1      47.938   3.585  16.368  0.00  0.00    +0.000 A 
ATOM     18  C   UNL     1      48.580   2.413  16.747  0.00  0.00    +0.000 A 
ATOM     19  N   UNL     1      49.751   2.378  17.412  0.00  0.00    +0.000 NA
ATOM     20  C   UNL     1      50.315   3.572  17.680  0.00  0.00    +0.000 A 
ATOM     21  C   UNL     1      49.748   4.792  17.335  0.00  0.00    +0.000 A 
ENDBRANCH  14  16
ENDBRANCH  13  14
ENDBRANCH   3  13
TORSDOF 3
ENDMDL
MODEL 6
REMARK VINA RESULT:    -5.734      3.752      6.132
REMARK INTER + INTRA:          -7.096
REMARK INTER:                  -6.740
REMARK INTRA:                  -0.356
REMARK UNBOUND:                -0.357
REMARK  Name = 
REMARK  3 active torsions:
REMARK  status: ('A' for Active; 'I' for Inactive)
REMARK    1  A    between atoms: C_3  and  C_4
REMARK    2  A    between atoms: C_4  and  N_5
REMARK    3  A    between atoms: N_5  and  C_6
REMARK                            x       y       z     vdW  Elec       q    Type
REMARK                         _______ _______ _______ _____ _____    ______ ____
ROOT
ATOM      1  C   UNL     1      48.454   8.546  14.780  0.00  0.00    +0.000 A 
ATOM      2  C   UNL     1      47.927   8.202  13.543  0.00  0.00    +0.000 A 
ATOM      3  C   UNL     1      47.637   6.865  13.296  0.00  0.00    +0.000 A 
ATOM      4  N   UNL     1      47.824   5.895  14.231  0.00  0.00    +0.000 NA
ATOM      5  C   UNL     1      48.314   6.230  15.441  0.00  0.00    +0.000 A 
ATOM      6  N   UNL     1      48.380   5.273  16.456  0.00  0.00    +0.000 N 
ATOM      7  C   UNL     1      47.540   4.092  16.240  0.00  0.00    +0.000 C 
ATOM      8  C   UNL     1      47.296   3.451  17.607  0.00  0.00    +0.000 C 
ATOM      9  C   UNL     1      48.612   3.119  18.314  0.00  0.00    +0.000 C 
ATOM     10  C   UNL     1      49.573   4.312  18.331  0.00  0.00    +0.000 C 
ATOM     11  C   UNL     1      49.720   4.950  16.947  0.00  0.00    +0.000 C 
ATOM     12  C   UNL     1      48.657   7.550  15.732  0.00  0.00    +0.000 A 
ENDROOT
BRANCH   3  13
ATOM     13  C   UNL     1      47.089   6.423  11.954  0.00  0.00    +0.000 C 
BRANCH  13  14
ATOM     14  N   UNL     1      45.629   6.545  11.904  0.00  0.00    +0.000 N 
ATOM     15  H   UNL     1      45.315   7.382  11.422  0.00  0.00    +0.000 HD
BRANCH  14  16
ATOM     16  C   UNL     1      44.851   5.413  11.647  0.00  0.00    +0.000 A 
ATOM     17  C   UNL     1      44.801   4.780  10.404  0.00  0.00    +0.000 A 
ATOM     18  C   UNL     1      44.059   3.616  10.260  0.00  0.00    +0.000 A 
ATOM     19  N   UNL     1      43.377   3.029  11.263  0.00  0.00    +0.000 NA
ATOM     20  C   UNL     1      43.470   3.624  12.468  0.00  0.00    +0.000 A 
ATOM     21  C   UNL     1      44.192   4.785  12.706  0.00  0.00    +0.000 A 
ENDBRANCH  14  16
ENDBRANCH  13  14
ENDBRANCH   3  13
TORSDOF 3
ENDMDL
MODEL 7
REMARK VINA RESULT:    -5.731      6.271      7.770
REMARK INTER + INTRA:          -7.093
REMARK INTER:                  -6.853
REMARK INTRA:                  -0.240
REMARK UNBOUND:                -0.357
REMARK  Name = 
REMARK  3 active torsions:
REMARK  status: ('A' for Active; 'I' for Inactive)
REMARK    1  A    between atoms: C_3  and  C_4
REMARK    2  A    between atoms: C_4  and  N_5
REMARK    3  A    between atoms: N_5  and  C_6
REMARK                            x       y       z     vdW  Elec       q    Type
REMARK                         _______ _______ _______ _____ _____    ______ ____
ROOT
ATOM      1  C   UNL     1      47.860   4.844  18.562  0.00  0.00    +0.000 A 
ATOM      2  C   UNL     1      47.194   4.624  17.365  0.00  0.00    +0.000 A 
ATOM      3  C   UNL     1      47.840   3.893  16.374  0.00  0.00    +0.000 A 
ATOM      4  N   UNL     1      49.081   3.367  16.550  0.00  0.00    +0.000 NA
ATOM      5  C   UNL     1      49.721   3.561  17.720  0.00  0.00    +0.000 A 
ATOM      6  N   UNL     1      50.932   2.911  17.970  0.00  0.00    +0.000 N 
ATOM      7  C   UNL     1      51.203   1.765  17.099  0.00  0.00    +0.000 C 
ATOM      8  C   UNL     1      52.217   0.876  17.819  0.00  0.00    +0.000 C 
ATOM      9  C   UNL     1      53.484   1.652  18.185  0.00  0.00    +0.000 C 
ATOM     10  C   UNL     1      53.165   2.967  18.902  0.00  0.00    +0.000 C 
ATOM     11  C   UNL     1      52.095   3.778  18.167  0.00  0.00    +0.000 C 
ATOM     12  C   UNL     1      49.136   4.316  18.737  0.00  0.00    +0.000 A 
ENDROOT
BRANCH   3  13
ATOM     13  C   UNL     1      47.177   3.645  15.034  0.00  0.00    +0.000 C 
BRANCH  13  14
ATOM     14  N   UNL     1      46.235   4.715  14.695  0.00  0.00    +0.000 N 
ATOM     15  H   UNL     1      46.365   5.555  15.252  0.00  0.00    +0.000 HD
BRANCH  14  16
ATOM     16  C   UNL     1      45.927   4.964  13.355  0.00  0.00    +0.000 A 
ATOM     17  C   UNL     1      46.420   6.057  12.642  0.00  0.00    +0.000 A 
ATOM     18  C   UNL     1      46.122   6.183  11.292  0.00  0.00    +0.000 A 
ATOM     19  N   UNL     1      45.384   5.296  10.598  0.00  0.00    +0.000 NA
ATOM     20  C   UNL     1      44.952   4.220  11.285  0.00  0.00    +0.000 A 
ATOM     21  C   UNL     1      45.205   4.009  12.634  0.00  0.00    +0.000 A 
ENDBRANCH  14  16
ENDBRANCH  13  14
ENDBRANCH   3  13
TORSDOF 3
ENDMDL
MODEL 8
REMARK VINA RESULT:    -5.532      4.612      6.417
REMARK INTER + INTRA:          -6.859
REMARK INTER:                  -6.608
REMARK INTRA:                  -0.251
REMARK UNBOUND:                -0.357
REMARK  Name = 
REMARK  3 active torsions:
REMARK  status: ('A' for Active; 'I' for Inactive)
REMARK    1  A    between atoms: C_3  and  C_4
REMARK    2  A    between atoms: C_4  and  N_5
REMARK    3  A    between atoms: N_5  and  C_6
REMARK                            x       y       z     vdW  Elec       q    Type
REMARK                         _______ _______ _______ _____ _____    ______ ____
ROOT
ATOM      1  C   UNL     1      47.562   4.274  17.995  0.00  0.00    +0.000 A 
ATOM      2  C   UNL     1      47.065   3.929  16.746  0.00  0.00    +0.000 A 
ATOM      3  C   UNL     1      47.536   4.616  15.634  0.00  0.00    +0.000 A 
ATOM      4  N   UNL     1      48.483   5.587  15.725  0.00  0.00    +0.000 NA
ATOM      5  C   UNL     1      48.985   5.908  16.934  0.00  0.00    +0.000 A 
ATOM      6  N   UNL     1      50.055   6.800  17.032  0.00  0.00    +0.000 N 
ATOM      7  C   UNL     1      50.799   7.003  15.786  0.00  0.00    +0.000 C 
ATOM      8  C   UNL     1      52.187   7.522  16.164  0.00  0.00    +0.000 C 
ATOM      9  C   UNL     1      52.099   8.793  17.012  0.00  0.00    +0.000 C 
ATOM     10  C   UNL     1      51.135   8.631  18.191  0.00  0.00    +0.000 C 
ATOM     11  C   UNL     1      49.789   8.044  17.757  0.00  0.00    +0.000 C 
ATOM     12  C   UNL     1      48.523   5.277  18.090  0.00  0.00    +0.000 A 
ENDROOT
BRANCH   3  13
ATOM     13  C   UNL     1      47.009   4.306  14.247  0.00  0.00    +0.000 C 
BRANCH  13  14
ATOM     14  N   UNL     1      45.902   5.196  13.883  0.00  0.00    +0.000 N 
ATOM     15  H   UNL     1      46.202   6.145  13.681  0.00  0.00    +0.000 HD
BRANCH  14  16
ATOM     16  C   UNL     1      44.890   4.728  13.042  0.00  0.00    +0.000 A 
ATOM     17  C   UNL     1      43.701   5.421  12.808  0.00  0.00    +0.000 A 
ATOM     18  C   UNL     1      42.783   4.916  11.897  0.00  0.00    +0.000 A 
ATOM     19  N   UNL     1      42.967   3.782  11.193  0.00  0.00    +0.000 NA
ATOM     20  C   UNL     1      44.138   3.146  11.393  0.00  0.00    +0.000 A 
ATOM     21  C   UNL     1      45.116   3.579  12.278  0.00  0.00    +0.000 A 
ENDBRANCH  14  16
ENDBRANCH  13  14
ENDBRANCH   3  13
TORSDOF 3
ENDMDL
MODEL 9
REMARK VINA RESULT:    -5.231      2.934      4.794
REMARK INTER + INTRA:          -6.505
REMARK INTER:                  -6.119
REMARK INTRA:                  -0.385
REMARK UNBOUND:                -0.357
REMARK  Name = 
REMARK  3 active torsions:
REMARK  status: ('A' for Active; 'I' for Inactive)
REMARK    1  A    between atoms: C_3  and  C_4
REMARK    2  A    between atoms: C_4  and  N_5
REMARK    3  A    between atoms: N_5  and  C_6
REMARK                            x       y       z     vdW  Elec       q    Type
REMARK                         _______ _______ _______ _____ _____    ______ ____
ROOT
ATOM      1  C   UNL     1      48.246   5.406  16.793  0.00  0.00    +0.000 A 
ATOM      2  C   UNL     1      47.560   4.417  16.102  0.00  0.00    +0.000 A 
ATOM      3  C   UNL     1      47.374   4.575  14.733  0.00  0.00    +0.000 A 
ATOM      4  N   UNL     1      47.865   5.644  14.050  0.00  0.00    +0.000 NA
ATOM      5  C   UNL     1      48.550   6.594  14.715  0.00  0.00    +0.000 A 
ATOM      6  N   UNL     1      49.180   7.622  14.011  0.00  0.00    +0.000 N 
ATOM      7  C   UNL     1      49.375   7.357  12.583  0.00  0.00    +0.000 C 
ATOM      8  C   UNL     1      50.508   8.264  12.103  0.00  0.00    +0.000 C 
ATOM      9  C   UNL     1      50.211   9.737  12.394  0.00  0.00    +0.000 C 
ATOM     10  C   UNL     1      49.788   9.961  13.849  0.00  0.00    +0.000 C 
ATOM     11  C   UNL     1      48.700   8.977  14.289  0.00  0.00    +0.000 C 
ATOM     12  C   UNL     1      48.737   6.506  16.095  0.00  0.00    +0.000 A 
ENDROOT
BRANCH   3  13
ATOM     13  C   UNL     1      46.607   3.545  13.929  0.00  0.00    +0.000 C 
BRANCH  13  14
ATOM     14  N   UNL     1      45.363   4.102  13.390  0.00  0.00    +0.000 N 
ATOM     15  H   UNL     1      45.087   4.970  13.839  0.00  0.00    +0.000 HD
BRANCH  14  16
ATOM     16  C   UNL     1      45.136   4.076  12.012  0.00  0.00    +0.000 A 
ATOM     17  C   UNL     1      44.404   3.076  11.371  0.00  0.00    +0.000 A 
ATOM     18  C   UNL     1      44.165   3.172  10.006  0.00  0.00    +0.000 A 
ATOM     19  N   UNL     1      44.587   4.195   9.238  0.00  0.00    +0.000 NA
ATOM     20  C   UNL     1      45.253   5.178   9.876  0.00  0.00    +0.000 A 
ATOM     21  C   UNL     1      45.533   5.169  11.236  0.00  0.00    +0.000 A 
ENDBRANCH  14  16
ENDBRANCH  13  14
ENDBRANCH   3  13
TORSDOF 3
ENDMDL
