MODEL 1
REMARK VINA RESULT:    -7.500      0.000      0.000
REMARK INTER + INTRA:         -10.677
REMARK INTER:                 -10.131
REMARK INTRA:                  -0.546
REMARK UNBOUND:                -0.546
REMARK  Name = 
REMARK  7 active torsions:
REMARK  status: ('A' for Active; 'I' for Inactive)
REMARK    1  A    between atoms: N_1  and  S_2
REMARK    2  A    between atoms: S_2  and  C_5
REMARK    3  A    between atoms: C_8  and  C_9
REMARK    4  A    between atoms: C_9  and  C_10
REMARK    5  A    between atoms: C_10  and  N_11
REMARK    6  A    between atoms: CA_16  and  C_17
REMARK    7  A    between atoms: C_17  and  OXT_19
REMARK                            x       y       z     vdW  Elec       q    Type
REMARK                         _______ _______ _______ _____ _____    ______ ____
ROOT
ATOM      1  C   UNL     1      43.630   3.350  12.365  0.00  0.00    +0.000 C 
ENDROOT
BRANCH   1   5
ATOM      2  C   UNL     1      46.962   5.848  13.485  0.00  0.00    +0.000 A 
ATOM      3  C   UNL     1      45.773   6.437  13.053  0.00  0.00    +0.000 A 
ATOM      4  C   UNL     1      44.695   5.625  12.689  0.00  0.00    +0.000 A 
ATOM      5  C   UNL     1      44.798   4.227  12.759  0.00  0.00    +0.000 A 
ATOM      6  C   UNL     1      46.003   3.651  13.190  0.00  0.00    +0.000 A 
ATOM      7  C   UNL     1      47.083   4.458  13.556  0.00  0.00    +0.000 A 
BRANCH   2   8
ATOM      8  S   UNL     1      48.308   6.873  13.987  0.00  0.00    +0.000 S 
ATOM      9  O   UNL     1      48.913   6.308  15.170  0.00  0.00    +0.000 OA
ATOM     10  O   UNL     1      47.914   8.262  13.901  0.00  0.00    +0.000 OA
BRANCH   8  11
ATOM     11  N   UNL     1      49.402   6.652  12.727  0.00  0.00    +0.000 NA
ATOM     12  H   UNL     1      49.012   7.053  11.870  0.00  0.00    +0.000 HD
ATOM     13  H   UNL     1      49.650   5.668  12.638  0.00  0.00    +0.000 HD
ENDBRANCH   8  11
ENDBRANCH   2   8
ENDBRANCH   1   5
BRANCH   1  14
ATOM     14  C   UNL     1      43.818   2.721  10.982  0.00  0.00    +0.000 C 
BRANCH  14  15
ATOM     15  N   UNL     1      43.884   3.753   9.955  0.00  0.00    +0.000 N 
ATOM     16  C   UNL     1      44.918   3.589   9.048  0.00  0.00    +0.000 A 
ATOM     17  N   UNL     1      45.440   4.715   8.540  0.00  0.00    +0.000 NA
ATOM     18  C   UNL     1      46.450   4.596   7.658  0.00  0.00    +0.000 A 
ATOM     19  C   UNL     1      46.970   3.390   7.272  0.00  0.00    +0.000 A 
ATOM     20  CA  UNL     1      46.368   2.297   7.852  0.00  0.00    +0.000 A 
ATOM     21  N   UNL     1      45.347   2.360   8.738  0.00  0.00    +0.000 NA
ATOM     22  H   UNL     1      43.946   4.712  10.286  0.00  0.00    +0.000 HD
BRANCH  20  23
ATOM     23  C   UNL     1      46.854   0.923   7.526  0.00  0.00    +0.000 C 
ATOM     24  O   UNL     1      46.385  -0.091   7.997  0.00  0.00    +0.000 OA
BRANCH  23  25
ATOM     25  OXT UNL     1      47.870   0.950   6.628  0.00  0.00    +0.000 OA
ATOM     26  HXT UNL     1      47.624   0.447   5.821  0.00  0.00    +0.000 HD
ENDBRANCH  23  25
ENDBRANCH  20  23
ENDBRANCH  14  15
ENDBRANCH   1  14
TORSDOF 7
ENDMDL
MODEL 2
REMARK VINA RESULT:    -7.331      3.112      4.275
REMARK INTER + INTRA:         -10.449
REMARK INTER:                  -9.855
REMARK INTRA:                  -0.594
REMARK UNBOUND:                -0.546
REMARK  Name = 
REMARK  7 active torsions:
REMARK  status: ('A' for Active; 'I' for Inactive)
REMARK    1  A    between atoms: N_1  and  S_2
REMARK    2  A    between atoms: S_2  and  C_5
REMARK    3  A    between atoms: C_8  and  C_9
REMARK    4  A    between atoms: C_9  and  C_10
REMARK    5  A    between atoms: C_10  and  N_11
REMARK    6  A    between atoms: CA_16  and  C_17
REMARK    7  A    between atoms: C_17  and  OXT_19
REMARK                            x       y       z     vdW  Elec       q    Type
REMARK                         _______ _______ _______ _____ _____    ______ ____
ROOT
ATOM      1  C   UNL     1      47.325   6.631  11.983  0.00  0.00    +0.000 C 
ENDROOT
BRANCH   1   5
ATOM      2  C   UNL     1      47.506   4.728  15.848  0.00  0.00    +0.000 A 
ATOM      3  C   UNL     1      48.225   5.903  15.623  0.00  0.00    +0.000 A 
ATOM      4  C   UNL     1      48.166   6.516  14.369  0.00  0.00    +0.000 A 
ATOM      5  C   UNL     1      47.388   5.965  13.339  0.00  0.00    +0.000 A 
ATOM      6  C   UNL     1      46.676   4.780  13.581  0.00  0.00    +0.000 A 
ATOM      7  C   UNL     1      46.730   4.163  14.833  0.00  0.00    +0.000 A 
BRANCH   2   8
ATOM      8  S   UNL     1      47.544   3.976  17.444  0.00  0.00    +0.000 S 
ATOM      9  O   UNL     1      48.905   3.966  17.926  0.00  0.00    +0.000 OA
ATOM     10  O   UNL     1      46.710   2.795  17.441  0.00  0.00    +0.000 OA
BRANCH   8  11
ATOM     11  N   UNL     1      46.706   5.098  18.378  0.00  0.00    +0.000 NA
ATOM     12  H   UNL     1      45.983   4.613  18.917  0.00  0.00    +0.000 HD
ATOM     13  H   UNL     1      46.340   5.847  17.792  0.00  0.00    +0.000 HD
ENDBRANCH   8  11
ENDBRANCH   2   8
ENDBRANCH   1   5
BRANCH   1  14
ATOM     14  C   UNL     1      45.900   7.035  11.601  0.00  0.00    +0.000 C 
BRANCH  14  15
ATOM     15  N   UNL     1      45.609   6.647  10.226  0.00  0.00    +0.000 N 
ATOM     16  C   UNL     1      45.226   5.324  10.076  0.00  0.00    +0.000 A 
ATOM     17  N   UNL     1      45.569   4.740   8.918  0.00  0.00    +0.000 NA
ATOM     18  C   UNL     1      45.218   3.453   8.738  0.00  0.00    +0.000 A 
ATOM     19  C   UNL     1      44.545   2.720   9.679  0.00  0.00    +0.000 A 
ATOM     20  CA  UNL     1      44.244   3.410  10.831  0.00  0.00    +0.000 A 
ATOM     21  N   UNL     1      44.567   4.703  11.061  0.00  0.00    +0.000 NA
ATOM     22  H   UNL     1      46.350   6.807   9.549  0.00  0.00    +0.000 HD
BRANCH  20  23
ATOM     23  C   UNL     1      43.526   2.717  11.942  0.00  0.00    +0.000 C 
ATOM     24  O   UNL     1      43.459   3.144  13.076  0.00  0.00    +0.000 OA
BRANCH  23  25
ATOM     25  OXT UNL     1      42.946   1.565  11.525  0.00  0.00    +0.000 OA
ATOM     26  HXT UNL     1      41.968   1.657  11.525  0.00  0.00    +0.000 HD
ENDBRANCH  23  25
ENDBRANCH  20  23
ENDBRANCH  14  15
ENDBRANCH   1  14
TORSDOF 7
ENDMDL
MODEL 3
REMARK VINA RESULT:    -7.082      3.485      7.582
REMARK INTER + INTRA:         -10.112
REMARK INTER:                  -9.581
REMARK INTRA:                  -0.530
REMARK UNBOUND:                -0.546
REMARK  Name = 
REMARK  7 active torsions:
REMARK  status: ('A' for Active; 'I' for Inactive)
REMARK    1  A    between atoms: N_1  and  S_2
REMARK    2  A    between atoms: S_2  and  C_5
REMARK    3  A    between atoms: C_8  and  C_9
REMARK    4  A    between atoms: C_9  and  C_10
REMARK    5  A    between atoms: C_10  and  N_11
REMARK    6  A    between atoms: CA_16  and  C_17
REMARK    7  A    between atoms: C_17  and  OXT_19
REMARK                            x       y       z     vdW  Elec       q    Type
REMARK                         _______ _______ _______ _____ _____    ______ ____
ROOT
ATOM      1  C   UNL     1      47.559   7.517  13.521  0.00  0.00    +0.000 C 
ENDROOT
BRANCH   1   5
ATOM      2  C   UNL     1      45.182   4.681  11.307  0.00  0.00    +0.000 A 
ATOM      3  C   UNL     1      45.662   5.826  10.669  0.00  0.00    +0.000 A 
ATOM      4  C   UNL     1      46.431   6.745  11.389  0.00  0.00    +0.000 A 
ATOM      5  C   UNL     1      46.726   6.522  12.743  0.00  0.00    +0.000 A 
ATOM      6  C   UNL     1      46.231   5.369  13.371  0.00  0.00    +0.000 A 
ATOM      7  C   UNL     1      45.463   4.447  12.655  0.00  0.00    +0.000 A 
BRANCH   2   8
ATOM      8  S   UNL     1      44.249   3.500  10.387  0.00  0.00    +0.000 S 
ATOM      9  O   UNL     1      43.053   3.168  11.125  0.00  0.00    +0.000 OA
ATOM     10  O   UNL     1      45.139   2.493   9.852  0.00  0.00    +0.000 OA
BRANCH   8  11
ATOM     11  N   UNL     1      43.762   4.403   9.052  0.00  0.00    +0.000 NA
ATOM     12  H   UNL     1      44.236   5.310   9.071  0.00  0.00    +0.000 HD
ATOM     13  H   UNL     1      42.747   4.477   9.023  0.00  0.00    +0.000 HD
ENDBRANCH   8  11
ENDBRANCH   2   8
ENDBRANCH   1   5
BRANCH   1  14
ATOM     14  C   UNL     1      48.994   7.030  13.735  0.00  0.00    +0.000 C 
BRANCH  14  15
ATOM     15  N   UNL     1      49.470   7.408  15.060  0.00  0.00    +0.000 N 
ATOM     16  C   UNL     1      48.947   6.646  16.092  0.00  0.00    +0.000 A 
ATOM     17  N   UNL     1      48.789   7.273  17.267  0.00  0.00    +0.000 NA
ATOM     18  C   UNL     1      48.279   6.566  18.292  0.00  0.00    +0.000 A 
ATOM     19  C   UNL     1      47.907   5.253  18.186  0.00  0.00    +0.000 A 
ATOM     20  CA  UNL     1      48.105   4.703  16.940  0.00  0.00    +0.000 A 
ATOM     21  N   UNL     1      48.619   5.366  15.878  0.00  0.00    +0.000 NA
ATOM     22  H   UNL     1      49.332   8.379  15.326  0.00  0.00    +0.000 HD
BRANCH  20  23
ATOM     23  C   UNL     1      47.724   3.281  16.689  0.00  0.00    +0.000 C 
ATOM     24  O   UNL     1      48.254   2.574  15.858  0.00  0.00    +0.000 OA
BRANCH  23  25
ATOM     25  OXT UNL     1      46.727   2.875  17.513  0.00  0.00    +0.000 OA
ATOM     26  HXT UNL     1      45.993   3.529  17.507  0.00  0.00    +0.000 HD
ENDBRANCH  23  25
ENDBRANCH  20  23
ENDBRANCH  14  15
ENDBRANCH   1  14
TORSDOF 7
ENDMDL
MODEL 4
REMARK VINA RESULT:    -6.730      4.383      8.015
REMARK INTER + INTRA:          -9.636
REMARK INTER:                  -9.139
REMARK INTRA:                  -0.497
REMARK UNBOUND:                -0.546
REMARK  Name = 
REMARK  7 active torsions:
REMARK  status: ('A' for Active; 'I' for Inactive)
REMARK    1  A    between atoms: N_1  and  S_2
REMARK    2  A    between atoms: S_2  and  C_5
REMARK    3  A    between atoms: C_8  and  C_9
REMARK    4  A    between atoms: C_9  and  C_10
REMARK    5  A    between atoms: C_10  and  N_11
REMARK    6  A    between atoms: CA_16  and  C_17
REMARK    7  A    between atoms: C_17  and  OXT_19
REMARK                            x       y       z     vdW  Elec       q    Type
REMARK                         _______ _______ _______ _____ _____    ______ ____
ROOT
ATOM      1  C   UNL     1      48.998   6.977  12.870  0.00  0.00    +0.000 C 
ENDROOT
BRANCH   1   5
ATOM      2  C   UNL     1      45.152   5.069  12.458  0.00  0.00    +0.000 A 
ATOM      3  C   UNL     1      46.073   4.573  13.382  0.00  0.00    +0.000 A 
ATOM      4  C   UNL     1      47.319   5.192  13.512  0.00  0.00    +0.000 A 
ATOM      5  C   UNL     1      47.648   6.308  12.727  0.00  0.00    +0.000 A 
ATOM      6  C   UNL     1      46.713   6.791  11.799  0.00  0.00    +0.000 A 
ATOM      7  C   UNL     1      45.465   6.177  11.666  0.00  0.00    +0.000 A 
BRANCH   2   8
ATOM      8  S   UNL     1      43.562   4.316  12.324  0.00  0.00    +0.000 S 
ATOM      9  O   UNL     1      43.608   3.011  12.939  0.00  0.00    +0.000 OA
ATOM     10  O   UNL     1      43.036   4.532  10.994  0.00  0.00    +0.000 OA
BRANCH   8  11
ATOM     11  N   UNL     1      42.628   5.294  13.325  0.00  0.00    +0.000 NA
ATOM     12  H   UNL     1      43.246   5.868  13.905  0.00  0.00    +0.000 HD
ATOM     13  H   UNL     1      41.974   4.730  13.865  0.00  0.00    +0.000 HD
ENDBRANCH   8  11
ENDBRANCH   2   8
ENDBRANCH   1   5
BRANCH   1  14
ATOM     14  C   UNL     1      49.185   7.615  14.248  0.00  0.00    +0.000 C 
BRANCH  14  15
ATOM     15  N   UNL     1      50.315   7.010  14.942  0.00  0.00    +0.000 N 
ATOM     16  C   UNL     1      49.980   6.364  16.121  0.00  0.00    +0.000 A 
ATOM     17  N   UNL     1      50.914   6.373  17.083  0.00  0.00    +0.000 NA
ATOM     18  C   UNL     1      50.623   5.759  18.245  0.00  0.00    +0.000 A 
ATOM     19  C   UNL     1      49.424   5.144  18.489  0.00  0.00    +0.000 A 
ATOM     20  CA  UNL     1      48.534   5.194  17.441  0.00  0.00    +0.000 A 
ATOM     21  N   UNL     1      48.778   5.792  16.252  0.00  0.00    +0.000 NA
ATOM     22  H   UNL     1      51.087   7.631  15.168  0.00  0.00    +0.000 HD
BRANCH  20  23
ATOM     23  C   UNL     1      47.183   4.575  17.586  0.00  0.00    +0.000 C 
ATOM     24  O   UNL     1      46.802   3.620  16.941  0.00  0.00    +0.000 OA
BRANCH  23  25
ATOM     25  OXT UNL     1      46.444   5.198  18.536  0.00  0.00    +0.000 OA
ATOM     26  HXT UNL     1      46.498   4.707  19.386  0.00  0.00    +0.000 HD
ENDBRANCH  23  25
ENDBRANCH  20  23
ENDBRANCH  14  15
ENDBRANCH   1  14
TORSDOF 7
ENDMDL
MODEL 5
REMARK VINA RESULT:    -6.643      4.331      7.675
REMARK INTER + INTRA:          -9.519
REMARK INTER:                  -8.880
REMARK INTRA:                  -0.639
REMARK UNBOUND:                -0.546
REMARK  Name = 
REMARK  7 active torsions:
REMARK  status: ('A' for Active; 'I' for Inactive)
REMARK    1  A    between atoms: N_1  and  S_2
REMARK    2  A    between atoms: S_2  and  C_5
REMARK    3  A    between atoms: C_8  and  C_9
REMARK    4  A    between atoms: C_9  and  C_10
REMARK    5  A    between atoms: C_10  and  N_11
REMARK    6  A    between atoms: CA_16  and  C_17
REMARK    7  A    between atoms: C_17  and  OXT_19
REMARK                            x       y       z     vdW  Elec       q    Type
REMARK                         _______ _______ _______ _____ _____    ______ ____
ROOT
ATOM      1  C   UNL     1      48.077   8.100  13.501  0.00  0.00    +0.000 C 
ENDROOT
BRANCH   1   5
ATOM      2  C   UNL     1      44.726   5.866  11.961  0.00  0.00    +0.000 A 
ATOM      3  C   UNL     1      45.788   5.189  12.563  0.00  0.00    +0.000 A 
ATOM      4  C   UNL     1      46.874   5.916  13.060  0.00  0.00    +0.000 A 
ATOM      5  C   UNL     1      46.901   7.316  12.962  0.00  0.00    +0.000 A 
ATOM      6  C   UNL     1      45.828   7.980  12.349  0.00  0.00    +0.000 A 
ATOM      7  C   UNL     1      44.740   7.258  11.852  0.00  0.00    +0.000 A 
BRANCH   2   8
ATOM      8  S   UNL     1      43.335   4.953  11.373  0.00  0.00    +0.000 S 
ATOM      9  O   UNL     1      43.148   3.791  12.209  0.00  0.00    +0.000 OA
ATOM     10  O   UNL     1      43.385   4.874   9.929  0.00  0.00    +0.000 OA
BRANCH   8  11
ATOM     11  N   UNL     1      42.063   6.003  11.707  0.00  0.00    +0.000 NA
ATOM     12  H   UNL     1      41.243   5.458  11.989  0.00  0.00    +0.000 HD
ATOM     13  H   UNL     1      41.888   6.616  10.913  0.00  0.00    +0.000 HD
ENDBRANCH   8  11
ENDBRANCH   2   8
ENDBRANCH   1   5
BRANCH   1  14
ATOM     14  C   UNL     1      49.250   7.196  13.886  0.00  0.00    +0.000 C 
BRANCH  14  15
ATOM     15  N   UNL     1      49.683   7.472  15.250  0.00  0.00    +0.000 N 
ATOM     16  C   UNL     1      49.022   6.734  16.218  0.00  0.00    +0.000 A 
ATOM     17  N   UNL     1      48.861   7.333  17.408  0.00  0.00    +0.000 NA
ATOM     18  C   UNL     1      48.219   6.648  18.372  0.00  0.00    +0.000 A 
ATOM     19  C   UNL     1      47.718   5.388  18.191  0.00  0.00    +0.000 A 
ATOM     20  CA  UNL     1      47.931   4.864  16.936  0.00  0.00    +0.000 A 
ATOM     21  N   UNL     1      48.575   5.505  15.933  0.00  0.00    +0.000 NA
ATOM     22  H   UNL     1      49.632   8.442  15.549  0.00  0.00    +0.000 HD
BRANCH  20  23
ATOM     23  C   UNL     1      47.418   3.501  16.604  0.00  0.00    +0.000 C 
ATOM     24  O   UNL     1      47.743   2.877  15.617  0.00  0.00    +0.000 OA
BRANCH  23  25
ATOM     25  OXT UNL     1      46.561   3.044  17.550  0.00  0.00    +0.000 OA
ATOM     26  HXT UNL     1      46.518   3.674  18.304  0.00  0.00    +0.000 HD
ENDBRANCH  23  25
ENDBRANCH  20  23
ENDBRANCH  14  15
ENDBRANCH   1  14
TORSDOF 7
ENDMDL
MODEL 6
REMARK VINA RESULT:    -6.620      1.807      2.467
REMARK INTER + INTRA:          -9.488
REMARK INTER:                  -8.967
REMARK INTRA:                  -0.522
REMARK UNBOUND:                -0.546
REMARK  Name = 
REMARK  7 active torsions:
REMARK  status: ('A' for Active; 'I' for Inactive)
REMARK    1  A    between atoms: N_1  and  S_2
REMARK    2  A    between atoms: S_2  and  C_5
REMARK    3  A    between atoms: C_8  and  C_9
REMARK    4  A    between atoms: C_9  and  C_10
REMARK    5  A    between atoms: C_10  and  N_11
REMARK    6  A    between atoms: CA_16  and  C_17
REMARK    7  A    between atoms: C_17  and  OXT_19
REMARK                            x       y       z     vdW  Elec       q    Type
REMARK                         _______ _______ _______ _____ _____    ______ ____
ROOT
ATOM      1  C   UNL     1      43.650   4.399  10.699  0.00  0.00    +0.000 C 
ENDROOT
BRANCH   1   5
ATOM      2  C   UNL     1      46.911   6.023  13.005  0.00  0.00    +0.000 A 
ATOM      3  C   UNL     1      46.735   6.426  11.681  0.00  0.00    +0.000 A 
ATOM      4  C   UNL     1      45.679   5.897  10.935  0.00  0.00    +0.000 A 
ATOM      5  C   UNL     1      44.793   4.970  11.507  0.00  0.00    +0.000 A 
ATOM      6  C   UNL     1      44.988   4.572  12.839  0.00  0.00    +0.000 A 
ATOM      7  C   UNL     1      46.042   5.099  13.589  0.00  0.00    +0.000 A 
BRANCH   2   8
ATOM      8  S   UNL     1      48.219   6.724  13.961  0.00  0.00    +0.000 S 
ATOM      9  O   UNL     1      49.261   7.176  13.071  0.00  0.00    +0.000 OA
ATOM     10  O   UNL     1      48.483   5.882  15.107  0.00  0.00    +0.000 OA
BRANCH   8  11
ATOM     11  N   UNL     1      47.487   8.101  14.594  0.00  0.00    +0.000 NA
ATOM     12  H   UNL     1      46.598   8.260  14.113  0.00  0.00    +0.000 HD
ATOM     13  H   UNL     1      48.122   8.897  14.546  0.00  0.00    +0.000 HD
ENDBRANCH   8  11
ENDBRANCH   2   8
ENDBRANCH   1   5
BRANCH   1  14
ATOM     14  C   UNL     1      44.133   3.696   9.429  0.00  0.00    +0.000 C 
BRANCH  14  15
ATOM     15  N   UNL     1      44.937   2.527   9.766  0.00  0.00    +0.000 N 
ATOM     16  C   UNL     1      45.677   2.021   8.709  0.00  0.00    +0.000 A 
ATOM     17  N   UNL     1      45.886   0.696   8.717  0.00  0.00    +0.000 NA
ATOM     18  C   UNL     1      46.596   0.167   7.704  0.00  0.00    +0.000 A 
ATOM     19  C   UNL     1      47.099   0.912   6.672  0.00  0.00    +0.000 A 
ATOM     20  CA  UNL     1      46.827   2.258   6.754  0.00  0.00    +0.000 A 
ATOM     21  N   UNL     1      46.124   2.842   7.752  0.00  0.00    +0.000 NA
ATOM     22  H   UNL     1      44.437   1.738  10.165  0.00  0.00    +0.000 HD
BRANCH  20  23
ATOM     23  C   UNL     1      47.306   3.178   5.679  0.00  0.00    +0.000 C 
ATOM     24  O   UNL     1      46.841   4.279   5.473  0.00  0.00    +0.000 OA
BRANCH  23  25
ATOM     25  OXT UNL     1      48.333   2.639   4.978  0.00  0.00    +0.000 OA
ATOM     26  HXT UNL     1      48.037   2.394   4.073  0.00  0.00    +0.000 HD
ENDBRANCH  23  25
ENDBRANCH  20  23
ENDBRANCH  14  15
ENDBRANCH   1  14
TORSDOF 7
ENDMDL
MODEL 7
REMARK VINA RESULT:    -6.584      4.122      7.810
REMARK INTER + INTRA:          -9.439
REMARK INTER:                  -8.828
REMARK INTRA:                  -0.611
REMARK UNBOUND:                -0.546
REMARK  Name = 
REMARK  7 active torsions:
REMARK  status: ('A' for Active; 'I' for Inactive)
REMARK    1  A    between atoms: N_1  and  S_2
REMARK    2  A    between atoms: S_2  and  C_5
REMARK    3  A    between atoms: C_8  and  C_9
REMARK    4  A    between atoms: C_9  and  C_10
REMARK    5  A    between atoms: C_10  and  N_11
REMARK    6  A    between atoms: CA_16  and  C_17
REMARK    7  A    between atoms: C_17  and  OXT_19
REMARK                            x       y       z     vdW  Elec       q    Type
REMARK                         _______ _______ _______ _____ _____    ______ ____
ROOT
ATOM      1  C   UNL     1      48.032   7.383  13.966  0.00  0.00    +0.000 C 
ENDROOT
BRANCH   1   5
ATOM      2  C   UNL     1      45.163   4.585  12.374  0.00  0.00    +0.000 A 
ATOM      3  C   UNL     1      46.212   4.121  13.169  0.00  0.00    +0.000 A 
ATOM      4  C   UNL     1      47.142   5.029  13.681  0.00  0.00    +0.000 A 
ATOM      5  C   UNL     1      47.025   6.401  13.409  0.00  0.00    +0.000 A 
ATOM      6  C   UNL     1      45.967   6.851  12.604  0.00  0.00    +0.000 A 
ATOM      7  C   UNL     1      45.035   5.947  12.090  0.00  0.00    +0.000 A 
BRANCH   2   8
ATOM      8  S   UNL     1      43.964   3.444  11.762  0.00  0.00    +0.000 S 
ATOM      9  O   UNL     1      42.972   4.168  11.002  0.00  0.00    +0.000 OA
ATOM     10  O   UNL     1      43.614   2.507  12.806  0.00  0.00    +0.000 OA
BRANCH   8  11
ATOM     11  N   UNL     1      44.866   2.550  10.659  0.00  0.00    +0.000 NA
ATOM     12  H   UNL     1      44.310   1.751  10.340  0.00  0.00    +0.000 HD
ATOM     13  H   UNL     1      45.762   2.283  11.063  0.00  0.00    +0.000 HD
ENDBRANCH   8  11
ENDBRANCH   2   8
ENDBRANCH   1   5
BRANCH   1  14
ATOM     14  C   UNL     1      49.108   6.695  14.809  0.00  0.00    +0.000 C 
BRANCH  14  15
ATOM     15  N   UNL     1      48.874   6.929  16.228  0.00  0.00    +0.000 N 
ATOM     16  C   UNL     1      48.743   5.773  16.981  0.00  0.00    +0.000 A 
ATOM     17  N   UNL     1      47.929   5.853  18.045  0.00  0.00    +0.000 NA
ATOM     18  C   UNL     1      47.773   4.748  18.798  0.00  0.00    +0.000 A 
ATOM     19  C   UNL     1      48.391   3.559  18.523  0.00  0.00    +0.000 A 
ATOM     20  CA  UNL     1      49.201   3.581  17.410  0.00  0.00    +0.000 A 
ATOM     21  N   UNL     1      49.398   4.663  16.623  0.00  0.00    +0.000 NA
ATOM     22  H   UNL     1      48.075   7.511  16.461  0.00  0.00    +0.000 HD
BRANCH  20  23
ATOM     23  C   UNL     1      49.920   2.340  16.992  0.00  0.00    +0.000 C 
ATOM     24  O   UNL     1      49.710   1.753  15.952  0.00  0.00    +0.000 OA
BRANCH  23  25
ATOM     25  OXT UNL     1      50.844   1.963  17.910  0.00  0.00    +0.000 OA
ATOM     26  HXT UNL     1      50.408   1.522  18.672  0.00  0.00    +0.000 HD
ENDBRANCH  23  25
ENDBRANCH  20  23
ENDBRANCH  14  15
ENDBRANCH   1  14
TORSDOF 7
ENDMDL
MODEL 8
REMARK VINA RESULT:    -5.724      4.035      8.083
REMARK INTER + INTRA:          -8.278
REMARK INTER:                  -7.961
REMARK INTRA:                  -0.316
REMARK UNBOUND:                -0.546
REMARK  Name = 
REMARK  7 active torsions:
REMARK  status: ('A' for Active; 'I' for Inactive)
REMARK    1  A    between atoms: N_1  and  S_2
REMARK    2  A    between atoms: S_2  and  C_5
REMARK    3  A    between atoms: C_8  and  C_9
REMARK    4  A    between atoms: C_9  and  C_10
REMARK    5  A    between atoms: C_10  and  N_11
REMARK    6  A    between atoms: CA_16  and  C_17
REMARK    7  A    between atoms: C_17  and  OXT_19
REMARK                            x       y       z     vdW  Elec       q    Type
REMARK                         _______ _______ _______ _____ _____    ______ ____
ROOT
ATOM      1  C   UNL     1      48.663   6.281  13.461  0.00  0.00    +0.000 C 
ENDROOT
BRANCH   1   5
ATOM      2  C   UNL     1      44.860   5.040  11.851  0.00  0.00    +0.000 A 
ATOM      3  C   UNL     1      45.579   4.170  12.671  0.00  0.00    +0.000 A 
ATOM      4  C   UNL     1      46.812   4.574  13.190  0.00  0.00    +0.000 A 
ATOM      5  C   UNL     1      47.329   5.846  12.897  0.00  0.00    +0.000 A 
ATOM      6  C   UNL     1      46.595   6.706  12.066  0.00  0.00    +0.000 A 
ATOM      7  C   UNL     1      45.361   6.308  11.546  0.00  0.00    +0.000 A 
BRANCH   2   8
ATOM      8  S   UNL     1      43.283   4.547  11.231  0.00  0.00    +0.000 S 
ATOM      9  O   UNL     1      42.287   5.491  11.679  0.00  0.00    +0.000 OA
ATOM     10  O   UNL     1      43.128   3.118  11.388  0.00  0.00    +0.000 OA
BRANCH   8  11
ATOM     11  N   UNL     1      43.470   4.785   9.575  0.00  0.00    +0.000 NA
ATOM     12  H   UNL     1      43.767   3.907   9.141  0.00  0.00    +0.000 HD
ATOM     13  H   UNL     1      44.106   5.561   9.396  0.00  0.00    +0.000 HD
ENDBRANCH   8  11
ENDBRANCH   2   8
ENDBRANCH   1   5
BRANCH   1  14
ATOM     14  C   UNL     1      48.520   6.988  14.810  0.00  0.00    +0.000 C 
BRANCH  14  15
ATOM     15  N   UNL     1      47.840   6.125  15.770  0.00  0.00    +0.000 N 
ATOM     16  C   UNL     1      48.676   5.242  16.432  0.00  0.00    +0.000 A 
ATOM     17  N   UNL     1      48.133   4.067  16.783  0.00  0.00    +0.000 NA
ATOM     18  C   UNL     1      48.916   3.180  17.424  0.00  0.00    +0.000 A 
ATOM     19  C   UNL     1      50.231   3.417  17.720  0.00  0.00    +0.000 A 
ATOM     20  CA  UNL     1      50.693   4.649  17.316  0.00  0.00    +0.000 A 
ATOM     21  N   UNL     1      49.949   5.578  16.674  0.00  0.00    +0.000 NA
ATOM     22  H   UNL     1      47.070   5.570  15.407  0.00  0.00    +0.000 HD
BRANCH  20  23
ATOM     23  C   UNL     1      52.118   5.024  17.565  0.00  0.00    +0.000 C 
ATOM     24  O   UNL     1      52.788   4.574  18.470  0.00  0.00    +0.000 OA
BRANCH  23  25
ATOM     25  OXT UNL     1      52.571   5.912  16.647  0.00  0.00    +0.000 OA
ATOM     26  HXT UNL     1      52.551   5.514  15.748  0.00  0.00    +0.000 HD
ENDBRANCH  23  25
ENDBRANCH  20  23
ENDBRANCH  14  15
ENDBRANCH   1  14
TORSDOF 7
ENDMDL
MODEL 9
REMARK VINA RESULT:    -5.702      4.177      5.655
REMARK INTER + INTRA:          -8.248
REMARK INTER:                  -7.852
REMARK INTRA:                  -0.396
REMARK UNBOUND:                -0.546
REMARK  Name = 
REMARK  7 active torsions:
REMARK  status: ('A' for Active; 'I' for Inactive)
REMARK    1  A    between atoms: N_1  and  S_2
REMARK    2  A    between atoms: S_2  and  C_5
REMARK    3  A    between atoms: C_8  and  C_9
REMARK    4  A    between atoms: C_9  and  C_10
REMARK    5  A    between atoms: C_10  and  N_11
REMARK    6  A    between atoms: CA_16  and  C_17
REMARK    7  A    between atoms: C_17  and  OXT_19
REMARK                            x       y       z     vdW  Elec       q    Type
REMARK                         _______ _______ _______ _____ _____    ______ ____
ROOT
ATOM      1  C   UNL     1      48.328   6.272  14.311  0.00  0.00    +0.000 C 
ENDROOT
BRANCH   1   5
ATOM      2  C   UNL     1      48.581   5.336  18.513  0.00  0.00    +0.000 A 
ATOM      3  C   UNL     1      47.996   4.422  17.637  0.00  0.00    +0.000 A 
ATOM      4  C   UNL     1      47.913   4.728  16.276  0.00  0.00    +0.000 A 
ATOM      5  C   UNL     1      48.418   5.943  15.785  0.00  0.00    +0.000 A 
ATOM      6  C   UNL     1      48.999   6.854  16.681  0.00  0.00    +0.000 A 
ATOM      7  C   UNL     1      49.084   6.551  18.042  0.00  0.00    +0.000 A 
BRANCH   2   8
ATOM      8  S   UNL     1      48.725   4.931  20.225  0.00  0.00    +0.000 S 
ATOM      9  O   UNL     1      47.671   5.595  20.955  0.00  0.00    +0.000 OA
ATOM     10  O   UNL     1      50.114   5.005  20.622  0.00  0.00    +0.000 OA
BRANCH   8  11
ATOM     11  N   UNL     1      48.359   3.289  20.226  0.00  0.00    +0.000 NA
ATOM     12  H   UNL     1      47.895   3.048  19.346  0.00  0.00    +0.000 HD
ATOM     13  H   UNL     1      47.813   3.045  21.051  0.00  0.00    +0.000 HD
ENDBRANCH   8  11
ENDBRANCH   2   8
ENDBRANCH   1   5
BRANCH   1  14
ATOM     14  C   UNL     1      47.173   5.541  13.623  0.00  0.00    +0.000 C 
BRANCH  14  15
ATOM     15  N   UNL     1      45.992   6.393  13.564  0.00  0.00    +0.000 N 
ATOM     16  C   UNL     1      45.002   5.935  12.710  0.00  0.00    +0.000 A 
ATOM     17  N   UNL     1      44.256   6.877  12.113  0.00  0.00    +0.000 NA
ATOM     18  C   UNL     1      43.287   6.470  11.273  0.00  0.00    +0.000 A 
ATOM     19  C   UNL     1      43.040   5.153  10.995  0.00  0.00    +0.000 A 
ATOM     20  CA  UNL     1      43.861   4.267  11.654  0.00  0.00    +0.000 A 
ATOM     21  N   UNL     1      44.845   4.621  12.512  0.00  0.00    +0.000 NA
ATOM     22  H   UNL     1      46.152   7.366  13.316  0.00  0.00    +0.000 HD
BRANCH  20  23
ATOM     23  C   UNL     1      43.705   2.799  11.424  0.00  0.00    +0.000 C 
ATOM     24  O   UNL     1      43.787   2.272  10.334  0.00  0.00    +0.000 OA
BRANCH  23  25
ATOM     25  OXT UNL     1      43.476   2.131  12.581  0.00  0.00    +0.000 OA
ATOM     26  HXT UNL     1      42.803   2.602  13.120  0.00  0.00    +0.000 HD
ENDBRANCH  23  25
ENDBRANCH  20  23
ENDBRANCH  14  15
ENDBRANCH   1  14
TORSDOF 7
ENDMDL
