MODEL 1
REMARK VINA RESULT:    -8.711      0.000      0.000
REMARK INTER + INTRA:         -12.841
REMARK INTER:                 -11.766
REMARK INTRA:                  -1.075
REMARK UNBOUND:                -1.075
REMARK  Name = 
REMARK  6 active torsions:
REMARK  status: ('A' for Active; 'I' for Inactive)
REMARK    1  A    between atoms: C_2  and  C_3
REMARK    2  A    between atoms: N_7  and  C_8
REMARK    3  A    between atoms: C_8  and  C_9
REMARK    4  A    between atoms: C_9  and  C_12
REMARK    5  A    between atoms: C_16  and  O_17
REMARK    6  A    between atoms: O_17  and  C_18
REMARK                            x       y       z     vdW  Elec       q    Type
REMARK                         _______ _______ _______ _____ _____    ______ ____
ROOT
ATOM      1  C   UNL     1      43.712   4.651  12.421  0.00  0.00    +0.000 C 
ATOM      2  F   UNL     1      42.775   5.518  12.906  0.00  0.00    +0.000 F 
ATOM      3  F   UNL     1      43.528   3.493  13.122  0.00  0.00    +0.000 F 
ENDROOT
BRANCH   1   4
ATOM      4  C   UNL     1      45.124   5.189  12.564  0.00  0.00    +0.000 A 
ATOM      5  C   UNL     1      45.639   6.101  11.631  0.00  0.00    +0.000 A 
ATOM      6  C   UNL     1      46.909   6.651  11.809  0.00  0.00    +0.000 A 
ATOM      7  C   UNL     1      47.685   6.299  12.918  0.00  0.00    +0.000 A 
ATOM      8  C   UNL     1      47.190   5.387  13.845  0.00  0.00    +0.000 A 
ATOM      9  C   UNL     1      45.916   4.838  13.670  0.00  0.00    +0.000 A 
BRANCH   8  10
ATOM     10  O   UNL     1      47.835   4.994  14.990  0.00  0.00    +0.000 OA
BRANCH  10  11
ATOM     11  C   UNL     1      47.214   4.029  15.865  0.00  0.00    +0.000 C 
ATOM     12  C   UNL     1      47.155   4.374  17.375  0.00  0.00    +0.000 C 
ATOM     13  C   UNL     1      47.586   2.930  17.682  0.00  0.00    +0.000 C 
ATOM     14  C   UNL     1      48.145   2.849  16.253  0.00  0.00    +0.000 C 
ENDBRANCH  10  11
ENDBRANCH   8  10
ENDBRANCH   1   4
BRANCH   1  15
ATOM     15  C   UNL     1      43.416   4.380  10.925  0.00  0.00    +0.000 C 
BRANCH  15  20
ATOM     16  C   UNL     1      46.660   2.429   7.449  0.00  0.00    +0.000 A 
ATOM     17  C   UNL     1      46.293   3.739   7.728  0.00  0.00    +0.000 A 
ATOM     18  C   UNL     1      45.363   3.984   8.739  0.00  0.00    +0.000 A 
ATOM     19  C   UNL     1      44.813   2.922   9.453  0.00  0.00    +0.000 A 
ATOM     20  N   UNL     1      43.881   3.084  10.440  0.00  0.00    +0.000 N 
ATOM     21  N   UNL     1      45.170   1.650   9.190  0.00  0.00    +0.000 NA
ATOM     22  C   UNL     1      46.078   1.427   8.206  0.00  0.00    +0.000 A 
ATOM     23  H   UNL     1      43.578   2.230  10.896  0.00  0.00    +0.000 HD
BRANCH  16  25
ATOM     24  N   UNL     1      48.357   1.881   5.575  0.00  0.00    +0.000 NA
ATOM     25  C   UNL     1      47.600   2.125   6.420  0.00  0.00    +0.000 C 
ENDBRANCH  16  25
ENDBRANCH  15  20
ENDBRANCH   1  15
TORSDOF 6
ENDMDL
MODEL 2
REMARK VINA RESULT:    -7.801      1.328      1.618
REMARK INTER + INTRA:         -11.612
REMARK INTER:                 -10.639
REMARK INTRA:                  -0.974
REMARK UNBOUND:                -1.075
REMARK  Name = 
REMARK  6 active torsions:
REMARK  status: ('A' for Active; 'I' for Inactive)
REMARK    1  A    between atoms: C_2  and  C_3
REMARK    2  A    between atoms: N_7  and  C_8
REMARK    3  A    between atoms: C_8  and  C_9
REMARK    4  A    between atoms: C_9  and  C_12
REMARK    5  A    between atoms: C_16  and  O_17
REMARK    6  A    between atoms: O_17  and  C_18
REMARK                            x       y       z     vdW  Elec       q    Type
REMARK                         _______ _______ _______ _____ _____    ______ ____
ROOT
ATOM      1  C   UNL     1      43.917   4.746  12.399  0.00  0.00    +0.000 C 
ATOM      2  F   UNL     1      42.966   5.543  12.970  0.00  0.00    +0.000 F 
ATOM      3  F   UNL     1      43.864   3.570  13.094  0.00  0.00    +0.000 F 
ENDROOT
BRANCH   1   4
ATOM      4  C   UNL     1      45.298   5.375  12.442  0.00  0.00    +0.000 A 
ATOM      5  C   UNL     1      45.712   6.257  11.433  0.00  0.00    +0.000 A 
ATOM      6  C   UNL     1      46.952   6.892  11.516  0.00  0.00    +0.000 A 
ATOM      7  C   UNL     1      47.797   6.655  12.604  0.00  0.00    +0.000 A 
ATOM      8  C   UNL     1      47.403   5.774  13.607  0.00  0.00    +0.000 A 
ATOM      9  C   UNL     1      46.159   5.141  13.526  0.00  0.00    +0.000 A 
BRANCH   8  10
ATOM     10  O   UNL     1      48.122   5.491  14.740  0.00  0.00    +0.000 OA
BRANCH  10  11
ATOM     11  C   UNL     1      48.591   6.570  15.576  0.00  0.00    +0.000 C 
ATOM     12  C   UNL     1      50.120   6.826  15.612  0.00  0.00    +0.000 C 
ATOM     13  C   UNL     1      50.018   6.980  17.139  0.00  0.00    +0.000 C 
ATOM     14  C   UNL     1      48.700   6.193  17.078  0.00  0.00    +0.000 C 
ENDBRANCH  10  11
ENDBRANCH   8  10
ENDBRANCH   1   4
BRANCH   1  15
ATOM     15  C   UNL     1      43.522   4.473  10.927  0.00  0.00    +0.000 C 
BRANCH  15  20
ATOM     16  C   UNL     1      46.665   2.504   7.369  0.00  0.00    +0.000 A 
ATOM     17  C   UNL     1      46.332   3.817   7.673  0.00  0.00    +0.000 A 
ATOM     18  C   UNL     1      45.424   4.068   8.703  0.00  0.00    +0.000 A 
ATOM     19  C   UNL     1      44.863   3.007   9.410  0.00  0.00    +0.000 A 
ATOM     20  N   UNL     1      43.951   3.175  10.415  0.00  0.00    +0.000 N 
ATOM     21  N   UNL     1      45.186   1.731   9.123  0.00  0.00    +0.000 NA
ATOM     22  C   UNL     1      46.073   1.503   8.121  0.00  0.00    +0.000 A 
ATOM     23  H   UNL     1      43.637   2.321  10.864  0.00  0.00    +0.000 HD
BRANCH  16  25
ATOM     24  N   UNL     1      48.318   1.944   5.458  0.00  0.00    +0.000 NA
ATOM     25  C   UNL     1      47.581   2.195   6.320  0.00  0.00    +0.000 C 
ENDBRANCH  16  25
ENDBRANCH  15  20
ENDBRANCH   1  15
TORSDOF 6
ENDMDL
MODEL 3
REMARK VINA RESULT:    -7.447      2.247      2.963
REMARK INTER + INTRA:         -11.135
REMARK INTER:                 -10.371
REMARK INTRA:                  -0.764
REMARK UNBOUND:                -1.075
REMARK  Name = 
REMARK  6 active torsions:
REMARK  status: ('A' for Active; 'I' for Inactive)
REMARK    1  A    between atoms: C_2  and  C_3
REMARK    2  A    between atoms: N_7  and  C_8
REMARK    3  A    between atoms: C_8  and  C_9
REMARK    4  A    between atoms: C_9  and  C_12
REMARK    5  A    between atoms: C_16  and  O_17
REMARK    6  A    between atoms: O_17  and  C_18
REMARK                            x       y       z     vdW  Elec       q    Type
REMARK                         _______ _______ _______ _____ _____    ______ ____
ROOT
ATOM      1  C   UNL     1      43.883   4.703  12.290  0.00  0.00    +0.000 C 
ATOM      2  F   UNL     1      42.783   4.829  13.089  0.00  0.00    +0.000 F 
ATOM      3  F   UNL     1      44.595   3.663  12.819  0.00  0.00    +0.000 F 
ENDROOT
BRANCH   1   4
ATOM      4  C   UNL     1      44.699   5.981  12.225  0.00  0.00    +0.000 A 
ATOM      5  C   UNL     1      44.207   7.109  11.553  0.00  0.00    +0.000 A 
ATOM      6  C   UNL     1      44.925   8.305  11.561  0.00  0.00    +0.000 A 
ATOM      7  C   UNL     1      46.145   8.394  12.239  0.00  0.00    +0.000 A 
ATOM      8  C   UNL     1      46.650   7.279  12.902  0.00  0.00    +0.000 A 
ATOM      9  C   UNL     1      45.928   6.081  12.896  0.00  0.00    +0.000 A 
BRANCH   8  10
ATOM     10  O   UNL     1      47.810   7.251  13.633  0.00  0.00    +0.000 OA
BRANCH  10  11
ATOM     11  C   UNL     1      49.072   7.044  12.963  0.00  0.00    +0.000 C 
ATOM     12  C   UNL     1      50.199   8.071  13.243  0.00  0.00    +0.000 C 
ATOM     13  C   UNL     1      50.507   8.082  11.736  0.00  0.00    +0.000 C 
ATOM     14  C   UNL     1      49.088   7.546  11.494  0.00  0.00    +0.000 C 
ENDBRANCH  10  11
ENDBRANCH   8  10
ENDBRANCH   1   4
BRANCH   1  15
ATOM     15  C   UNL     1      43.422   4.316  10.863  0.00  0.00    +0.000 C 
BRANCH  15  20
ATOM     16  C   UNL     1      46.680   2.412   7.374  0.00  0.00    +0.000 A 
ATOM     17  C   UNL     1      46.275   3.713   7.636  0.00  0.00    +0.000 A 
ATOM     18  C   UNL     1      45.351   3.946   8.656  0.00  0.00    +0.000 A 
ATOM     19  C   UNL     1      44.846   2.879   9.395  0.00  0.00    +0.000 A 
ATOM     20  N   UNL     1      43.923   3.027  10.393  0.00  0.00    +0.000 N 
ATOM     21  N   UNL     1      45.240   1.614   9.148  0.00  0.00    +0.000 NA
ATOM     22  C   UNL     1      46.142   1.404   8.155  0.00  0.00    +0.000 A 
ATOM     23  H   UNL     1      43.654   2.172  10.867  0.00  0.00    +0.000 HD
BRANCH  16  25
ATOM     24  N   UNL     1      48.369   1.879   5.487  0.00  0.00    +0.000 NA
ATOM     25  C   UNL     1      47.615   2.121   6.336  0.00  0.00    +0.000 C 
ENDBRANCH  16  25
ENDBRANCH  15  20
ENDBRANCH   1  15
TORSDOF 6
ENDMDL
MODEL 4
REMARK VINA RESULT:    -7.168      3.516      7.951
REMARK INTER + INTRA:         -10.757
REMARK INTER:                 -10.266
REMARK INTRA:                  -0.491
REMARK UNBOUND:                -1.075
REMARK  Name = 
REMARK  6 active torsions:
REMARK  status: ('A' for Active; 'I' for Inactive)
REMARK    1  A    between atoms: C_2  and  C_3
REMARK    2  A    between atoms: N_7  and  C_8
REMARK    3  A    between atoms: C_8  and  C_9
REMARK    4  A    between atoms: C_9  and  C_12
REMARK    5  A    between atoms: C_16  and  O_17
REMARK    6  A    between atoms: O_17  and  C_18
REMARK                            x       y       z     vdW  Elec       q    Type
REMARK                         _______ _______ _______ _____ _____    ______ ____
ROOT
ATOM      1  C   UNL     1      45.744   6.130  12.254  0.00  0.00    +0.000 C 
ATOM      2  F   UNL     1      44.800   6.448  13.188  0.00  0.00    +0.000 F 
ATOM      3  F   UNL     1      46.046   7.309  11.632  0.00  0.00    +0.000 F 
ENDROOT
BRANCH   1   4
ATOM      4  C   UNL     1      45.256   5.076  11.276  0.00  0.00    +0.000 A 
ATOM      5  C   UNL     1      44.341   4.094  11.683  0.00  0.00    +0.000 A 
ATOM      6  C   UNL     1      43.837   3.175  10.762  0.00  0.00    +0.000 A 
ATOM      7  C   UNL     1      44.239   3.220   9.424  0.00  0.00    +0.000 A 
ATOM      8  C   UNL     1      45.155   4.182   9.009  0.00  0.00    +0.000 A 
ATOM      9  C   UNL     1      45.657   5.106   9.931  0.00  0.00    +0.000 A 
BRANCH   8  10
ATOM     10  O   UNL     1      45.594   4.354   7.722  0.00  0.00    +0.000 OA
BRANCH  10  11
ATOM     11  C   UNL     1      46.754   3.631   7.260  0.00  0.00    +0.000 C 
ATOM     12  C   UNL     1      46.761   3.171   5.779  0.00  0.00    +0.000 C 
ATOM     13  C   UNL     1      47.298   1.808   6.246  0.00  0.00    +0.000 C 
ATOM     14  C   UNL     1      46.744   2.126   7.643  0.00  0.00    +0.000 C 
ENDBRANCH  10  11
ENDBRANCH   8  10
ENDBRANCH   1   4
BRANCH   1  15
ATOM     15  C   UNL     1      47.010   5.610  12.979  0.00  0.00    +0.000 C 
BRANCH  15  20
ATOM     16  C   UNL     1      48.150   4.645  17.896  0.00  0.00    +0.000 A 
ATOM     17  C   UNL     1      48.559   5.660  17.042  0.00  0.00    +0.000 A 
ATOM     18  C   UNL     1      48.092   5.672  15.727  0.00  0.00    +0.000 A 
ATOM     19  C   UNL     1      47.230   4.672  15.285  0.00  0.00    +0.000 A 
ATOM     20  N   UNL     1      46.751   4.605  14.006  0.00  0.00    +0.000 N 
ATOM     21  N   UNL     1      46.825   3.687  16.111  0.00  0.00    +0.000 NA
ATOM     22  C   UNL     1      47.284   3.691  17.389  0.00  0.00    +0.000 A 
ATOM     23  H   UNL     1      46.113   3.838  13.820  0.00  0.00    +0.000 HD
BRANCH  16  25
ATOM     24  N   UNL     1      48.984   4.529  20.343  0.00  0.00    +0.000 NA
ATOM     25  C   UNL     1      48.604   4.584  19.247  0.00  0.00    +0.000 C 
ENDBRANCH  16  25
ENDBRANCH  15  20
ENDBRANCH   1  15
TORSDOF 6
ENDMDL
MODEL 5
REMARK VINA RESULT:    -6.456      4.084      7.219
REMARK INTER + INTRA:          -9.795
REMARK INTER:                  -9.050
REMARK INTRA:                  -0.746
REMARK UNBOUND:                -1.075
REMARK  Name = 
REMARK  6 active torsions:
REMARK  status: ('A' for Active; 'I' for Inactive)
REMARK    1  A    between atoms: C_2  and  C_3
REMARK    2  A    between atoms: N_7  and  C_8
REMARK    3  A    between atoms: C_8  and  C_9
REMARK    4  A    between atoms: C_9  and  C_12
REMARK    5  A    between atoms: C_16  and  O_17
REMARK    6  A    between atoms: O_17  and  C_18
REMARK                            x       y       z     vdW  Elec       q    Type
REMARK                         _______ _______ _______ _____ _____    ______ ____
ROOT
ATOM      1  C   UNL     1      45.158   6.006  12.463  0.00  0.00    +0.000 C 
ATOM      2  F   UNL     1      46.194   5.726  13.308  0.00  0.00    +0.000 F 
ATOM      3  F   UNL     1      44.093   6.277  13.276  0.00  0.00    +0.000 F 
ENDROOT
BRANCH   1   4
ATOM      4  C   UNL     1      44.870   4.864  11.505  0.00  0.00    +0.000 A 
ATOM      5  C   UNL     1      44.156   3.736  11.933  0.00  0.00    +0.000 A 
ATOM      6  C   UNL     1      43.827   2.724  11.030  0.00  0.00    +0.000 A 
ATOM      7  C   UNL     1      44.208   2.822   9.688  0.00  0.00    +0.000 A 
ATOM      8  C   UNL     1      44.927   3.931   9.253  0.00  0.00    +0.000 A 
ATOM      9  C   UNL     1      45.252   4.947  10.157  0.00  0.00    +0.000 A 
BRANCH   8  10
ATOM     10  O   UNL     1      45.320   4.161   7.959  0.00  0.00    +0.000 OA
BRANCH  10  11
ATOM     11  C   UNL     1      46.568   3.614   7.484  0.00  0.00    +0.000 C 
ATOM     12  C   UNL     1      46.703   3.373   5.959  0.00  0.00    +0.000 C 
ATOM     13  C   UNL     1      47.341   2.008   6.271  0.00  0.00    +0.000 C 
ATOM     14  C   UNL     1      46.681   2.075   7.657  0.00  0.00    +0.000 C 
ENDBRANCH  10  11
ENDBRANCH   8  10
ENDBRANCH   1   4
BRANCH   1  15
ATOM     15  C   UNL     1      45.503   7.280  11.653  0.00  0.00    +0.000 C 
BRANCH  15  20
ATOM     16  C   UNL     1      50.379   8.799  12.232  0.00  0.00    +0.000 A 
ATOM     17  C   UNL     1      49.824   7.752  11.508  0.00  0.00    +0.000 A 
ATOM     18  C   UNL     1      48.442   7.561  11.539  0.00  0.00    +0.000 A 
ATOM     19  C   UNL     1      47.637   8.413  12.292  0.00  0.00    +0.000 A 
ATOM     20  N   UNL     1      46.281   8.274  12.389  0.00  0.00    +0.000 N 
ATOM     21  N   UNL     1      48.170   9.433  12.992  0.00  0.00    +0.000 NA
ATOM     22  C   UNL     1      49.516   9.609  12.949  0.00  0.00    +0.000 A 
ATOM     23  H   UNL     1      45.811   8.974  12.952  0.00  0.00    +0.000 HD
BRANCH  16  25
ATOM     24  N   UNL     1      52.933   9.214  12.254  0.00  0.00    +0.000 NA
ATOM     25  C   UNL     1      51.787   9.031  12.239  0.00  0.00    +0.000 C 
ENDBRANCH  16  25
ENDBRANCH  15  20
ENDBRANCH   1  15
TORSDOF 6
ENDMDL
MODEL 6
REMARK VINA RESULT:    -6.339      4.061      8.246
REMARK INTER + INTRA:          -9.637
REMARK INTER:                  -8.960
REMARK INTRA:                  -0.678
REMARK UNBOUND:                -1.075
REMARK  Name = 
REMARK  6 active torsions:
REMARK  status: ('A' for Active; 'I' for Inactive)
REMARK    1  A    between atoms: C_2  and  C_3
REMARK    2  A    between atoms: N_7  and  C_8
REMARK    3  A    between atoms: C_8  and  C_9
REMARK    4  A    between atoms: C_9  and  C_12
REMARK    5  A    between atoms: C_16  and  O_17
REMARK    6  A    between atoms: O_17  and  C_18
REMARK                            x       y       z     vdW  Elec       q    Type
REMARK                         _______ _______ _______ _____ _____    ______ ____
ROOT
ATOM      1  C   UNL     1      46.693   5.306  13.409  0.00  0.00    +0.000 C 
ATOM      2  F   UNL     1      46.564   6.425  14.181  0.00  0.00    +0.000 F 
ATOM      3  F   UNL     1      47.666   5.608  12.497  0.00  0.00    +0.000 F 
ENDROOT
BRANCH   1   4
ATOM      4  C   UNL     1      45.387   4.911  12.744  0.00  0.00    +0.000 A 
ATOM      5  C   UNL     1      44.230   5.681  12.929  0.00  0.00    +0.000 A 
ATOM      6  C   UNL     1      43.052   5.358  12.254  0.00  0.00    +0.000 A 
ATOM      7  C   UNL     1      43.010   4.263  11.387  0.00  0.00    +0.000 A 
ATOM      8  C   UNL     1      44.149   3.484  11.202  0.00  0.00    +0.000 A 
ATOM      9  C   UNL     1      45.330   3.810  11.875  0.00  0.00    +0.000 A 
BRANCH   8  10
ATOM     10  O   UNL     1      44.246   2.414  10.350  0.00  0.00    +0.000 OA
BRANCH  10  11
ATOM     11  C   UNL     1      44.489   2.638   8.945  0.00  0.00    +0.000 C 
ATOM     12  C   UNL     1      45.811   2.083   8.357  0.00  0.00    +0.000 C 
ATOM     13  C   UNL     1      45.991   3.415   7.608  0.00  0.00    +0.000 C 
ATOM     14  C   UNL     1      45.035   4.056   8.626  0.00  0.00    +0.000 C 
ENDBRANCH  10  11
ENDBRANCH   8  10
ENDBRANCH   1   4
BRANCH   1  15
ATOM     15  C   UNL     1      47.189   4.140  14.298  0.00  0.00    +0.000 C 
BRANCH  15  20
ATOM     16  C   UNL     1      48.887   5.717  18.886  0.00  0.00    +0.000 A 
ATOM     17  C   UNL     1      49.504   5.678  17.643  0.00  0.00    +0.000 A 
ATOM     18  C   UNL     1      48.797   5.180  16.547  0.00  0.00    +0.000 A 
ATOM     19  C   UNL     1      47.491   4.727  16.709  0.00  0.00    +0.000 A 
ATOM     20  N   UNL     1      46.745   4.205  15.688  0.00  0.00    +0.000 N 
ATOM     21  N   UNL     1      46.885   4.767  17.912  0.00  0.00    +0.000 NA
ATOM     22  C   UNL     1      47.584   5.258  18.967  0.00  0.00    +0.000 A 
ATOM     23  H   UNL     1      45.800   3.932  15.935  0.00  0.00    +0.000 HD
BRANCH  16  25
ATOM     24  N   UNL     1      50.122   6.600  20.981  0.00  0.00    +0.000 NA
ATOM     25  C   UNL     1      49.569   6.209  20.038  0.00  0.00    +0.000 C 
ENDBRANCH  16  25
ENDBRANCH  15  20
ENDBRANCH   1  15
TORSDOF 6
ENDMDL
MODEL 7
REMARK VINA RESULT:    -6.067      2.863      4.202
REMARK INTER + INTRA:          -9.270
REMARK INTER:                  -8.370
REMARK INTRA:                  -0.900
REMARK UNBOUND:                -1.075
REMARK  Name = 
REMARK  6 active torsions:
REMARK  status: ('A' for Active; 'I' for Inactive)
REMARK    1  A    between atoms: C_2  and  C_3
REMARK    2  A    between atoms: N_7  and  C_8
REMARK    3  A    between atoms: C_8  and  C_9
REMARK    4  A    between atoms: C_9  and  C_12
REMARK    5  A    between atoms: C_16  and  O_17
REMARK    6  A    between atoms: O_17  and  C_18
REMARK                            x       y       z     vdW  Elec       q    Type
REMARK                         _______ _______ _______ _____ _____    ______ ____
ROOT
ATOM      1  C   UNL     1      47.638   8.072  12.899  0.00  0.00    +0.000 C 
ATOM      2  F   UNL     1      48.197   7.173  12.036  0.00  0.00    +0.000 F 
ATOM      3  F   UNL     1      47.912   9.300  12.366  0.00  0.00    +0.000 F 
ENDROOT
BRANCH   1   4
ATOM      4  C   UNL     1      48.176   7.927  14.311  0.00  0.00    +0.000 A 
ATOM      5  C   UNL     1      48.095   8.994  15.218  0.00  0.00    +0.000 A 
ATOM      6  C   UNL     1      48.520   8.832  16.538  0.00  0.00    +0.000 A 
ATOM      7  C   UNL     1      49.035   7.606  16.971  0.00  0.00    +0.000 A 
ATOM      8  C   UNL     1      49.131   6.543  16.077  0.00  0.00    +0.000 A 
ATOM      9  C   UNL     1      48.701   6.704  14.757  0.00  0.00    +0.000 A 
BRANCH   8  10
ATOM     10  O   UNL     1      49.578   5.285  16.390  0.00  0.00    +0.000 OA
BRANCH  10  11
ATOM     11  C   UNL     1      48.873   4.502  17.377  0.00  0.00    +0.000 C 
ATOM     12  C   UNL     1      48.930   2.959  17.231  0.00  0.00    +0.000 C 
ATOM     13  C   UNL     1      47.423   2.915  17.533  0.00  0.00    +0.000 C 
ATOM     14  C   UNL     1      47.348   4.390  17.112  0.00  0.00    +0.000 C 
ENDBRANCH  10  11
ENDBRANCH   8  10
ENDBRANCH   1   4
BRANCH   1  15
ATOM     15  C   UNL     1      46.103   7.865  12.911  0.00  0.00    +0.000 C 
BRANCH  15  20
ATOM     16  C   UNL     1      44.984   3.479  10.479  0.00  0.00    +0.000 A 
ATOM     17  C   UNL     1      45.322   4.735   9.995  0.00  0.00    +0.000 A 
ATOM     18  C   UNL     1      45.568   5.769  10.900  0.00  0.00    +0.000 A 
ATOM     19  C   UNL     1      45.472   5.534  12.269  0.00  0.00    +0.000 A 
ATOM     20  N   UNL     1      45.677   6.502  13.213  0.00  0.00    +0.000 N 
ATOM     21  N   UNL     1      45.150   4.315  12.744  0.00  0.00    +0.000 NA
ATOM     22  C   UNL     1      44.917   3.319  11.852  0.00  0.00    +0.000 A 
ATOM     23  H   UNL     1      45.597   6.193  14.176  0.00  0.00    +0.000 HD
BRANCH  16  25
ATOM     24  N   UNL     1      44.500   1.512   8.868  0.00  0.00    +0.000 NA
ATOM     25  C   UNL     1      44.715   2.391   9.595  0.00  0.00    +0.000 C 
ENDBRANCH  16  25
ENDBRANCH  15  20
ENDBRANCH   1  15
TORSDOF 6
ENDMDL
MODEL 8
REMARK VINA RESULT:    -5.910      1.699      2.946
REMARK INTER + INTRA:          -9.058
REMARK INTER:                  -9.193
REMARK INTRA:                   0.134
REMARK UNBOUND:                -1.075
REMARK  Name = 
REMARK  6 active torsions:
REMARK  status: ('A' for Active; 'I' for Inactive)
REMARK    1  A    between atoms: C_2  and  C_3
REMARK    2  A    between atoms: N_7  and  C_8
REMARK    3  A    between atoms: C_8  and  C_9
REMARK    4  A    between atoms: C_9  and  C_12
REMARK    5  A    between atoms: C_16  and  O_17
REMARK    6  A    between atoms: O_17  and  C_18
REMARK                            x       y       z     vdW  Elec       q    Type
REMARK                         _______ _______ _______ _____ _____    ______ ____
ROOT
ATOM      1  C   UNL     1      44.373   5.819  10.989  0.00  0.00    +0.000 C 
ATOM      2  F   UNL     1      45.093   6.192   9.890  0.00  0.00    +0.000 F 
ATOM      3  F   UNL     1      43.623   6.914  11.317  0.00  0.00    +0.000 F 
ENDROOT
BRANCH   1   4
ATOM      4  C   UNL     1      45.260   5.368  12.135  0.00  0.00    +0.000 A 
ATOM      5  C   UNL     1      44.819   4.388  13.036  0.00  0.00    +0.000 A 
ATOM      6  C   UNL     1      45.668   3.921  14.041  0.00  0.00    +0.000 A 
ATOM      7  C   UNL     1      46.965   4.427  14.165  0.00  0.00    +0.000 A 
ATOM      8  C   UNL     1      47.411   5.408  13.284  0.00  0.00    +0.000 A 
ATOM      9  C   UNL     1      46.563   5.872  12.273  0.00  0.00    +0.000 A 
BRANCH   8  10
ATOM     10  O   UNL     1      48.670   5.951  13.276  0.00  0.00    +0.000 OA
BRANCH  10  11
ATOM     11  C   UNL     1      48.883   7.268  13.826  0.00  0.00    +0.000 C 
ATOM     12  C   UNL     1      49.602   8.306  12.926  0.00  0.00    +0.000 C 
ATOM     13  C   UNL     1      50.446   8.719  14.144  0.00  0.00    +0.000 C 
ATOM     14  C   UNL     1      50.111   7.357  14.772  0.00  0.00    +0.000 C 
ENDBRANCH  10  11
ENDBRANCH   8  10
ENDBRANCH   1   4
BRANCH   1  15
ATOM     15  C   UNL     1      43.420   4.664  10.593  0.00  0.00    +0.000 C 
BRANCH  15  20
ATOM     16  C   UNL     1      46.606   2.469   7.210  0.00  0.00    +0.000 A 
ATOM     17  C   UNL     1      46.015   3.724   7.231  0.00  0.00    +0.000 A 
ATOM     18  C   UNL     1      45.166   4.059   8.288  0.00  0.00    +0.000 A 
ATOM     19  C   UNL     1      44.920   3.137   9.302  0.00  0.00    +0.000 A 
ATOM     20  N   UNL     1      44.084   3.385  10.355  0.00  0.00    +0.000 N 
ATOM     21  N   UNL     1      45.496   1.919   9.289  0.00  0.00    +0.000 NA
ATOM     22  C   UNL     1      46.322   1.609   8.257  0.00  0.00    +0.000 A 
ATOM     23  H   UNL     1      44.009   2.637  11.036  0.00  0.00    +0.000 HD
BRANCH  16  25
ATOM     24  N   UNL     1      48.183   1.746   5.290  0.00  0.00    +0.000 NA
ATOM     25  C   UNL     1      47.475   2.076   6.148  0.00  0.00    +0.000 C 
ENDBRANCH  16  25
ENDBRANCH  15  20
ENDBRANCH   1  15
TORSDOF 6
ENDMDL
MODEL 9
REMARK VINA RESULT:    -5.777      3.495      5.336
REMARK INTER + INTRA:          -8.878
REMARK INTER:                  -7.719
REMARK INTRA:                  -1.159
REMARK UNBOUND:                -1.075
REMARK  Name = 
REMARK  6 active torsions:
REMARK  status: ('A' for Active; 'I' for Inactive)
REMARK    1  A    between atoms: C_2  and  C_3
REMARK    2  A    between atoms: N_7  and  C_8
REMARK    3  A    between atoms: C_8  and  C_9
REMARK    4  A    between atoms: C_9  and  C_12
REMARK    5  A    between atoms: C_16  and  O_17
REMARK    6  A    between atoms: O_17  and  C_18
REMARK                            x       y       z     vdW  Elec       q    Type
REMARK                         _______ _______ _______ _____ _____    ______ ____
ROOT
ATOM      1  C   UNL     1      49.260   7.583  13.336  0.00  0.00    +0.000 C 
ATOM      2  F   UNL     1      49.389   6.510  12.501  0.00  0.00    +0.000 F 
ATOM      3  F   UNL     1      50.020   8.570  12.774  0.00  0.00    +0.000 F 
ENDROOT
BRANCH   1   4
ATOM      4  C   UNL     1      49.693   7.264  14.755  0.00  0.00    +0.000 A 
ATOM      5  C   UNL     1      50.969   7.626  15.210  0.00  0.00    +0.000 A 
ATOM      6  C   UNL     1      51.336   7.401  16.538  0.00  0.00    +0.000 A 
ATOM      7  C   UNL     1      50.437   6.809  17.430  0.00  0.00    +0.000 A 
ATOM      8  C   UNL     1      49.171   6.435  16.988  0.00  0.00    +0.000 A 
ATOM      9  C   UNL     1      48.802   6.665  15.659  0.00  0.00    +0.000 A 
BRANCH   8  10
ATOM     10  O   UNL     1      48.189   5.886  17.773  0.00  0.00    +0.000 OA
BRANCH  10  11
ATOM     11  C   UNL     1      48.155   4.458  17.980  0.00  0.00    +0.000 C 
ATOM     12  C   UNL     1      49.309   3.624  17.367  0.00  0.00    +0.000 C 
ATOM     13  C   UNL     1      48.264   2.603  16.888  0.00  0.00    +0.000 C 
ATOM     14  C   UNL     1      47.205   3.709  17.008  0.00  0.00    +0.000 C 
ENDBRANCH  10  11
ENDBRANCH   8  10
ENDBRANCH   1   4
BRANCH   1  15
ATOM     15  C   UNL     1      47.779   8.037  13.342  0.00  0.00    +0.000 C 
BRANCH  15  20
ATOM     16  C   UNL     1      44.581   4.272  11.924  0.00  0.00    +0.000 A 
ATOM     17  C   UNL     1      45.289   4.480  13.100  0.00  0.00    +0.000 A 
ATOM     18  C   UNL     1      46.108   5.604  13.211  0.00  0.00    +0.000 A 
ATOM     19  C   UNL     1      46.211   6.500  12.150  0.00  0.00    +0.000 A 
ATOM     20  N   UNL     1      47.009   7.609  12.177  0.00  0.00    +0.000 N 
ATOM     21  N   UNL     1      45.521   6.306  11.008  0.00  0.00    +0.000 NA
ATOM     22  C   UNL     1      44.725   5.210  10.916  0.00  0.00    +0.000 A 
ATOM     23  H   UNL     1      46.976   8.190  11.346  0.00  0.00    +0.000 HD
BRANCH  16  25
ATOM     24  N   UNL     1      43.045   2.213  11.612  0.00  0.00    +0.000 NA
ATOM     25  C   UNL     1      43.736   3.135  11.758  0.00  0.00    +0.000 C 
ENDBRANCH  16  25
ENDBRANCH  15  20
ENDBRANCH   1  15
TORSDOF 6
ENDMDL
