MODEL 1
REMARK VINA RESULT:    -7.702      0.000      0.000
REMARK INTER + INTRA:         -10.218
REMARK INTER:                  -9.728
REMARK INTRA:                  -0.489
REMARK UNBOUND:                -0.489
REMARK  Name = 
REMARK  5 active torsions:
REMARK  status: ('A' for Active; 'I' for Inactive)
REMARK    1  A    between atoms: N_1  and  C_2
REMARK    2  A    between atoms: C_2  and  C_3
REMARK    3  A    between atoms: C_3  and  C_4
REMARK    4  A    between atoms: C_7  and  C_8
REMARK    5  A    between atoms: C_8  and  N_9
REMARK                            x       y       z     vdW  Elec       q    Type
REMARK                         _______ _______ _______ _____ _____    ______ ____
ROOT
ATOM      1  C   UNL     1      46.139   2.263   7.777  0.00  0.00    +0.000 A 
ATOM      2  C   UNL     1      45.387   1.671   8.789  0.00  0.00    +0.000 A 
ATOM      3  C   UNL     1      44.593   2.466   9.611  0.00  0.00    +0.000 A 
ATOM      4  C   UNL     1      44.583   3.847   9.417  0.00  0.00    +0.000 A 
ATOM      5  N   UNL     1      45.292   4.439   8.420  0.00  0.00    +0.000 NA
ATOM      6  C   UNL     1      46.043   3.643   7.626  0.00  0.00    +0.000 A 
ENDROOT
BRANCH   1   7
ATOM      7  C   UNL     1      46.990   1.438   6.852  0.00  0.00    +0.000 C 
BRANCH   7   8
ATOM      8  C   UNL     1      48.269   2.182   6.448  0.00  0.00    +0.000 C 
BRANCH   8   9
ATOM      9  N   UNL     1      48.270   2.505   5.024  0.00  0.00    +0.000 NA
ATOM     10  H   UNL     1      48.063   1.663   4.488  0.00  0.00    +0.000 HD
ATOM     11  H   UNL     1      49.203   2.799   4.738  0.00  0.00    +0.000 HD
ENDBRANCH   8   9
ENDBRANCH   7   8
ENDBRANCH   1   7
BRANCH   4  12
ATOM     12  C   UNL     1      43.775   4.761  10.306  0.00  0.00    +0.000 C 
BRANCH  12  13
ATOM     13  N   UNL     1      44.373   4.870  11.622  0.00  0.00    +0.000 N 
ATOM     14  N   UNL     1      43.853   4.177  12.658  0.00  0.00    +0.000 NA
ATOM     15  N   UNL     1      44.681   4.317  13.684  0.00  0.00    +0.000 NA
ATOM     16  C   UNL     1      45.710   5.132  13.294  0.00  0.00    +0.000 A 
ATOM     17  C   UNL     1      46.853   5.559  13.985  0.00  0.00    +0.000 A 
ATOM     18  C   UNL     1      47.756   6.402  13.325  0.00  0.00    +0.000 A 
ATOM     19  C   UNL     1      47.515   6.829  12.017  0.00  0.00    +0.000 A 
ATOM     20  C   UNL     1      46.382   6.409  11.310  0.00  0.00    +0.000 A 
ATOM     21  C   UNL     1      45.511   5.545  11.983  0.00  0.00    +0.000 A 
ENDBRANCH  12  13
ENDBRANCH   4  12
TORSDOF 5
ENDMDL
MODEL 2
REMARK VINA RESULT:    -7.247      1.544      6.523
REMARK INTER + INTRA:          -9.643
REMARK INTER:                  -9.198
REMARK INTRA:                  -0.444
REMARK UNBOUND:                -0.489
REMARK  Name = 
REMARK  5 active torsions:
REMARK  status: ('A' for Active; 'I' for Inactive)
REMARK    1  A    between atoms: N_1  and  C_2
REMARK    2  A    between atoms: C_2  and  C_3
REMARK    3  A    between atoms: C_3  and  C_4
REMARK    4  A    between atoms: C_7  and  C_8
REMARK    5  A    between atoms: C_8  and  N_9
REMARK                            x       y       z     vdW  Elec       q    Type
REMARK                         _______ _______ _______ _____ _____    ______ ____
ROOT
ATOM      1  C   UNL     1      46.567   4.780  13.806  0.00  0.00    +0.000 A 
ATOM      2  C   UNL     1      46.055   5.889  13.138  0.00  0.00    +0.000 A 
ATOM      3  C   UNL     1      45.298   5.707  11.984  0.00  0.00    +0.000 A 
ATOM      4  C   UNL     1      45.086   4.414  11.506  0.00  0.00    +0.000 A 
ATOM      5  N   UNL     1      45.558   3.319  12.159  0.00  0.00    +0.000 NA
ATOM      6  C   UNL     1      46.277   3.523  13.286  0.00  0.00    +0.000 A 
ENDROOT
BRANCH   1   7
ATOM      7  C   UNL     1      47.369   4.931  15.070  0.00  0.00    +0.000 C 
BRANCH   7   8
ATOM      8  C   UNL     1      47.498   3.599  15.818  0.00  0.00    +0.000 C 
BRANCH   8   9
ATOM      9  N   UNL     1      46.733   3.611  17.062  0.00  0.00    +0.000 NA
ATOM     10  H   UNL     1      46.489   4.571  17.299  0.00  0.00    +0.000 HD
ATOM     11  H   UNL     1      47.314   3.271  17.828  0.00  0.00    +0.000 HD
ENDBRANCH   8   9
ENDBRANCH   7   8
ENDBRANCH   1   7
BRANCH   4  12
ATOM     12  C   UNL     1      44.310   4.161  10.237  0.00  0.00    +0.000 C 
BRANCH  12  13
ATOM     13  N   UNL     1      45.200   4.031   9.100  0.00  0.00    +0.000 N 
ATOM     14  N   UNL     1      45.734   5.133   8.533  0.00  0.00    +0.000 NA
ATOM     15  N   UNL     1      46.631   4.728   7.644  0.00  0.00    +0.000 NA
ATOM     16  C   UNL     1      46.633   3.359   7.635  0.00  0.00    +0.000 A 
ATOM     17  C   UNL     1      47.415   2.449   6.909  0.00  0.00    +0.000 A 
ATOM     18  C   UNL     1      47.201   1.079   7.106  0.00  0.00    +0.000 A 
ATOM     19  C   UNL     1      46.216   0.625   7.987  0.00  0.00    +0.000 A 
ATOM     20  C   UNL     1      45.429   1.519   8.724  0.00  0.00    +0.000 A 
ATOM     21  C   UNL     1      45.683   2.882   8.529  0.00  0.00    +0.000 A 
ENDBRANCH  12  13
ENDBRANCH   4  12
TORSDOF 5
ENDMDL
MODEL 3
REMARK VINA RESULT:    -6.552      1.891      6.660
REMARK INTER + INTRA:          -8.765
REMARK INTER:                  -8.545
REMARK INTRA:                  -0.221
REMARK UNBOUND:                -0.489
REMARK  Name = 
REMARK  5 active torsions:
REMARK  status: ('A' for Active; 'I' for Inactive)
REMARK    1  A    between atoms: N_1  and  C_2
REMARK    2  A    between atoms: C_2  and  C_3
REMARK    3  A    between atoms: C_3  and  C_4
REMARK    4  A    between atoms: C_7  and  C_8
REMARK    5  A    between atoms: C_8  and  N_9
REMARK                            x       y       z     vdW  Elec       q    Type
REMARK                         _______ _______ _______ _____ _____    ______ ____
ROOT
ATOM      1  C   UNL     1      45.316   7.540  12.173  0.00  0.00    +0.000 A 
ATOM      2  C   UNL     1      44.063   7.316  11.607  0.00  0.00    +0.000 A 
ATOM      3  C   UNL     1      43.796   6.097  10.990  0.00  0.00    +0.000 A 
ATOM      4  C   UNL     1      44.799   5.130  10.931  0.00  0.00    +0.000 A 
ATOM      5  N   UNL     1      46.019   5.323  11.499  0.00  0.00    +0.000 NA
ATOM      6  C   UNL     1      46.248   6.510  12.106  0.00  0.00    +0.000 A 
ENDROOT
BRANCH   1   7
ATOM      7  C   UNL     1      45.637   8.833  12.871  0.00  0.00    +0.000 C 
BRANCH   7   8
ATOM      8  C   UNL     1      47.097   8.875  13.337  0.00  0.00    +0.000 C 
BRANCH   8   9
ATOM      9  N   UNL     1      47.192   8.879  14.794  0.00  0.00    +0.000 NA
ATOM     10  H   UNL     1      47.874   9.578  15.085  0.00  0.00    +0.000 HD
ATOM     11  H   UNL     1      47.551   7.982  15.119  0.00  0.00    +0.000 HD
ENDBRANCH   8   9
ENDBRANCH   7   8
ENDBRANCH   1   7
BRANCH   4  12
ATOM     12  C   UNL     1      44.579   3.808  10.237  0.00  0.00    +0.000 C 
BRANCH  12  13
ATOM     13  N   UNL     1      45.328   3.740   8.998  0.00  0.00    +0.000 N 
ATOM     14  N   UNL     1      45.689   4.876   8.365  0.00  0.00    +0.000 NA
ATOM     15  N   UNL     1      46.501   4.537   7.373  0.00  0.00    +0.000 NA
ATOM     16  C   UNL     1      46.620   3.173   7.367  0.00  0.00    +0.000 A 
ATOM     17  C   UNL     1      47.382   2.325   6.551  0.00  0.00    +0.000 A 
ATOM     18  C   UNL     1      47.314   0.944   6.776  0.00  0.00    +0.000 A 
ATOM     19  C   UNL     1      46.489   0.419   7.776  0.00  0.00    +0.000 A 
ATOM     20  C   UNL     1      45.726   1.252   8.603  0.00  0.00    +0.000 A 
ATOM     21  C   UNL     1      45.834   2.629   8.374  0.00  0.00    +0.000 A 
ENDBRANCH  12  13
ENDBRANCH   4  12
TORSDOF 5
ENDMDL
MODEL 4
REMARK VINA RESULT:    -6.370      2.193      5.968
REMARK INTER + INTRA:          -8.536
REMARK INTER:                  -8.114
REMARK INTRA:                  -0.421
REMARK UNBOUND:                -0.489
REMARK  Name = 
REMARK  5 active torsions:
REMARK  status: ('A' for Active; 'I' for Inactive)
REMARK    1  A    between atoms: N_1  and  C_2
REMARK    2  A    between atoms: C_2  and  C_3
REMARK    3  A    between atoms: C_3  and  C_4
REMARK    4  A    between atoms: C_7  and  C_8
REMARK    5  A    between atoms: C_8  and  N_9
REMARK                            x       y       z     vdW  Elec       q    Type
REMARK                         _______ _______ _______ _____ _____    ______ ____
ROOT
ATOM      1  C   UNL     1      46.616   7.619  13.078  0.00  0.00    +0.000 A 
ATOM      2  C   UNL     1      46.402   6.270  13.353  0.00  0.00    +0.000 A 
ATOM      3  C   UNL     1      45.411   5.577  12.664  0.00  0.00    +0.000 A 
ATOM      4  C   UNL     1      44.635   6.254  11.723  0.00  0.00    +0.000 A 
ATOM      5  N   UNL     1      44.846   7.564  11.425  0.00  0.00    +0.000 NA
ATOM      6  C   UNL     1      45.825   8.210  12.098  0.00  0.00    +0.000 A 
ENDROOT
BRANCH   1   7
ATOM      7  C   UNL     1      47.693   8.398  13.782  0.00  0.00    +0.000 C 
BRANCH   7   8
ATOM      8  C   UNL     1      48.581   7.486  14.636  0.00  0.00    +0.000 C 
BRANCH   8   9
ATOM      9  N   UNL     1      49.804   7.120  13.928  0.00  0.00    +0.000 NA
ATOM     10  H   UNL     1      49.654   6.245  13.427  0.00  0.00    +0.000 HD
ATOM     11  H   UNL     1      50.550   6.936  14.598  0.00  0.00    +0.000 HD
ENDBRANCH   8   9
ENDBRANCH   7   8
ENDBRANCH   1   7
BRANCH   4  12
ATOM     12  C   UNL     1      43.520   5.564  10.978  0.00  0.00    +0.000 C 
BRANCH  12  13
ATOM     13  N   UNL     1      43.920   4.235  10.555  0.00  0.00    +0.000 N 
ATOM     14  N   UNL     1      43.335   3.149  11.103  0.00  0.00    +0.000 NA
ATOM     15  N   UNL     1      43.752   2.089  10.424  0.00  0.00    +0.000 NA
ATOM     16  C   UNL     1      44.630   2.516   9.464  0.00  0.00    +0.000 A 
ATOM     17  C   UNL     1      45.317   1.805   8.470  0.00  0.00    +0.000 A 
ATOM     18  C   UNL     1      46.163   2.512   7.606  0.00  0.00    +0.000 A 
ATOM     19  C   UNL     1      46.337   3.892   7.743  0.00  0.00    +0.000 A 
ATOM     20  C   UNL     1      45.656   4.619   8.727  0.00  0.00    +0.000 A 
ATOM     21  C   UNL     1      44.796   3.892   9.558  0.00  0.00    +0.000 A 
ENDBRANCH  12  13
ENDBRANCH   4  12
TORSDOF 5
ENDMDL
MODEL 5
REMARK VINA RESULT:    -6.331      2.034      6.078
REMARK INTER + INTRA:          -8.486
REMARK INTER:                  -8.070
REMARK INTRA:                  -0.415
REMARK UNBOUND:                -0.489
REMARK  Name = 
REMARK  5 active torsions:
REMARK  status: ('A' for Active; 'I' for Inactive)
REMARK    1  A    between atoms: N_1  and  C_2
REMARK    2  A    between atoms: C_2  and  C_3
REMARK    3  A    between atoms: C_3  and  C_4
REMARK    4  A    between atoms: C_7  and  C_8
REMARK    5  A    between atoms: C_8  and  N_9
REMARK                            x       y       z     vdW  Elec       q    Type
REMARK                         _______ _______ _______ _____ _____    ______ ____
ROOT
ATOM      1  C   UNL     1      46.039   6.593  12.488  0.00  0.00    +0.000 A 
ATOM      2  C   UNL     1      44.852   5.912  12.747  0.00  0.00    +0.000 A 
ATOM      3  C   UNL     1      44.239   5.185  11.730  0.00  0.00    +0.000 A 
ATOM      4  C   UNL     1      44.818   5.171  10.462  0.00  0.00    +0.000 A 
ATOM      5  N   UNL     1      45.989   5.809  10.197  0.00  0.00    +0.000 NA
ATOM      6  C   UNL     1      46.571   6.495  11.206  0.00  0.00    +0.000 A 
ENDROOT
BRANCH   1   7
ATOM      7  C   UNL     1      46.745   7.369  13.565  0.00  0.00    +0.000 C 
BRANCH   7   8
ATOM      8  C   UNL     1      48.087   6.726  13.935  0.00  0.00    +0.000 C 
BRANCH   8   9
ATOM      9  N   UNL     1      47.922   5.703  14.963  0.00  0.00    +0.000 NA
ATOM     10  H   UNL     1      47.392   6.092  15.742  0.00  0.00    +0.000 HD
ATOM     11  H   UNL     1      48.832   5.445  15.343  0.00  0.00    +0.000 HD
ENDBRANCH   8   9
ENDBRANCH   7   8
ENDBRANCH   1   7
BRANCH   4  12
ATOM     12  C   UNL     1      44.175   4.435   9.311  0.00  0.00    +0.000 C 
BRANCH  12  13
ATOM     13  N   UNL     1      44.893   3.211   9.010  0.00  0.00    +0.000 N 
ATOM     14  N   UNL     1      44.503   2.046   9.569  0.00  0.00    +0.000 NA
ATOM     15  N   UNL     1      45.205   1.077   8.997  0.00  0.00    +0.000 NA
ATOM     16  C   UNL     1      46.064   1.648   8.096  0.00  0.00    +0.000 A 
ATOM     17  C   UNL     1      46.986   1.065   7.214  0.00  0.00    +0.000 A 
ATOM     18  C   UNL     1      47.743   1.906   6.388  0.00  0.00    +0.000 A 
ATOM     19  C   UNL     1      47.601   3.295   6.455  0.00  0.00    +0.000 A 
ATOM     20  C   UNL     1      46.682   3.893   7.326  0.00  0.00    +0.000 A 
ATOM     21  C   UNL     1      45.919   3.029   8.119  0.00  0.00    +0.000 A 
ENDBRANCH  12  13
ENDBRANCH   4  12
TORSDOF 5
ENDMDL
MODEL 6
REMARK VINA RESULT:    -6.249      2.456      5.723
REMARK INTER + INTRA:          -8.382
REMARK INTER:                  -7.906
REMARK INTRA:                  -0.476
REMARK UNBOUND:                -0.489
REMARK  Name = 
REMARK  5 active torsions:
REMARK  status: ('A' for Active; 'I' for Inactive)
REMARK    1  A    between atoms: N_1  and  C_2
REMARK    2  A    between atoms: C_2  and  C_3
REMARK    3  A    between atoms: C_3  and  C_4
REMARK    4  A    between atoms: C_7  and  C_8
REMARK    5  A    between atoms: C_8  and  N_9
REMARK                            x       y       z     vdW  Elec       q    Type
REMARK                         _______ _______ _______ _____ _____    ______ ____
ROOT
ATOM      1  C   UNL     1      48.052   7.067  13.134  0.00  0.00    +0.000 A 
ATOM      2  C   UNL     1      47.298   7.888  12.299  0.00  0.00    +0.000 A 
ATOM      3  C   UNL     1      45.982   7.545  12.003  0.00  0.00    +0.000 A 
ATOM      4  C   UNL     1      45.450   6.370  12.534  0.00  0.00    +0.000 A 
ATOM      5  N   UNL     1      46.164   5.570  13.370  0.00  0.00    +0.000 NA
ATOM      6  C   UNL     1      47.435   5.934  13.653  0.00  0.00    +0.000 A 
ENDROOT
BRANCH   1   7
ATOM      7  C   UNL     1      49.470   7.415  13.499  0.00  0.00    +0.000 C 
BRANCH   7   8
ATOM      8  C   UNL     1      50.159   8.212  12.385  0.00  0.00    +0.000 C 
BRANCH   8   9
ATOM      9  N   UNL     1      50.995   7.352  11.554  0.00  0.00    +0.000 NA
ATOM     10  H   UNL     1      50.956   7.675  10.588  0.00  0.00    +0.000 HD
ATOM     11  H   UNL     1      50.619   6.404  11.550  0.00  0.00    +0.000 HD
ENDBRANCH   8   9
ENDBRANCH   7   8
ENDBRANCH   1   7
BRANCH   4  12
ATOM     12  C   UNL     1      44.044   5.927  12.212  0.00  0.00    +0.000 C 
BRANCH  12  13
ATOM     13  N   UNL     1      44.037   4.601  11.625  0.00  0.00    +0.000 N 
ATOM     14  N   UNL     1      43.353   3.602  12.223  0.00  0.00    +0.000 NA
ATOM     15  N   UNL     1      43.368   2.563  11.400  0.00  0.00    +0.000 NA
ATOM     16  C   UNL     1      44.095   2.907  10.291  0.00  0.00    +0.000 A 
ATOM     17  C   UNL     1      44.378   2.187   9.123  0.00  0.00    +0.000 A 
ATOM     18  C   UNL     1      45.158   2.799   8.133  0.00  0.00    +0.000 A 
ATOM     19  C   UNL     1      45.663   4.090   8.314  0.00  0.00    +0.000 A 
ATOM     20  C   UNL     1      45.386   4.825   9.473  0.00  0.00    +0.000 A 
ATOM     21  C   UNL     1      44.581   4.200  10.432  0.00  0.00    +0.000 A 
ENDBRANCH  12  13
ENDBRANCH   4  12
TORSDOF 5
ENDMDL
MODEL 7
REMARK VINA RESULT:    -6.212      4.442      7.026
REMARK INTER + INTRA:          -8.336
REMARK INTER:                  -7.851
REMARK INTRA:                  -0.485
REMARK UNBOUND:                -0.489
REMARK  Name = 
REMARK  5 active torsions:
REMARK  status: ('A' for Active; 'I' for Inactive)
REMARK    1  A    between atoms: N_1  and  C_2
REMARK    2  A    between atoms: C_2  and  C_3
REMARK    3  A    between atoms: C_3  and  C_4
REMARK    4  A    between atoms: C_7  and  C_8
REMARK    5  A    between atoms: C_8  and  N_9
REMARK                            x       y       z     vdW  Elec       q    Type
REMARK                         _______ _______ _______ _____ _____    ______ ____
ROOT
ATOM      1  C   UNL     1      46.940   5.766  13.065  0.00  0.00    +0.000 A 
ATOM      2  C   UNL     1      47.855   6.264  13.989  0.00  0.00    +0.000 A 
ATOM      3  C   UNL     1      48.033   5.609  15.204  0.00  0.00    +0.000 A 
ATOM      4  C   UNL     1      47.272   4.474  15.482  0.00  0.00    +0.000 A 
ATOM      5  N   UNL     1      46.391   3.959  14.583  0.00  0.00    +0.000 NA
ATOM      6  C   UNL     1      46.249   4.606  13.404  0.00  0.00    +0.000 A 
ENDROOT
BRANCH   1   7
ATOM      7  C   UNL     1      46.736   6.429  11.731  0.00  0.00    +0.000 C 
BRANCH   7   8
ATOM      8  C   UNL     1      45.430   5.974  11.069  0.00  0.00    +0.000 C 
BRANCH   8   9
ATOM      9  N   UNL     1      45.646   5.584   9.679  0.00  0.00    +0.000 NA
ATOM     10  H   UNL     1      46.642   5.437   9.521  0.00  0.00    +0.000 HD
ATOM     11  H   UNL     1      45.373   6.346   9.060  0.00  0.00    +0.000 HD
ENDBRANCH   8   9
ENDBRANCH   7   8
ENDBRANCH   1   7
BRANCH   4  12
ATOM     12  C   UNL     1      47.392   3.748  16.800  0.00  0.00    +0.000 C 
BRANCH  12  13
ATOM     13  N   UNL     1      48.657   3.045  16.893  0.00  0.00    +0.000 N 
ATOM     14  N   UNL     1      48.891   1.972  16.108  0.00  0.00    +0.000 NA
ATOM     15  N   UNL     1      50.163   1.634  16.266  0.00  0.00    +0.000 NA
ATOM     16  C   UNL     1      50.719   2.485  17.183  0.00  0.00    +0.000 A 
ATOM     17  C   UNL     1      52.031   2.576  17.670  0.00  0.00    +0.000 A 
ATOM     18  C   UNL     1      52.324   3.564  18.618  0.00  0.00    +0.000 A 
ATOM     19  C   UNL     1      51.329   4.426  19.088  0.00  0.00    +0.000 A 
ATOM     20  C   UNL     1      50.015   4.352  18.610  0.00  0.00    +0.000 A 
ATOM     21  C   UNL     1      49.757   3.374  17.642  0.00  0.00    +0.000 A 
ENDBRANCH  12  13
ENDBRANCH   4  12
TORSDOF 5
ENDMDL
MODEL 8
REMARK VINA RESULT:    -5.318      4.818      6.399
REMARK INTER + INTRA:          -7.206
REMARK INTER:                  -6.900
REMARK INTRA:                  -0.306
REMARK UNBOUND:                -0.489
REMARK  Name = 
REMARK  5 active torsions:
REMARK  status: ('A' for Active; 'I' for Inactive)
REMARK    1  A    between atoms: N_1  and  C_2
REMARK    2  A    between atoms: C_2  and  C_3
REMARK    3  A    between atoms: C_3  and  C_4
REMARK    4  A    between atoms: C_7  and  C_8
REMARK    5  A    between atoms: C_8  and  N_9
REMARK                            x       y       z     vdW  Elec       q    Type
REMARK                         _______ _______ _______ _____ _____    ______ ____
ROOT
ATOM      1  C   UNL     1      48.688   7.457  12.272  0.00  0.00    +0.000 A 
ATOM      2  C   UNL     1      47.479   7.010  11.745  0.00  0.00    +0.000 A 
ATOM      3  C   UNL     1      46.686   6.137  12.485  0.00  0.00    +0.000 A 
ATOM      4  C   UNL     1      47.132   5.708  13.734  0.00  0.00    +0.000 A 
ATOM      5  N   UNL     1      48.298   6.152  14.275  0.00  0.00    +0.000 NA
ATOM      6  C   UNL     1      49.041   7.012  13.542  0.00  0.00    +0.000 A 
ENDROOT
BRANCH   1   7
ATOM      7  C   UNL     1      49.562   8.420  11.515  0.00  0.00    +0.000 C 
BRANCH   7   8
ATOM      8  C   UNL     1      51.048   8.171  11.795  0.00  0.00    +0.000 C 
BRANCH   8   9
ATOM      9  N   UNL     1      51.595   7.153  10.902  0.00  0.00    +0.000 NA
ATOM     10  H   UNL     1      52.572   6.987  11.139  0.00  0.00    +0.000 HD
ATOM     11  H   UNL     1      51.592   7.498   9.943  0.00  0.00    +0.000 HD
ENDBRANCH   8   9
ENDBRANCH   7   8
ENDBRANCH   1   7
BRANCH   4  12
ATOM     12  C   UNL     1      46.335   4.729  14.561  0.00  0.00    +0.000 C 
BRANCH  12  13
ATOM     13  N   UNL     1      47.204   3.928  15.402  0.00  0.00    +0.000 N 
ATOM     14  N   UNL     1      47.840   2.856  14.884  0.00  0.00    +0.000 NA
ATOM     15  N   UNL     1      48.690   2.418  15.802  0.00  0.00    +0.000 NA
ATOM     16  C   UNL     1      48.560   3.205  16.915  0.00  0.00    +0.000 A 
ATOM     17  C   UNL     1      49.248   3.186  18.136  0.00  0.00    +0.000 A 
ATOM     18  C   UNL     1      48.903   4.130  19.112  0.00  0.00    +0.000 A 
ATOM     19  C   UNL     1      47.882   5.057  18.885  0.00  0.00    +0.000 A 
ATOM     20  C   UNL     1      47.188   5.094  17.669  0.00  0.00    +0.000 A 
ATOM     21  C   UNL     1      47.572   4.158  16.702  0.00  0.00    +0.000 A 
ENDBRANCH  12  13
ENDBRANCH   4  12
TORSDOF 5
ENDMDL
MODEL 9
REMARK VINA RESULT:    -4.874      3.664      6.268
REMARK INTER + INTRA:          -6.646
REMARK INTER:                  -6.166
REMARK INTRA:                  -0.480
REMARK UNBOUND:                -0.489
REMARK  Name = 
REMARK  5 active torsions:
REMARK  status: ('A' for Active; 'I' for Inactive)
REMARK    1  A    between atoms: N_1  and  C_2
REMARK    2  A    between atoms: C_2  and  C_3
REMARK    3  A    between atoms: C_3  and  C_4
REMARK    4  A    between atoms: C_7  and  C_8
REMARK    5  A    between atoms: C_8  and  N_9
REMARK                            x       y       z     vdW  Elec       q    Type
REMARK                         _______ _______ _______ _____ _____    ______ ____
ROOT
ATOM      1  C   UNL     1      51.260   8.234  12.076  0.00  0.00    +0.000 A 
ATOM      2  C   UNL     1      50.180   8.021  11.223  0.00  0.00    +0.000 A 
ATOM      3  C   UNL     1      48.928   7.731  11.758  0.00  0.00    +0.000 A 
ATOM      4  C   UNL     1      48.785   7.637  13.142  0.00  0.00    +0.000 A 
ATOM      5  N   UNL     1      49.823   7.865  13.990  0.00  0.00    +0.000 NA
ATOM      6  C   UNL     1      51.025   8.161  13.445  0.00  0.00    +0.000 A 
ENDROOT
BRANCH   1   7
ATOM      7  C   UNL     1      52.624   8.574  11.539  0.00  0.00    +0.000 C 
BRANCH   7   8
ATOM      8  C   UNL     1      52.955   7.759  10.284  0.00  0.00    +0.000 C 
BRANCH   8   9
ATOM      9  N   UNL     1      53.164   6.350  10.603  0.00  0.00    +0.000 NA
ATOM     10  H   UNL     1      53.821   5.948   9.937  0.00  0.00    +0.000 HD
ATOM     11  H   UNL     1      52.292   5.836  10.484  0.00  0.00    +0.000 HD
ENDBRANCH   8   9
ENDBRANCH   7   8
ENDBRANCH   1   7
BRANCH   4  12
ATOM     12  C   UNL     1      47.462   7.283  13.775  0.00  0.00    +0.000 C 
BRANCH  12  13
ATOM     13  N   UNL     1      47.108   5.903  13.506  0.00  0.00    +0.000 N 
ATOM     14  N   UNL     1      47.557   4.922  14.317  0.00  0.00    +0.000 NA
ATOM     15  N   UNL     1      46.953   3.799  13.954  0.00  0.00    +0.000 NA
ATOM     16  C   UNL     1      46.143   4.077  12.885  0.00  0.00    +0.000 A 
ATOM     17  C   UNL     1      45.271   3.254  12.159  0.00  0.00    +0.000 A 
ATOM     18  C   UNL     1      44.551   3.816  11.097  0.00  0.00    +0.000 A 
ATOM     19  C   UNL     1      44.714   5.161  10.752  0.00  0.00    +0.000 A 
ATOM     20  C   UNL     1      45.577   5.998  11.470  0.00  0.00    +0.000 A 
ATOM     21  C   UNL     1      46.262   5.417  12.543  0.00  0.00    +0.000 A 
ENDBRANCH  12  13
ENDBRANCH   4  12
TORSDOF 5
ENDMDL
