MODEL 1
REMARK VINA RESULT:    -8.649      0.000      0.000
REMARK INTER + INTRA:         -11.957
REMARK INTER:                 -11.177
REMARK INTRA:                  -0.780
REMARK UNBOUND:                -0.780
REMARK  Name = 
REMARK  5 active torsions:
REMARK  status: ('A' for Active; 'I' for Inactive)
REMARK    1  A    between atoms: C_2  and  C_4
REMARK    2  A    between atoms: N_8  and  C_9
REMARK    3  A    between atoms: C_9  and  C_10
REMARK    4  A    between atoms: C_10  and  C_11
REMARK    5  A    between atoms: C_15  and  N_16
REMARK                            x       y       z     vdW  Elec       q    Type
REMARK                         _______ _______ _______ _____ _____    ______ ____
ROOT
ATOM      1  C   UNL     1      43.254   4.432  11.133  0.00  0.00    +0.000 C 
ENDROOT
BRANCH   1   6
ATOM      2  C   UNL     1      46.455   2.501   7.722  0.00  0.00    +0.000 A 
ATOM      3  C   UNL     1      45.575   1.848   8.578  0.00  0.00    +0.000 A 
ATOM      4  C   UNL     1      44.635   2.596   9.286  0.00  0.00    +0.000 A 
ATOM      5  C   UNL     1      44.604   3.982   9.151  0.00  0.00    +0.000 A 
ATOM      6  N   UNL     1      43.659   4.782   9.778  0.00  0.00    +0.000 N 
ATOM      7  N   UNL     1      45.468   4.629   8.342  0.00  0.00    +0.000 NA
ATOM      8  C   UNL     1      46.375   3.883   7.651  0.00  0.00    +0.000 A 
ATOM      9  H   UNL     1      43.956   5.745   9.635  0.00  0.00    +0.000 HD
BRANCH   2  11
ATOM     10  N   UNL     1      48.558   2.491   6.507  0.00  0.00    +0.000 N 
ATOM     11  C   UNL     1      47.458   1.784   6.909  0.00  0.00    +0.000 C 
ATOM     12  O   UNL     1      47.331   0.599   6.633  0.00  0.00    +0.000 OA
ATOM     13  H   UNL     1      49.287   1.969   6.036  0.00  0.00    +0.000 HD
ATOM     14  H   UNL     1      48.816   3.379   6.916  0.00  0.00    +0.000 HD
ENDBRANCH   2  11
ENDBRANCH   1   6
BRANCH   1  15
ATOM     15  C   UNL     1      43.432   5.621  12.085  0.00  0.00    +0.000 C 
BRANCH  15  16
ATOM     16  C   UNL     1      44.774   5.562  12.768  0.00  0.00    +0.000 A 
ATOM     17  C   UNL     1      45.164   4.431  13.474  0.00  0.00    +0.000 A 
ATOM     18  N   UNL     1      46.378   4.283  14.035  0.00  0.00    +0.000 NA
ATOM     19  C   UNL     1      47.244   5.317  13.886  0.00  0.00    +0.000 A 
ATOM     20  C   UNL     1      46.985   6.514  13.210  0.00  0.00    +0.000 A 
ATOM     21  C   UNL     1      45.705   6.604  12.649  0.00  0.00    +0.000 A 
BRANCH  20  22
ATOM     22  N   UNL     1      47.910   7.529  13.092  0.00  0.00    +0.000 N 
ATOM     23  C   UNL     1      47.557   8.954  13.177  0.00  0.00    +0.000 C 
ATOM     24  C   UNL     1      48.062   9.695  11.929  0.00  0.00    +0.000 C 
ATOM     25  O   UNL     1      49.472   9.494  11.736  0.00  0.00    +0.000 OA
ATOM     26  C   UNL     1      49.760   8.094  11.578  0.00  0.00    +0.000 C 
ATOM     27  C   UNL     1      49.332   7.278  12.812  0.00  0.00    +0.000 C 
ENDBRANCH  20  22
ENDBRANCH  15  16
ENDBRANCH   1  15
TORSDOF 5
ENDMDL
MODEL 2
REMARK VINA RESULT:    -8.332      2.219      3.279
REMARK INTER + INTRA:         -11.547
REMARK INTER:                 -10.896
REMARK INTRA:                  -0.651
REMARK UNBOUND:                -0.780
REMARK  Name = 
REMARK  5 active torsions:
REMARK  status: ('A' for Active; 'I' for Inactive)
REMARK    1  A    between atoms: C_2  and  C_4
REMARK    2  A    between atoms: N_8  and  C_9
REMARK    3  A    between atoms: C_9  and  C_10
REMARK    4  A    between atoms: C_10  and  C_11
REMARK    5  A    between atoms: C_15  and  N_16
REMARK                            x       y       z     vdW  Elec       q    Type
REMARK                         _______ _______ _______ _____ _____    ______ ____
ROOT
ATOM      1  C   UNL     1      43.754   4.713  11.300  0.00  0.00    +0.000 C 
ENDROOT
BRANCH   1   6
ATOM      2  C   UNL     1      46.521   2.496   7.689  0.00  0.00    +0.000 A 
ATOM      3  C   UNL     1      45.715   1.920   8.665  0.00  0.00    +0.000 A 
ATOM      4  C   UNL     1      44.878   2.737   9.424  0.00  0.00    +0.000 A 
ATOM      5  C   UNL     1      44.876   4.114   9.217  0.00  0.00    +0.000 A 
ATOM      6  N   UNL     1      44.026   4.979   9.894  0.00  0.00    +0.000 N 
ATOM      7  N   UNL     1      45.671   4.687   8.290  0.00  0.00    +0.000 NA
ATOM      8  C   UNL     1      46.477   3.874   7.552  0.00  0.00    +0.000 A 
ATOM      9  H   UNL     1      44.337   5.922   9.669  0.00  0.00    +0.000 HD
BRANCH   2  11
ATOM     10  N   UNL     1      48.496   2.342   6.284  0.00  0.00    +0.000 N 
ATOM     11  C   UNL     1      47.412   1.702   6.818  0.00  0.00    +0.000 C 
ATOM     12  O   UNL     1      47.209   0.514   6.607  0.00  0.00    +0.000 OA
ATOM     13  H   UNL     1      49.154   1.769   5.770  0.00  0.00    +0.000 HD
ATOM     14  H   UNL     1      48.828   3.233   6.627  0.00  0.00    +0.000 HD
ENDBRANCH   2  11
ENDBRANCH   1   6
BRANCH   1  15
ATOM     15  C   UNL     1      44.014   5.959  12.156  0.00  0.00    +0.000 C 
BRANCH  15  16
ATOM     16  C   UNL     1      45.475   6.070  12.507  0.00  0.00    +0.000 A 
ATOM     17  C   UNL     1      46.344   6.806  11.710  0.00  0.00    +0.000 A 
ATOM     18  N   UNL     1      47.639   7.011  12.011  0.00  0.00    +0.000 NA
ATOM     19  C   UNL     1      48.089   6.452  13.164  0.00  0.00    +0.000 A 
ATOM     20  C   UNL     1      47.332   5.684  14.054  0.00  0.00    +0.000 A 
ATOM     21  C   UNL     1      45.994   5.508  13.683  0.00  0.00    +0.000 A 
BRANCH  20  22
ATOM     22  N   UNL     1      47.849   5.143  15.212  0.00  0.00    +0.000 N 
ATOM     23  C   UNL     1      47.470   3.816  15.719  0.00  0.00    +0.000 C 
ATOM     24  C   UNL     1      46.980   3.930  17.172  0.00  0.00    +0.000 C 
ATOM     25  O   UNL     1      47.959   4.573  18.005  0.00  0.00    +0.000 OA
ATOM     26  C   UNL     1      48.239   5.896  17.517  0.00  0.00    +0.000 C 
ATOM     27  C   UNL     1      48.787   5.872  16.077  0.00  0.00    +0.000 C 
ENDBRANCH  20  22
ENDBRANCH  15  16
ENDBRANCH   1  15
TORSDOF 5
ENDMDL
MODEL 3
REMARK VINA RESULT:    -7.898      1.820      2.472
REMARK INTER + INTRA:         -10.987
REMARK INTER:                 -10.131
REMARK INTRA:                  -0.856
REMARK UNBOUND:                -0.780
REMARK  Name = 
REMARK  5 active torsions:
REMARK  status: ('A' for Active; 'I' for Inactive)
REMARK    1  A    between atoms: C_2  and  C_4
REMARK    2  A    between atoms: N_8  and  C_9
REMARK    3  A    between atoms: C_9  and  C_10
REMARK    4  A    between atoms: C_10  and  C_11
REMARK    5  A    between atoms: C_15  and  N_16
REMARK                            x       y       z     vdW  Elec       q    Type
REMARK                         _______ _______ _______ _____ _____    ______ ____
ROOT
ATOM      1  C   UNL     1      43.240   3.484  11.187  0.00  0.00    +0.000 C 
ENDROOT
BRANCH   1   6
ATOM      2  C   UNL     1      46.497   2.824   7.371  0.00  0.00    +0.000 A 
ATOM      3  C   UNL     1      46.022   4.003   7.935  0.00  0.00    +0.000 A 
ATOM      4  C   UNL     1      45.290   3.943   9.120  0.00  0.00    +0.000 A 
ATOM      5  C   UNL     1      45.021   2.710   9.709  0.00  0.00    +0.000 A 
ATOM      6  N   UNL     1      44.350   2.580  10.918  0.00  0.00    +0.000 N 
ATOM      7  N   UNL     1      45.456   1.558   9.159  0.00  0.00    +0.000 NA
ATOM      8  C   UNL     1      46.177   1.634   8.006  0.00  0.00    +0.000 A 
ATOM      9  H   UNL     1      44.158   1.587  11.035  0.00  0.00    +0.000 HD
BRANCH   2  11
ATOM     10  N   UNL     1      48.637   2.496   6.269  0.00  0.00    +0.000 N 
ATOM     11  C   UNL     1      47.309   2.799   6.137  0.00  0.00    +0.000 C 
ATOM     12  O   UNL     1      46.812   3.007   5.039  0.00  0.00    +0.000 OA
ATOM     13  H   UNL     1      49.164   2.384   5.412  0.00  0.00    +0.000 HD
ATOM     14  H   UNL     1      49.022   2.082   7.107  0.00  0.00    +0.000 HD
ENDBRANCH   2  11
ENDBRANCH   1   6
BRANCH   1  15
ATOM     15  C   UNL     1      43.439   4.219  12.519  0.00  0.00    +0.000 C 
BRANCH  15  16
ATOM     16  C   UNL     1      44.447   5.329  12.370  0.00  0.00    +0.000 A 
ATOM     17  C   UNL     1      44.132   6.486  11.668  0.00  0.00    +0.000 A 
ATOM     18  N   UNL     1      44.955   7.546  11.568  0.00  0.00    +0.000 NA
ATOM     19  C   UNL     1      46.153   7.443  12.199  0.00  0.00    +0.000 A 
ATOM     20  C   UNL     1      46.603   6.341  12.932  0.00  0.00    +0.000 A 
ATOM     21  C   UNL     1      45.700   5.273  12.997  0.00  0.00    +0.000 A 
BRANCH  20  22
ATOM     22  N   UNL     1      47.834   6.298  13.552  0.00  0.00    +0.000 N 
ATOM     23  C   UNL     1      48.045   5.713  14.885  0.00  0.00    +0.000 C 
ATOM     24  C   UNL     1      48.727   6.737  15.805  0.00  0.00    +0.000 C 
ATOM     25  O   UNL     1      49.948   7.228  15.227  0.00  0.00    +0.000 OA
ATOM     26  C   UNL     1      49.682   7.862  13.964  0.00  0.00    +0.000 C 
ATOM     27  C   UNL     1      49.042   6.888  12.957  0.00  0.00    +0.000 C 
ENDBRANCH  20  22
ENDBRANCH  15  16
ENDBRANCH   1  15
TORSDOF 5
ENDMDL
MODEL 4
REMARK VINA RESULT:    -7.538      2.346      2.946
REMARK INTER + INTRA:         -10.521
REMARK INTER:                 -10.266
REMARK INTRA:                  -0.254
REMARK UNBOUND:                -0.780
REMARK  Name = 
REMARK  5 active torsions:
REMARK  status: ('A' for Active; 'I' for Inactive)
REMARK    1  A    between atoms: C_2  and  C_4
REMARK    2  A    between atoms: N_8  and  C_9
REMARK    3  A    between atoms: C_9  and  C_10
REMARK    4  A    between atoms: C_10  and  C_11
REMARK    5  A    between atoms: C_15  and  N_16
REMARK                            x       y       z     vdW  Elec       q    Type
REMARK                         _______ _______ _______ _____ _____    ______ ____
ROOT
ATOM      1  C   UNL     1      43.511   4.522  11.185  0.00  0.00    +0.000 C 
ENDROOT
BRANCH   1   6
ATOM      2  C   UNL     1      46.565   2.690   7.589  0.00  0.00    +0.000 A 
ATOM      3  C   UNL     1      45.681   2.018   8.425  0.00  0.00    +0.000 A 
ATOM      4  C   UNL     1      44.784   2.755   9.199  0.00  0.00    +0.000 A 
ATOM      5  C   UNL     1      44.801   4.146   9.147  0.00  0.00    +0.000 A 
ATOM      6  N   UNL     1      43.899   4.940   9.844  0.00  0.00    +0.000 N 
ATOM      7  N   UNL     1      45.670   4.810   8.358  0.00  0.00    +0.000 NA
ATOM      8  C   UNL     1      46.534   4.076   7.603  0.00  0.00    +0.000 A 
ATOM      9  H   UNL     1      44.228   5.898   9.752  0.00  0.00    +0.000 HD
BRANCH   2  11
ATOM     10  N   UNL     1      47.967   2.663   5.606  0.00  0.00    +0.000 N 
ATOM     11  C   UNL     1      47.524   1.989   6.711  0.00  0.00    +0.000 C 
ATOM     12  O   UNL     1      47.931   0.866   6.975  0.00  0.00    +0.000 OA
ATOM     13  H   UNL     1      48.697   2.216   5.064  0.00  0.00    +0.000 HD
ATOM     14  H   UNL     1      47.851   3.660   5.491  0.00  0.00    +0.000 HD
ENDBRANCH   2  11
ENDBRANCH   1   6
BRANCH   1  15
ATOM     15  C   UNL     1      44.732   4.440  12.110  0.00  0.00    +0.000 C 
BRANCH  15  16
ATOM     16  C   UNL     1      45.349   5.801  12.302  0.00  0.00    +0.000 A 
ATOM     17  C   UNL     1      46.642   5.933  12.793  0.00  0.00    +0.000 A 
ATOM     18  N   UNL     1      47.280   7.112  12.910  0.00  0.00    +0.000 NA
ATOM     19  C   UNL     1      46.590   8.214  12.519  0.00  0.00    +0.000 A 
ATOM     20  C   UNL     1      45.286   8.231  12.015  0.00  0.00    +0.000 A 
ATOM     21  C   UNL     1      44.679   6.973  11.919  0.00  0.00    +0.000 A 
BRANCH  20  22
ATOM     22  N   UNL     1      44.639   9.388  11.634  0.00  0.00    +0.000 N 
ATOM     23  C   UNL     1      43.327   9.394  10.970  0.00  0.00    +0.000 C 
ATOM     24  C   UNL     1      43.408  10.189   9.657  0.00  0.00    +0.000 C 
ATOM     25  O   UNL     1      43.913  11.516   9.879  0.00  0.00    +0.000 OA
ATOM     26  C   UNL     1      45.230  11.460  10.455  0.00  0.00    +0.000 C 
ATOM     27  C   UNL     1      45.232  10.721  11.807  0.00  0.00    +0.000 C 
ENDBRANCH  20  22
ENDBRANCH  15  16
ENDBRANCH   1  15
TORSDOF 5
ENDMDL
MODEL 5
REMARK VINA RESULT:    -6.758      2.650      7.453
REMARK INTER + INTRA:          -9.513
REMARK INTER:                  -8.806
REMARK INTRA:                  -0.707
REMARK UNBOUND:                -0.780
REMARK  Name = 
REMARK  5 active torsions:
REMARK  status: ('A' for Active; 'I' for Inactive)
REMARK    1  A    between atoms: C_2  and  C_4
REMARK    2  A    between atoms: N_8  and  C_9
REMARK    3  A    between atoms: C_9  and  C_10
REMARK    4  A    between atoms: C_10  and  C_11
REMARK    5  A    between atoms: C_15  and  N_16
REMARK                            x       y       z     vdW  Elec       q    Type
REMARK                         _______ _______ _______ _____ _____    ______ ____
ROOT
ATOM      1  C   UNL     1      45.612   6.800  12.508  0.00  0.00    +0.000 C 
ENDROOT
BRANCH   1   6
ATOM      2  C   UNL     1      48.043   4.448  16.273  0.00  0.00    +0.000 A 
ATOM      3  C   UNL     1      46.990   4.000  15.483  0.00  0.00    +0.000 A 
ATOM      4  C   UNL     1      46.617   4.741  14.362  0.00  0.00    +0.000 A 
ATOM      5  C   UNL     1      47.280   5.929  14.062  0.00  0.00    +0.000 A 
ATOM      6  N   UNL     1      47.001   6.685  12.931  0.00  0.00    +0.000 N 
ATOM      7  N   UNL     1      48.287   6.386  14.834  0.00  0.00    +0.000 NA
ATOM      8  C   UNL     1      48.644   5.646  15.920  0.00  0.00    +0.000 A 
ATOM      9  H   UNL     1      47.511   7.559  13.037  0.00  0.00    +0.000 HD
BRANCH   2  11
ATOM     10  N   UNL     1      47.915   3.975  18.652  0.00  0.00    +0.000 N 
ATOM     11  C   UNL     1      48.525   3.708  17.457  0.00  0.00    +0.000 C 
ATOM     12  O   UNL     1      49.411   2.868  17.371  0.00  0.00    +0.000 OA
ATOM     13  H   UNL     1      48.182   3.395  19.437  0.00  0.00    +0.000 HD
ATOM     14  H   UNL     1      47.033   4.465  18.717  0.00  0.00    +0.000 HD
ENDBRANCH   2  11
ENDBRANCH   1   6
BRANCH   1  15
ATOM     15  C   UNL     1      45.482   6.613  10.991  0.00  0.00    +0.000 C 
BRANCH  15  16
ATOM     16  C   UNL     1      45.056   5.206  10.662  0.00  0.00    +0.000 A 
ATOM     17  C   UNL     1      44.076   4.566  11.409  0.00  0.00    +0.000 A 
ATOM     18  N   UNL     1      43.593   3.344  11.118  0.00  0.00    +0.000 NA
ATOM     19  C   UNL     1      44.118   2.730  10.027  0.00  0.00    +0.000 A 
ATOM     20  C   UNL     1      45.111   3.250   9.190  0.00  0.00    +0.000 A 
ATOM     21  C   UNL     1      45.570   4.524   9.548  0.00  0.00    +0.000 A 
BRANCH  20  22
ATOM     22  N   UNL     1      45.603   2.576   8.093  0.00  0.00    +0.000 N 
ATOM     23  C   UNL     1      45.753   1.114   8.047  0.00  0.00    +0.000 C 
ATOM     24  C   UNL     1      47.198   0.746   7.675  0.00  0.00    +0.000 C 
ATOM     25  O   UNL     1      47.598   1.374   6.446  0.00  0.00    +0.000 OA
ATOM     26  C   UNL     1      47.511   2.805   6.564  0.00  0.00    +0.000 C 
ATOM     27  C   UNL     1      46.078   3.267   6.886  0.00  0.00    +0.000 C 
ENDBRANCH  20  22
ENDBRANCH  15  16
ENDBRANCH   1  15
TORSDOF 5
ENDMDL
MODEL 6
REMARK VINA RESULT:    -6.687      4.333      8.030
REMARK INTER + INTRA:          -9.421
REMARK INTER:                  -8.758
REMARK INTRA:                  -0.663
REMARK UNBOUND:                -0.780
REMARK  Name = 
REMARK  5 active torsions:
REMARK  status: ('A' for Active; 'I' for Inactive)
REMARK    1  A    between atoms: C_2  and  C_4
REMARK    2  A    between atoms: N_8  and  C_9
REMARK    3  A    between atoms: C_9  and  C_10
REMARK    4  A    between atoms: C_10  and  C_11
REMARK    5  A    between atoms: C_15  and  N_16
REMARK                            x       y       z     vdW  Elec       q    Type
REMARK                         _______ _______ _______ _____ _____    ______ ____
ROOT
ATOM      1  C   UNL     1      48.800   7.043  16.131  0.00  0.00    +0.000 C 
ENDROOT
BRANCH   1   6
ATOM      2  C   UNL     1      51.124   2.734  17.414  0.00  0.00    +0.000 A 
ATOM      3  C   UNL     1      51.531   4.050  17.606  0.00  0.00    +0.000 A 
ATOM      4  C   UNL     1      50.628   5.083  17.359  0.00  0.00    +0.000 A 
ATOM      5  C   UNL     1      49.346   4.792  16.900  0.00  0.00    +0.000 A 
ATOM      6  N   UNL     1      48.379   5.765  16.690  0.00  0.00    +0.000 N 
ATOM      7  N   UNL     1      48.948   3.521  16.687  0.00  0.00    +0.000 NA
ATOM      8  C   UNL     1      49.839   2.523  16.941  0.00  0.00    +0.000 A 
ATOM      9  H   UNL     1      47.604   5.304  16.218  0.00  0.00    +0.000 HD
BRANCH   2  11
ATOM     10  N   UNL     1      51.402   0.412  18.071  0.00  0.00    +0.000 N 
ATOM     11  C   UNL     1      52.004   1.579  17.685  0.00  0.00    +0.000 C 
ATOM     12  O   UNL     1      53.217   1.648  17.538  0.00  0.00    +0.000 OA
ATOM     13  H   UNL     1      52.001  -0.400  18.159  0.00  0.00    +0.000 HD
ATOM     14  H   UNL     1      50.411   0.247  17.963  0.00  0.00    +0.000 HD
ENDBRANCH   2  11
ENDBRANCH   1   6
BRANCH   1  15
ATOM     15  C   UNL     1      49.037   6.931  14.620  0.00  0.00    +0.000 C 
BRANCH  15  16
ATOM     16  C   UNL     1      47.736   7.024  13.867  0.00  0.00    +0.000 A 
ATOM     17  C   UNL     1      47.091   8.245  13.711  0.00  0.00    +0.000 A 
ATOM     18  N   UNL     1      45.972   8.410  12.982  0.00  0.00    +0.000 NA
ATOM     19  C   UNL     1      45.472   7.300  12.381  0.00  0.00    +0.000 A 
ATOM     20  C   UNL     1      46.010   6.012  12.457  0.00  0.00    +0.000 A 
ATOM     21  C   UNL     1      47.173   5.908  13.231  0.00  0.00    +0.000 A 
BRANCH  20  22
ATOM     22  N   UNL     1      45.453   4.922  11.821  0.00  0.00    +0.000 N 
ATOM     23  C   UNL     1      45.088   4.922  10.397  0.00  0.00    +0.000 C 
ATOM     24  C   UNL     1      43.615   4.514  10.234  0.00  0.00    +0.000 C 
ATOM     25  O   UNL     1      43.349   3.250  10.866  0.00  0.00    +0.000 OA
ATOM     26  C   UNL     1      43.646   3.322  12.271  0.00  0.00    +0.000 C 
ATOM     27  C   UNL     1      45.123   3.676  12.528  0.00  0.00    +0.000 C 
ENDBRANCH  20  22
ENDBRANCH  15  16
ENDBRANCH   1  15
TORSDOF 5
ENDMDL
MODEL 7
REMARK VINA RESULT:    -6.565      2.152      6.898
REMARK INTER + INTRA:          -9.263
REMARK INTER:                  -8.469
REMARK INTRA:                  -0.794
REMARK UNBOUND:                -0.780
REMARK  Name = 
REMARK  5 active torsions:
REMARK  status: ('A' for Active; 'I' for Inactive)
REMARK    1  A    between atoms: C_2  and  C_4
REMARK    2  A    between atoms: N_8  and  C_9
REMARK    3  A    between atoms: C_9  and  C_10
REMARK    4  A    between atoms: C_10  and  C_11
REMARK    5  A    between atoms: C_15  and  N_16
REMARK                            x       y       z     vdW  Elec       q    Type
REMARK                         _______ _______ _______ _____ _____    ______ ____
ROOT
ATOM      1  C   UNL     1      44.632   7.465  11.324  0.00  0.00    +0.000 C 
ENDROOT
BRANCH   1   6
ATOM      2  C   UNL     1      48.968   7.509  13.933  0.00  0.00    +0.000 A 
ATOM      3  C   UNL     1      48.609   6.747  12.827  0.00  0.00    +0.000 A 
ATOM      4  C   UNL     1      47.434   7.055  12.142  0.00  0.00    +0.000 A 
ATOM      5  C   UNL     1      46.623   8.097  12.586  0.00  0.00    +0.000 A 
ATOM      6  N   UNL     1      45.472   8.495  11.919  0.00  0.00    +0.000 N 
ATOM      7  N   UNL     1      46.949   8.827  13.671  0.00  0.00    +0.000 NA
ATOM      8  C   UNL     1      48.104   8.519  14.324  0.00  0.00    +0.000 A 
ATOM      9  H   UNL     1      45.001   9.159  12.530  0.00  0.00    +0.000 HD
BRANCH   2  11
ATOM     10  N   UNL     1      51.320   7.982  14.316  0.00  0.00    +0.000 N 
ATOM     11  C   UNL     1      50.212   7.274  14.695  0.00  0.00    +0.000 C 
ATOM     12  O   UNL     1      50.245   6.505  15.646  0.00  0.00    +0.000 OA
ATOM     13  H   UNL     1      52.139   7.890  14.903  0.00  0.00    +0.000 HD
ATOM     14  H   UNL     1      51.271   8.791  13.713  0.00  0.00    +0.000 HD
ENDBRANCH   2  11
ENDBRANCH   1   6
BRANCH   1  15
ATOM     15  C   UNL     1      43.957   6.613  12.407  0.00  0.00    +0.000 C 
BRANCH  15  16
ATOM     16  C   UNL     1      43.982   5.154  12.031  0.00  0.00    +0.000 A 
ATOM     17  C   UNL     1      43.545   4.183  12.923  0.00  0.00    +0.000 A 
ATOM     18  N   UNL     1      43.465   2.874  12.620  0.00  0.00    +0.000 NA
ATOM     19  C   UNL     1      43.841   2.518  11.365  0.00  0.00    +0.000 A 
ATOM     20  C   UNL     1      44.305   3.385  10.371  0.00  0.00    +0.000 A 
ATOM     21  C   UNL     1      44.366   4.731  10.750  0.00  0.00    +0.000 A 
BRANCH  20  22
ATOM     22  N   UNL     1      44.673   2.961   9.111  0.00  0.00    +0.000 N 
ATOM     23  C   UNL     1      44.883   1.547   8.767  0.00  0.00    +0.000 C 
ATOM     24  C   UNL     1      46.278   1.359   8.152  0.00  0.00    +0.000 C 
ATOM     25  O   UNL     1      46.475   2.229   7.025  0.00  0.00    +0.000 OA
ATOM     26  C   UNL     1      46.338   3.604   7.425  0.00  0.00    +0.000 C 
ATOM     27  C   UNL     1      44.943   3.895   8.009  0.00  0.00    +0.000 C 
ENDBRANCH  20  22
ENDBRANCH  15  16
ENDBRANCH   1  15
TORSDOF 5
ENDMDL
MODEL 8
REMARK VINA RESULT:    -6.504      3.570      8.479
REMARK INTER + INTRA:          -9.185
REMARK INTER:                  -8.680
REMARK INTRA:                  -0.505
REMARK UNBOUND:                -0.780
REMARK  Name = 
REMARK  5 active torsions:
REMARK  status: ('A' for Active; 'I' for Inactive)
REMARK    1  A    between atoms: C_2  and  C_4
REMARK    2  A    between atoms: N_8  and  C_9
REMARK    3  A    between atoms: C_9  and  C_10
REMARK    4  A    between atoms: C_10  and  C_11
REMARK    5  A    between atoms: C_15  and  N_16
REMARK                            x       y       z     vdW  Elec       q    Type
REMARK                         _______ _______ _______ _____ _____    ______ ____
ROOT
ATOM      1  C   UNL     1      47.207   5.003  13.898  0.00  0.00    +0.000 C 
ENDROOT
BRANCH   1   6
ATOM      2  C   UNL     1      49.221   5.009  18.541  0.00  0.00    +0.000 A 
ATOM      3  C   UNL     1      49.225   6.008  17.573  0.00  0.00    +0.000 A 
ATOM      4  C   UNL     1      48.423   5.862  16.442  0.00  0.00    +0.000 A 
ATOM      5  C   UNL     1      47.653   4.713  16.280  0.00  0.00    +0.000 A 
ATOM      6  N   UNL     1      46.788   4.528  15.209  0.00  0.00    +0.000 N 
ATOM      7  N   UNL     1      47.659   3.726  17.199  0.00  0.00    +0.000 NA
ATOM      8  C   UNL     1      48.442   3.889  18.303  0.00  0.00    +0.000 A 
ATOM      9  H   UNL     1      46.476   3.560  15.255  0.00  0.00    +0.000 HD
BRANCH   2  11
ATOM     10  N   UNL     1      49.716   4.209  20.780  0.00  0.00    +0.000 N 
ATOM     11  C   UNL     1      50.013   5.099  19.784  0.00  0.00    +0.000 C 
ATOM     12  O   UNL     1      50.920   5.911  19.910  0.00  0.00    +0.000 OA
ATOM     13  H   UNL     1      50.326   4.211  21.588  0.00  0.00    +0.000 HD
ATOM     14  H   UNL     1      49.158   3.381  20.623  0.00  0.00    +0.000 HD
ENDBRANCH   2  11
ENDBRANCH   1   6
BRANCH   1  15
ATOM     15  C   UNL     1      46.069   5.755  13.196  0.00  0.00    +0.000 C 
BRANCH  15  16
ATOM     16  C   UNL     1      45.165   4.796  12.466  0.00  0.00    +0.000 A 
ATOM     17  C   UNL     1      43.959   4.391  13.025  0.00  0.00    +0.000 A 
ATOM     18  N   UNL     1      43.071   3.603  12.392  0.00  0.00    +0.000 NA
ATOM     19  C   UNL     1      43.405   3.198  11.140  0.00  0.00    +0.000 A 
ATOM     20  C   UNL     1      44.583   3.522  10.459  0.00  0.00    +0.000 A 
ATOM     21  C   UNL     1      45.465   4.343  11.173  0.00  0.00    +0.000 A 
BRANCH  20  22
ATOM     22  N   UNL     1      44.865   3.078   9.184  0.00  0.00    +0.000 N 
ATOM     23  C   UNL     1      44.996   1.656   8.837  0.00  0.00    +0.000 C 
ATOM     24  C   UNL     1      46.348   1.407   8.150  0.00  0.00    +0.000 C 
ATOM     25  O   UNL     1      46.521   2.264   7.010  0.00  0.00    +0.000 OA
ATOM     26  C   UNL     1      46.464   3.644   7.409  0.00  0.00    +0.000 C 
ATOM     27  C   UNL     1      45.116   3.996   8.064  0.00  0.00    +0.000 C 
ENDBRANCH  20  22
ENDBRANCH  15  16
ENDBRANCH   1  15
TORSDOF 5
ENDMDL
MODEL 9
REMARK VINA RESULT:    -6.226      3.570      5.615
REMARK INTER + INTRA:          -8.826
REMARK INTER:                  -7.955
REMARK INTRA:                  -0.870
REMARK UNBOUND:                -0.780
REMARK  Name = 
REMARK  5 active torsions:
REMARK  status: ('A' for Active; 'I' for Inactive)
REMARK    1  A    between atoms: C_2  and  C_4
REMARK    2  A    between atoms: N_8  and  C_9
REMARK    3  A    between atoms: C_9  and  C_10
REMARK    4  A    between atoms: C_10  and  C_11
REMARK    5  A    between atoms: C_15  and  N_16
REMARK                            x       y       z     vdW  Elec       q    Type
REMARK                         _______ _______ _______ _____ _____    ______ ____
ROOT
ATOM      1  C   UNL     1      46.902   8.329  13.149  0.00  0.00    +0.000 C 
ENDROOT
BRANCH   1   6
ATOM      2  C   UNL     1      44.554   4.214  11.369  0.00  0.00    +0.000 A 
ATOM      3  C   UNL     1      44.618   4.703  12.669  0.00  0.00    +0.000 A 
ATOM      4  C   UNL     1      45.148   5.974  12.892  0.00  0.00    +0.000 A 
ATOM      5  C   UNL     1      45.630   6.723  11.821  0.00  0.00    +0.000 A 
ATOM      6  N   UNL     1      46.116   8.017  11.962  0.00  0.00    +0.000 N 
ATOM      7  N   UNL     1      45.596   6.250  10.559  0.00  0.00    +0.000 NA
ATOM      8  C   UNL     1      45.067   5.011  10.357  0.00  0.00    +0.000 A 
ATOM      9  H   UNL     1      46.536   8.265  11.069  0.00  0.00    +0.000 HD
BRANCH   2  11
ATOM     10  N   UNL     1      44.557   2.197  10.015  0.00  0.00    +0.000 N 
ATOM     11  C   UNL     1      43.977   2.895  11.039  0.00  0.00    +0.000 C 
ATOM     12  O   UNL     1      43.041   2.428  11.674  0.00  0.00    +0.000 OA
ATOM     13  H   UNL     1      44.221   1.255   9.861  0.00  0.00    +0.000 HD
ATOM     14  H   UNL     1      45.467   2.431   9.642  0.00  0.00    +0.000 HD
ENDBRANCH   2  11
ENDBRANCH   1   6
BRANCH   1  15
ATOM     15  C   UNL     1      48.402   8.167  12.873  0.00  0.00    +0.000 C 
BRANCH  15  16
ATOM     16  C   UNL     1      49.096   7.534  14.050  0.00  0.00    +0.000 A 
ATOM     17  C   UNL     1      50.415   7.851  14.353  0.00  0.00    +0.000 A 
ATOM     18  N   UNL     1      51.065   7.384  15.435  0.00  0.00    +0.000 NA
ATOM     19  C   UNL     1      50.364   6.558  16.253  0.00  0.00    +0.000 A 
ATOM     20  C   UNL     1      49.039   6.149  16.068  0.00  0.00    +0.000 A 
ATOM     21  C   UNL     1      48.421   6.669  14.924  0.00  0.00    +0.000 A 
BRANCH  20  22
ATOM     22  N   UNL     1      48.380   5.306  16.938  0.00  0.00    +0.000 N 
ATOM     23  C   UNL     1      48.553   5.359  18.397  0.00  0.00    +0.000 C 
ATOM     24  C   UNL     1      48.953   3.974  18.928  0.00  0.00    +0.000 C 
ATOM     25  O   UNL     1      48.008   2.967  18.528  0.00  0.00    +0.000 OA
ATOM     26  C   UNL     1      47.931   2.897  17.093  0.00  0.00    +0.000 C 
ATOM     27  C   UNL     1      47.484   4.235  16.477  0.00  0.00    +0.000 C 
ENDBRANCH  20  22
ENDBRANCH  15  16
ENDBRANCH   1  15
TORSDOF 5
ENDMDL
