MODEL 1
REMARK VINA RESULT:    -8.312      0.000      0.000
REMARK INTER + INTRA:         -10.729
REMARK INTER:                 -10.256
REMARK INTRA:                  -0.473
REMARK UNBOUND:                -0.473
REMARK  Name = 
REMARK  4 active torsions:
REMARK  status: ('A' for Active; 'I' for Inactive)
REMARK    1  A    between atoms: C_2  and  C_4
REMARK    2  A    between atoms: C_7  and  N_8
REMARK    3  A    between atoms: N_8  and  C_9
REMARK    4  A    between atoms: C_9  and  C_10
REMARK                            x       y       z     vdW  Elec       q    Type
REMARK                         _______ _______ _______ _____ _____    ______ ____
ROOT
ATOM      1  C   UNL     1      46.415   2.346   7.770  0.00  0.00    +0.000 A 
ATOM      2  C   UNL     1      46.448   3.713   7.525  0.00  0.00    +0.000 A 
ATOM      3  N   UNL     1      45.637   4.590   8.177  0.00  0.00    +0.000 NA
ATOM      4  C   UNL     1      44.767   4.070   9.073  0.00  0.00    +0.000 A 
ATOM      5  C   UNL     1      44.739   2.681   9.283  0.00  0.00    +0.000 A 
ATOM      6  N   UNL     1      45.559   1.790   8.667  0.00  0.00    +0.000 NA
ENDROOT
BRANCH   1   8
ATOM      7  N   UNL     1      48.466   2.024   6.529  0.00  0.00    +0.000 N 
ATOM      8  C   UNL     1      47.339   1.438   7.038  0.00  0.00    +0.000 C 
ATOM      9  O   UNL     1      47.112   0.243   6.896  0.00  0.00    +0.000 OA
ATOM     10  H   UNL     1      49.140   1.460   6.034  0.00  0.00    +0.000 HD
ATOM     11  H   UNL     1      48.634   3.014   6.671  0.00  0.00    +0.000 HD
ENDBRANCH   1   8
BRANCH   4  12
ATOM     12  N   UNL     1      43.832   4.893   9.752  0.00  0.00    +0.000 N 
ATOM     13  H   UNL     1      42.893   4.685   9.427  0.00  0.00    +0.000 HD
BRANCH  12  14
ATOM     14  C   UNL     1      43.918   5.008  11.231  0.00  0.00    +0.000 C 
ATOM     15  C   UNL     1      43.003   4.151  12.092  0.00  0.00    +0.000 C 
ATOM     16  C   UNL     1      42.714   5.608  11.956  0.00  0.00    +0.000 C 
BRANCH  14  17
ATOM     17  C   UNL     1      45.283   5.425  11.778  0.00  0.00    +0.000 A 
ATOM     18  C   UNL     1      45.947   6.568  11.295  0.00  0.00    +0.000 A 
ATOM     19  C   UNL     1      47.147   7.010  11.859  0.00  0.00    +0.000 A 
ATOM     20  C   UNL     1      47.718   6.310  12.919  0.00  0.00    +0.000 A 
ATOM     21  C   UNL     1      47.101   5.158  13.395  0.00  0.00    +0.000 A 
ATOM     22  C   UNL     1      45.904   4.719  12.823  0.00  0.00    +0.000 A 
ENDBRANCH  14  17
ENDBRANCH  12  14
ENDBRANCH   4  12
TORSDOF 4
ENDMDL
MODEL 2
REMARK VINA RESULT:    -6.282      3.736      5.837
REMARK INTER + INTRA:          -8.224
REMARK INTER:                  -8.096
REMARK INTRA:                  -0.128
REMARK UNBOUND:                -0.473
REMARK  Name = 
REMARK  4 active torsions:
REMARK  status: ('A' for Active; 'I' for Inactive)
REMARK    1  A    between atoms: C_2  and  C_4
REMARK    2  A    between atoms: C_7  and  N_8
REMARK    3  A    between atoms: N_8  and  C_9
REMARK    4  A    between atoms: C_9  and  C_10
REMARK                            x       y       z     vdW  Elec       q    Type
REMARK                         _______ _______ _______ _____ _____    ______ ____
ROOT
ATOM      1  C   UNL     1      48.513   6.844  13.290  0.00  0.00    +0.000 A 
ATOM      2  C   UNL     1      47.756   7.037  12.142  0.00  0.00    +0.000 A 
ATOM      3  N   UNL     1      46.627   6.321  11.884  0.00  0.00    +0.000 NA
ATOM      4  C   UNL     1      46.275   5.385  12.795  0.00  0.00    +0.000 A 
ATOM      5  C   UNL     1      47.072   5.196  13.936  0.00  0.00    +0.000 A 
ATOM      6  N   UNL     1      48.186   5.918  14.229  0.00  0.00    +0.000 NA
ENDROOT
BRANCH   1   8
ATOM      7  N   UNL     1      50.703   7.575  12.567  0.00  0.00    +0.000 N 
ATOM      8  C   UNL     1      49.729   7.669  13.525  0.00  0.00    +0.000 C 
ATOM      9  O   UNL     1      49.858   8.386  14.509  0.00  0.00    +0.000 OA
ATOM     10  H   UNL     1      51.547   8.120  12.661  0.00  0.00    +0.000 HD
ATOM     11  H   UNL     1      50.564   6.981  11.757  0.00  0.00    +0.000 HD
ENDBRANCH   1   8
BRANCH   4  12
ATOM     12  N   UNL     1      45.155   4.540  12.584  0.00  0.00    +0.000 N 
ATOM     13  H   UNL     1      44.600   4.489  13.431  0.00  0.00    +0.000 HD
BRANCH  12  14
ATOM     14  C   UNL     1      44.329   4.735  11.363  0.00  0.00    +0.000 C 
ATOM     15  C   UNL     1      43.527   6.018  11.215  0.00  0.00    +0.000 C 
ATOM     16  C   UNL     1      42.812   4.751  11.544  0.00  0.00    +0.000 C 
BRANCH  14  17
ATOM     17  C   UNL     1      44.831   4.019  10.110  0.00  0.00    +0.000 A 
ATOM     18  C   UNL     1      45.375   4.734   9.027  0.00  0.00    +0.000 A 
ATOM     19  C   UNL     1      45.927   4.080   7.921  0.00  0.00    +0.000 A 
ATOM     20  C   UNL     1      45.937   2.689   7.869  0.00  0.00    +0.000 A 
ATOM     21  C   UNL     1      45.376   1.956   8.911  0.00  0.00    +0.000 A 
ATOM     22  C   UNL     1      44.822   2.616  10.010  0.00  0.00    +0.000 A 
ENDBRANCH  14  17
ENDBRANCH  12  14
ENDBRANCH   4  12
TORSDOF 4
ENDMDL
MODEL 3
REMARK VINA RESULT:    -6.246      4.301      6.613
REMARK INTER + INTRA:          -8.179
REMARK INTER:                  -8.075
REMARK INTRA:                  -0.104
REMARK UNBOUND:                -0.473
REMARK  Name = 
REMARK  4 active torsions:
REMARK  status: ('A' for Active; 'I' for Inactive)
REMARK    1  A    between atoms: C_2  and  C_4
REMARK    2  A    between atoms: C_7  and  N_8
REMARK    3  A    between atoms: N_8  and  C_9
REMARK    4  A    between atoms: C_9  and  C_10
REMARK                            x       y       z     vdW  Elec       q    Type
REMARK                         _______ _______ _______ _____ _____    ______ ____
ROOT
ATOM      1  C   UNL     1      48.271   5.824  15.311  0.00  0.00    +0.000 A 
ATOM      2  C   UNL     1      47.625   4.755  15.918  0.00  0.00    +0.000 A 
ATOM      3  N   UNL     1      46.826   3.897  15.225  0.00  0.00    +0.000 NA
ATOM      4  C   UNL     1      46.666   4.141  13.904  0.00  0.00    +0.000 A 
ATOM      5  C   UNL     1      47.313   5.244  13.321  0.00  0.00    +0.000 A 
ATOM      6  N   UNL     1      48.138   6.095  13.986  0.00  0.00    +0.000 NA
ENDROOT
BRANCH   1   8
ATOM      7  N   UNL     1      48.525   7.799  16.685  0.00  0.00    +0.000 N 
ATOM      8  C   UNL     1      49.145   6.718  16.118  0.00  0.00    +0.000 C 
ATOM      9  O   UNL     1      50.342   6.508  16.268  0.00  0.00    +0.000 OA
ATOM     10  H   UNL     1      49.060   8.436  17.255  0.00  0.00    +0.000 HD
ATOM     11  H   UNL     1      47.530   7.942  16.552  0.00  0.00    +0.000 HD
ENDBRANCH   1   8
BRANCH   4  12
ATOM     12  N   UNL     1      45.799   3.347  13.110  0.00  0.00    +0.000 N 
ATOM     13  H   UNL     1      45.431   2.582  13.665  0.00  0.00    +0.000 HD
BRANCH  12  14
ATOM     14  C   UNL     1      44.757   4.021  12.293  0.00  0.00    +0.000 C 
ATOM     15  C   UNL     1      44.061   5.251  12.855  0.00  0.00    +0.000 C 
ATOM     16  C   UNL     1      43.319   3.958  12.806  0.00  0.00    +0.000 C 
BRANCH  14  17
ATOM     17  C   UNL     1      44.917   3.881  10.780  0.00  0.00    +0.000 A 
ATOM     18  C   UNL     1      45.415   4.938   9.995  0.00  0.00    +0.000 A 
ATOM     19  C   UNL     1      45.657   4.783   8.627  0.00  0.00    +0.000 A 
ATOM     20  C   UNL     1      45.397   3.563   8.008  0.00  0.00    +0.000 A 
ATOM     21  C   UNL     1      44.873   2.511   8.751  0.00  0.00    +0.000 A 
ATOM     22  C   UNL     1      44.629   2.674  10.117  0.00  0.00    +0.000 A 
ENDBRANCH  14  17
ENDBRANCH  12  14
ENDBRANCH   4  12
TORSDOF 4
ENDMDL
MODEL 4
REMARK VINA RESULT:    -5.937      3.729      6.399
REMARK INTER + INTRA:          -7.798
REMARK INTER:                  -8.265
REMARK INTRA:                   0.468
REMARK UNBOUND:                -0.473
REMARK  Name = 
REMARK  4 active torsions:
REMARK  status: ('A' for Active; 'I' for Inactive)
REMARK    1  A    between atoms: C_2  and  C_4
REMARK    2  A    between atoms: C_7  and  N_8
REMARK    3  A    between atoms: N_8  and  C_9
REMARK    4  A    between atoms: C_9  and  C_10
REMARK                            x       y       z     vdW  Elec       q    Type
REMARK                         _______ _______ _______ _____ _____    ______ ____
ROOT
ATOM      1  C   UNL     1      47.174   8.071  13.298  0.00  0.00    +0.000 A 
ATOM      2  C   UNL     1      47.610   7.014  12.511  0.00  0.00    +0.000 A 
ATOM      3  N   UNL     1      46.813   6.420  11.581  0.00  0.00    +0.000 NA
ATOM      4  C   UNL     1      45.551   6.893  11.465  0.00  0.00    +0.000 A 
ATOM      5  C   UNL     1      45.129   7.948  12.291  0.00  0.00    +0.000 A 
ATOM      6  N   UNL     1      45.916   8.576  13.204  0.00  0.00    +0.000 NA
ENDROOT
BRANCH   1   8
ATOM      7  N   UNL     1      47.538   9.029  15.490  0.00  0.00    +0.000 N 
ATOM      8  C   UNL     1      48.098   8.692  14.287  0.00  0.00    +0.000 C 
ATOM      9  O   UNL     1      49.281   8.891  14.046  0.00  0.00    +0.000 OA
ATOM     10  H   UNL     1      48.115   9.441  16.208  0.00  0.00    +0.000 HD
ATOM     11  H   UNL     1      46.557   8.842  15.665  0.00  0.00    +0.000 HD
ENDBRANCH   1   8
BRANCH   4  12
ATOM     12  N   UNL     1      44.622   6.295  10.575  0.00  0.00    +0.000 N 
ATOM     13  H   UNL     1      44.807   6.606   9.627  0.00  0.00    +0.000 HD
BRANCH  12  14
ATOM     14  C   UNL     1      44.381   4.831  10.666  0.00  0.00    +0.000 C 
ATOM     15  C   UNL     1      43.067   4.336  11.248  0.00  0.00    +0.000 C 
ATOM     16  C   UNL     1      44.309   4.222  12.065  0.00  0.00    +0.000 C 
BRANCH  14  17
ATOM     17  C   UNL     1      45.101   3.981   9.620  0.00  0.00    +0.000 A 
ATOM     18  C   UNL     1      45.046   2.576   9.654  0.00  0.00    +0.000 A 
ATOM     19  C   UNL     1      45.619   1.795   8.645  0.00  0.00    +0.000 A 
ATOM     20  C   UNL     1      46.271   2.407   7.578  0.00  0.00    +0.000 A 
ATOM     21  C   UNL     1      46.370   3.794   7.535  0.00  0.00    +0.000 A 
ATOM     22  C   UNL     1      45.800   4.567   8.549  0.00  0.00    +0.000 A 
ENDBRANCH  14  17
ENDBRANCH  12  14
ENDBRANCH   4  12
TORSDOF 4
ENDMDL
MODEL 5
REMARK VINA RESULT:    -5.411      3.100      5.177
REMARK INTER + INTRA:          -7.149
REMARK INTER:                  -6.900
REMARK INTRA:                  -0.249
REMARK UNBOUND:                -0.473
REMARK  Name = 
REMARK  4 active torsions:
REMARK  status: ('A' for Active; 'I' for Inactive)
REMARK    1  A    between atoms: C_2  and  C_4
REMARK    2  A    between atoms: C_7  and  N_8
REMARK    3  A    between atoms: N_8  and  C_9
REMARK    4  A    between atoms: C_9  and  C_10
REMARK                            x       y       z     vdW  Elec       q    Type
REMARK                         _______ _______ _______ _____ _____    ______ ____
ROOT
ATOM      1  C   UNL     1      44.527   4.167  11.561  0.00  0.00    +0.000 A 
ATOM      2  C   UNL     1      44.431   4.394  12.928  0.00  0.00    +0.000 A 
ATOM      3  N   UNL     1      44.906   5.527  13.514  0.00  0.00    +0.000 NA
ATOM      4  C   UNL     1      45.505   6.430  12.704  0.00  0.00    +0.000 A 
ATOM      5  C   UNL     1      45.610   6.163  11.329  0.00  0.00    +0.000 A 
ATOM      6  N   UNL     1      45.116   5.055  10.717  0.00  0.00    +0.000 NA
ENDROOT
BRANCH   1   8
ATOM      7  N   UNL     1      44.662   2.406   9.907  0.00  0.00    +0.000 N 
ATOM      8  C   UNL     1      43.973   2.916  10.975  0.00  0.00    +0.000 C 
ATOM      9  O   UNL     1      42.967   2.373  11.413  0.00  0.00    +0.000 OA
ATOM     10  H   UNL     1      44.346   1.552   9.473  0.00  0.00    +0.000 HD
ATOM     11  H   UNL     1      45.499   2.871   9.573  0.00  0.00    +0.000 HD
ENDBRANCH   1   8
BRANCH   4  12
ATOM     12  N   UNL     1      46.094   7.609  13.229  0.00  0.00    +0.000 N 
ATOM     13  H   UNL     1      45.702   7.811  14.142  0.00  0.00    +0.000 HD
BRANCH  12  14
ATOM     14  C   UNL     1      47.574   7.749  13.192  0.00  0.00    +0.000 C 
ATOM     15  C   UNL     1      48.435   6.516  13.414  0.00  0.00    +0.000 C 
ATOM     16  C   UNL     1      48.327   7.530  14.503  0.00  0.00    +0.000 C 
BRANCH  14  17
ATOM     17  C   UNL     1      48.104   8.882  12.315  0.00  0.00    +0.000 A 
ATOM     18  C   UNL     1      47.326  10.024  12.046  0.00  0.00    +0.000 A 
ATOM     19  C   UNL     1      47.842  11.108  11.328  0.00  0.00    +0.000 A 
ATOM     20  C   UNL     1      49.149  11.069  10.853  0.00  0.00    +0.000 A 
ATOM     21  C   UNL     1      49.930   9.940  11.075  0.00  0.00    +0.000 A 
ATOM     22  C   UNL     1      49.408   8.859  11.789  0.00  0.00    +0.000 A 
ENDBRANCH  14  17
ENDBRANCH  12  14
ENDBRANCH   4  12
TORSDOF 4
ENDMDL
MODEL 6
REMARK VINA RESULT:    -5.392      4.283      6.631
REMARK INTER + INTRA:          -7.125
REMARK INTER:                  -7.559
REMARK INTRA:                   0.434
REMARK UNBOUND:                -0.473
REMARK  Name = 
REMARK  4 active torsions:
REMARK  status: ('A' for Active; 'I' for Inactive)
REMARK    1  A    between atoms: C_2  and  C_4
REMARK    2  A    between atoms: C_7  and  N_8
REMARK    3  A    between atoms: N_8  and  C_9
REMARK    4  A    between atoms: C_9  and  C_10
REMARK                            x       y       z     vdW  Elec       q    Type
REMARK                         _______ _______ _______ _____ _____    ______ ____
ROOT
ATOM      1  C   UNL     1      47.822   4.696  15.879  0.00  0.00    +0.000 A 
ATOM      2  C   UNL     1      47.096   3.926  14.980  0.00  0.00    +0.000 A 
ATOM      3  N   UNL     1      46.855   4.331  13.702  0.00  0.00    +0.000 NA
ATOM      4  C   UNL     1      47.340   5.541  13.341  0.00  0.00    +0.000 A 
ATOM      5  C   UNL     1      48.050   6.309  14.279  0.00  0.00    +0.000 A 
ATOM      6  N   UNL     1      48.329   5.914  15.549  0.00  0.00    +0.000 NA
ENDROOT
BRANCH   1   8
ATOM      7  N   UNL     1      47.183   4.620  18.211  0.00  0.00    +0.000 N 
ATOM      8  C   UNL     1      48.068   4.194  17.258  0.00  0.00    +0.000 C 
ATOM      9  O   UNL     1      49.001   3.448  17.530  0.00  0.00    +0.000 OA
ATOM     10  H   UNL     1      47.286   4.304  19.163  0.00  0.00    +0.000 HD
ATOM     11  H   UNL     1      46.414   5.229  17.954  0.00  0.00    +0.000 HD
ENDBRANCH   1   8
BRANCH   4  12
ATOM     12  N   UNL     1      47.081   6.081  12.055  0.00  0.00    +0.000 N 
ATOM     13  H   UNL     1      47.703   5.658  11.375  0.00  0.00    +0.000 HD
BRANCH  12  14
ATOM     14  C   UNL     1      45.675   6.163  11.581  0.00  0.00    +0.000 C 
ATOM     15  C   UNL     1      45.002   7.525  11.504  0.00  0.00    +0.000 C 
ATOM     16  C   UNL     1      44.619   6.588  12.600  0.00  0.00    +0.000 C 
BRANCH  14  17
ATOM     17  C   UNL     1      45.244   5.062  10.613  0.00  0.00    +0.000 A 
ATOM     18  C   UNL     1      45.595   5.106   9.251  0.00  0.00    +0.000 A 
ATOM     19  C   UNL     1      45.289   4.054   8.382  0.00  0.00    +0.000 A 
ATOM     20  C   UNL     1      44.615   2.932   8.857  0.00  0.00    +0.000 A 
ATOM     21  C   UNL     1      44.226   2.876  10.192  0.00  0.00    +0.000 A 
ATOM     22  C   UNL     1      44.530   3.933  11.053  0.00  0.00    +0.000 A 
ENDBRANCH  14  17
ENDBRANCH  12  14
ENDBRANCH   4  12
TORSDOF 4
ENDMDL
