MODEL 1
REMARK VINA RESULT:    -7.127      0.000      0.000
REMARK INTER + INTRA:         -11.612
REMARK INTER:                 -10.043
REMARK INTRA:                  -1.569
REMARK UNBOUND:                -1.569
REMARK  Name = 
REMARK  8 active torsions:
REMARK  status: ('A' for Active; 'I' for Inactive)
REMARK    1  A    between atoms: C_1  and  O_2
REMARK    2  A    between atoms: O_2  and  C_3
REMARK    3  A    between atoms: C_6  and  C_7
REMARK    4  A    between atoms: C_7  and  N_8
REMARK    5  A    between atoms: C_9  and  C_11
REMARK    6  A    between atoms: C_22  and  C_23
REMARK    7  A    between atoms: C_23  and  N_24
REMARK    8  A    between atoms: C_25  and  C_27
REMARK                            x       y       z     vdW  Elec       q    Type
REMARK                         _______ _______ _______ _____ _____    ______ ____
ROOT
ATOM      1  C   UNL     1      45.138   4.566  11.797  0.00  0.00    +0.000 A 
ATOM      2  C   UNL     1      44.366   5.532  11.138  0.00  0.00    +0.000 A 
ATOM      3  C   UNL     1      44.467   6.881  11.477  0.00  0.00    +0.000 A 
ATOM      4  C   UNL     1      45.317   7.291  12.503  0.00  0.00    +0.000 A 
ATOM      5  C   UNL     1      46.096   6.327  13.159  0.00  0.00    +0.000 A 
ATOM      6  C   UNL     1      46.017   4.961  12.823  0.00  0.00    +0.000 A 
ENDROOT
BRANCH   1   8
ATOM      7  C   UNL     1      44.583   2.873  10.227  0.00  0.00    +0.000 C 
ATOM      8  O   UNL     1      45.056   3.221  11.527  0.00  0.00    +0.000 OA
ENDBRANCH   1   8
BRANCH   4   9
ATOM      9  C   UNL     1      45.416   8.746  12.866  0.00  0.00    +0.000 C 
BRANCH   9  10
ATOM     10  N   UNL     1      46.642   9.027  13.560  0.00  0.00    +0.000 N 
ATOM     11  C   UNL     1      47.731   9.611  12.962  0.00  0.00    +0.000 C 
ATOM     12  O   UNL     1      47.733   9.951  11.784  0.00  0.00    +0.000 OA
ATOM     13  H   UNL     1      46.764   8.549  14.449  0.00  0.00    +0.000 HD
BRANCH  11  14
ATOM     14  C   UNL     1      48.873   9.881  13.845  0.00  0.00    +0.000 A 
ATOM     15  C   UNL     1      49.181  11.188  14.193  0.00  0.00    +0.000 A 
ATOM     16  S   UNL     1      50.484  11.317  15.287  0.00  0.00    +0.000 S 
ATOM     17  C   UNL     1      50.720   9.633  15.291  0.00  0.00    +0.000 A 
ATOM     18  N   UNL     1      51.711   9.064  16.029  0.00  0.00    +0.000 NA
ATOM     19  C   UNL     1      51.789   7.779  15.920  0.00  0.00    +0.000 A 
ATOM     20  N   UNL     1      50.966   7.010  15.140  0.00  0.00    +0.000 N 
ATOM     21  C   UNL     1      49.927   7.534  14.414  0.00  0.00    +0.000 A 
ATOM     22  O   UNL     1      49.160   6.809  13.789  0.00  0.00    +0.000 OA
ATOM     23  C   UNL     1      49.804   8.979  14.485  0.00  0.00    +0.000 A 
ATOM     24  H   UNL     1      51.061   6.007  15.114  0.00  0.00    +0.000 HD
ENDBRANCH  11  14
ENDBRANCH   9  10
ENDBRANCH   4   9
BRANCH   6  25
ATOM     25  C   UNL     1      46.900   3.988  13.569  0.00  0.00    +0.000 C 
BRANCH  25  26
ATOM     26  N   UNL     1      46.789   4.114  15.009  0.00  0.00    +0.000 N 
ATOM     27  C   UNL     1      47.588   3.405  15.891  0.00  0.00    +0.000 C 
ATOM     28  O   UNL     1      48.441   2.604  15.522  0.00  0.00    +0.000 OA
ATOM     29  H   UNL     1      46.008   4.644  15.367  0.00  0.00    +0.000 HD
BRANCH  27  30
ATOM     30  C   UNL     1      47.319   3.741  17.387  0.00  0.00    +0.000 C 
ATOM     31  C   UNL     1      48.380   3.199  18.354  0.00  0.00    +0.000 C 
ATOM     32  C   UNL     1      49.722   3.916  18.218  0.00  0.00    +0.000 C 
ATOM     33  C   UNL     1      49.538   5.426  18.302  0.00  0.00    +0.000 C 
ATOM     34  C   UNL     1      48.428   5.920  17.378  0.00  0.00    +0.000 C 
ATOM     35  N   UNL     1      47.165   5.204  17.585  0.00  0.00    +0.000 NA
ATOM     36  H   UNL     1      46.473   5.566  16.932  0.00  0.00    +0.000 HD
ENDBRANCH  27  30
ENDBRANCH  25  26
ENDBRANCH   6  25
TORSDOF 7
ENDMDL
MODEL 2
REMARK VINA RESULT:    -7.023      3.327      6.660
REMARK INTER + INTRA:         -11.465
REMARK INTER:                 -10.221
REMARK INTRA:                  -1.244
REMARK UNBOUND:                -1.569
REMARK  Name = 
REMARK  8 active torsions:
REMARK  status: ('A' for Active; 'I' for Inactive)
REMARK    1  A    between atoms: C_1  and  O_2
REMARK    2  A    between atoms: O_2  and  C_3
REMARK    3  A    between atoms: C_6  and  C_7
REMARK    4  A    between atoms: C_7  and  N_8
REMARK    5  A    between atoms: C_9  and  C_11
REMARK    6  A    between atoms: C_22  and  C_23
REMARK    7  A    between atoms: C_23  and  N_24
REMARK    8  A    between atoms: C_25  and  C_27
REMARK                            x       y       z     vdW  Elec       q    Type
REMARK                         _______ _______ _______ _____ _____    ______ ____
ROOT
ATOM      1  C   UNL     1      50.427   7.842  14.534  0.00  0.00    +0.000 A 
ATOM      2  C   UNL     1      50.532   7.849  13.137  0.00  0.00    +0.000 A 
ATOM      3  C   UNL     1      49.395   7.926  12.334  0.00  0.00    +0.000 A 
ATOM      4  C   UNL     1      48.125   7.964  12.908  0.00  0.00    +0.000 A 
ATOM      5  C   UNL     1      48.017   7.965  14.306  0.00  0.00    +0.000 A 
ATOM      6  C   UNL     1      49.155   7.900  15.134  0.00  0.00    +0.000 A 
ENDROOT
BRANCH   1   8
ATOM      7  C   UNL     1      52.774   8.078  14.807  0.00  0.00    +0.000 C 
ATOM      8  O   UNL     1      51.510   7.736  15.373  0.00  0.00    +0.000 OA
ENDBRANCH   1   8
BRANCH   4   9
ATOM      9  C   UNL     1      46.904   8.040  12.036  0.00  0.00    +0.000 C 
BRANCH   9  10
ATOM     10  N   UNL     1      46.330   6.739  11.831  0.00  0.00    +0.000 N 
ATOM     11  C   UNL     1      45.000   6.536  11.554  0.00  0.00    +0.000 C 
ATOM     12  O   UNL     1      44.200   7.459  11.448  0.00  0.00    +0.000 OA
ATOM     13  H   UNL     1      46.893   5.955  12.146  0.00  0.00    +0.000 HD
BRANCH  11  14
ATOM     14  C   UNL     1      44.607   5.142  11.311  0.00  0.00    +0.000 A 
ATOM     15  C   UNL     1      43.831   4.473  12.246  0.00  0.00    +0.000 A 
ATOM     16  S   UNL     1      43.399   2.892  11.772  0.00  0.00    +0.000 S 
ATOM     17  C   UNL     1      44.280   3.026  10.324  0.00  0.00    +0.000 A 
ATOM     18  N   UNL     1      44.340   1.993   9.439  0.00  0.00    +0.000 NA
ATOM     19  C   UNL     1      45.062   2.225   8.394  0.00  0.00    +0.000 A 
ATOM     20  N   UNL     1      45.731   3.396   8.151  0.00  0.00    +0.000 N 
ATOM     21  C   UNL     1      45.664   4.479   8.991  0.00  0.00    +0.000 A 
ATOM     22  O   UNL     1      46.210   5.539   8.705  0.00  0.00    +0.000 OA
ATOM     23  C   UNL     1      44.879   4.267  10.194  0.00  0.00    +0.000 A 
ATOM     24  H   UNL     1      46.261   3.527   7.304  0.00  0.00    +0.000 HD
ENDBRANCH  11  14
ENDBRANCH   9  10
ENDBRANCH   4   9
BRANCH   6  25
ATOM     25  C   UNL     1      48.953   7.919  16.632  0.00  0.00    +0.000 C 
BRANCH  25  26
ATOM     26  N   UNL     1      48.347   6.701  17.135  0.00  0.00    +0.000 N 
ATOM     27  C   UNL     1      49.038   5.783  17.910  0.00  0.00    +0.000 C 
ATOM     28  O   UNL     1      50.217   5.921  18.218  0.00  0.00    +0.000 OA
ATOM     29  H   UNL     1      47.429   6.465  16.790  0.00  0.00    +0.000 HD
BRANCH  27  30
ATOM     30  C   UNL     1      48.167   4.577  18.373  0.00  0.00    +0.000 C 
ATOM     31  C   UNL     1      47.117   4.129  17.347  0.00  0.00    +0.000 C 
ATOM     32  C   UNL     1      47.741   3.474  16.116  0.00  0.00    +0.000 C 
ATOM     33  C   UNL     1      48.705   2.367  16.523  0.00  0.00    +0.000 C 
ATOM     34  C   UNL     1      49.689   2.830  17.594  0.00  0.00    +0.000 C 
ATOM     35  N   UNL     1      49.016   3.422  18.755  0.00  0.00    +0.000 NA
ATOM     36  H   UNL     1      49.723   3.723  19.424  0.00  0.00    +0.000 HD
ENDBRANCH  27  30
ENDBRANCH  25  26
ENDBRANCH   6  25
TORSDOF 7
ENDMDL
MODEL 3
REMARK VINA RESULT:    -6.897      3.125      7.211
REMARK INTER + INTRA:         -11.288
REMARK INTER:                 -10.079
REMARK INTRA:                  -1.209
REMARK UNBOUND:                -1.569
REMARK  Name = 
REMARK  8 active torsions:
REMARK  status: ('A' for Active; 'I' for Inactive)
REMARK    1  A    between atoms: C_1  and  O_2
REMARK    2  A    between atoms: O_2  and  C_3
REMARK    3  A    between atoms: C_6  and  C_7
REMARK    4  A    between atoms: C_7  and  N_8
REMARK    5  A    between atoms: C_9  and  C_11
REMARK    6  A    between atoms: C_22  and  C_23
REMARK    7  A    between atoms: C_23  and  N_24
REMARK    8  A    between atoms: C_25  and  C_27
REMARK                            x       y       z     vdW  Elec       q    Type
REMARK                         _______ _______ _______ _____ _____    ______ ____
ROOT
ATOM      1  C   UNL     1      51.410   3.820  17.609  0.00  0.00    +0.000 A 
ATOM      2  C   UNL     1      50.795   2.577  17.408  0.00  0.00    +0.000 A 
ATOM      3  C   UNL     1      49.430   2.489  17.139  0.00  0.00    +0.000 A 
ATOM      4  C   UNL     1      48.642   3.639  17.097  0.00  0.00    +0.000 A 
ATOM      5  C   UNL     1      49.256   4.885  17.291  0.00  0.00    +0.000 A 
ATOM      6  C   UNL     1      50.635   4.994  17.552  0.00  0.00    +0.000 A 
ENDROOT
BRANCH   1   8
ATOM      7  C   UNL     1      53.206   3.250  19.054  0.00  0.00    +0.000 C 
ATOM      8  O   UNL     1      52.743   3.964  17.909  0.00  0.00    +0.000 OA
ENDBRANCH   1   8
BRANCH   4   9
ATOM      9  C   UNL     1      47.170   3.535  16.813  0.00  0.00    +0.000 C 
BRANCH   9  10
ATOM     10  N   UNL     1      46.769   4.472  15.801  0.00  0.00    +0.000 N 
ATOM     11  C   UNL     1      46.828   4.202  14.456  0.00  0.00    +0.000 C 
ATOM     12  O   UNL     1      47.220   3.127  14.016  0.00  0.00    +0.000 OA
ATOM     13  H   UNL     1      46.674   5.437  16.107  0.00  0.00    +0.000 HD
BRANCH  11  14
ATOM     14  C   UNL     1      46.314   5.257  13.572  0.00  0.00    +0.000 A 
ATOM     15  C   UNL     1      47.105   6.360  13.285  0.00  0.00    +0.000 A 
ATOM     16  S   UNL     1      46.388   7.447  12.182  0.00  0.00    +0.000 S 
ATOM     17  C   UNL     1      44.972   6.511  12.093  0.00  0.00    +0.000 A 
ATOM     18  N   UNL     1      43.923   6.894  11.315  0.00  0.00    +0.000 NA
ATOM     19  C   UNL     1      42.905   6.101  11.361  0.00  0.00    +0.000 A 
ATOM     20  N   UNL     1      42.839   4.958  12.113  0.00  0.00    +0.000 N 
ATOM     21  C   UNL     1      43.886   4.508  12.877  0.00  0.00    +0.000 A 
ATOM     22  O   UNL     1      43.823   3.440  13.475  0.00  0.00    +0.000 OA
ATOM     23  C   UNL     1      45.052   5.373  12.877  0.00  0.00    +0.000 A 
ATOM     24  H   UNL     1      42.023   4.365  12.089  0.00  0.00    +0.000 HD
ENDBRANCH  11  14
ENDBRANCH   9  10
ENDBRANCH   4   9
BRANCH   6  25
ATOM     25  C   UNL     1      51.222   6.375  17.735  0.00  0.00    +0.000 C 
BRANCH  25  26
ATOM     26  N   UNL     1      50.210   7.409  17.839  0.00  0.00    +0.000 N 
ATOM     27  C   UNL     1      50.432   8.617  18.481  0.00  0.00    +0.000 C 
ATOM     28  O   UNL     1      51.496   8.900  19.023  0.00  0.00    +0.000 OA
ATOM     29  H   UNL     1      49.275   7.171  17.543  0.00  0.00    +0.000 HD
BRANCH  27  30
ATOM     30  C   UNL     1      49.215   9.587  18.423  0.00  0.00    +0.000 C 
ATOM     31  C   UNL     1      47.877   8.899  18.123  0.00  0.00    +0.000 C 
ATOM     32  C   UNL     1      47.392   8.026  19.278  0.00  0.00    +0.000 C 
ATOM     33  C   UNL     1      47.392   8.809  20.585  0.00  0.00    +0.000 C 
ATOM     34  C   UNL     1      48.715   9.535  20.816  0.00  0.00    +0.000 C 
ATOM     35  N   UNL     1      49.101  10.374  19.677  0.00  0.00    +0.000 NA
ATOM     36  H   UNL     1      49.994  10.817  19.885  0.00  0.00    +0.000 HD
ENDBRANCH  27  30
ENDBRANCH  25  26
ENDBRANCH   6  25
TORSDOF 7
ENDMDL
MODEL 4
REMARK VINA RESULT:    -6.711      2.738      7.434
REMARK INTER + INTRA:         -11.026
REMARK INTER:                  -9.779
REMARK INTRA:                  -1.248
REMARK UNBOUND:                -1.569
REMARK  Name = 
REMARK  8 active torsions:
REMARK  status: ('A' for Active; 'I' for Inactive)
REMARK    1  A    between atoms: C_1  and  O_2
REMARK    2  A    between atoms: O_2  and  C_3
REMARK    3  A    between atoms: C_6  and  C_7
REMARK    4  A    between atoms: C_7  and  N_8
REMARK    5  A    between atoms: C_9  and  C_11
REMARK    6  A    between atoms: C_22  and  C_23
REMARK    7  A    between atoms: C_23  and  N_24
REMARK    8  A    between atoms: C_25  and  C_27
REMARK                            x       y       z     vdW  Elec       q    Type
REMARK                         _______ _______ _______ _____ _____    ______ ____
ROOT
ATOM      1  C   UNL     1      51.057   4.553  18.306  0.00  0.00    +0.000 A 
ATOM      2  C   UNL     1      50.835   3.286  17.749  0.00  0.00    +0.000 A 
ATOM      3  C   UNL     1      49.587   2.940  17.231  0.00  0.00    +0.000 A 
ATOM      4  C   UNL     1      48.525   3.841  17.288  0.00  0.00    +0.000 A 
ATOM      5  C   UNL     1      48.745   5.112  17.837  0.00  0.00    +0.000 A 
ATOM      6  C   UNL     1      50.002   5.483  18.354  0.00  0.00    +0.000 A 
ENDROOT
BRANCH   1   8
ATOM      7  C   UNL     1      53.053   3.888  19.407  0.00  0.00    +0.000 C 
ATOM      8  O   UNL     1      52.255   4.936  18.859  0.00  0.00    +0.000 OA
ENDBRANCH   1   8
BRANCH   4   9
ATOM      9  C   UNL     1      47.181   3.458  16.733  0.00  0.00    +0.000 C 
BRANCH   9  10
ATOM     10  N   UNL     1      46.730   4.413  15.758  0.00  0.00    +0.000 N 
ATOM     11  C   UNL     1      46.794   4.196  14.404  0.00  0.00    +0.000 C 
ATOM     12  O   UNL     1      47.233   3.158  13.922  0.00  0.00    +0.000 OA
ATOM     13  H   UNL     1      46.592   5.359  16.101  0.00  0.00    +0.000 HD
BRANCH  11  14
ATOM     14  C   UNL     1      46.226   5.257  13.562  0.00  0.00    +0.000 A 
ATOM     15  C   UNL     1      46.949   6.420  13.339  0.00  0.00    +0.000 A 
ATOM     16  S   UNL     1      46.179   7.511  12.277  0.00  0.00    +0.000 S 
ATOM     17  C   UNL     1      44.826   6.494  12.123  0.00  0.00    +0.000 A 
ATOM     18  N   UNL     1      43.764   6.848  11.348  0.00  0.00    +0.000 NA
ATOM     19  C   UNL     1      42.798   5.992  11.342  0.00  0.00    +0.000 A 
ATOM     20  N   UNL     1      42.794   4.812  12.038  0.00  0.00    +0.000 N 
ATOM     21  C   UNL     1      43.858   4.393  12.796  0.00  0.00    +0.000 A 
ATOM     22  O   UNL     1      43.855   3.296  13.344  0.00  0.00    +0.000 OA
ATOM     23  C   UNL     1      44.967   5.328  12.855  0.00  0.00    +0.000 A 
ATOM     24  H   UNL     1      42.018   4.172  11.974  0.00  0.00    +0.000 HD
ENDBRANCH  11  14
ENDBRANCH   9  10
ENDBRANCH   4   9
BRANCH   6  25
ATOM     25  C   UNL     1      50.160   6.877  18.917  0.00  0.00    +0.000 C 
BRANCH  25  26
ATOM     26  N   UNL     1      49.184   7.812  18.392  0.00  0.00    +0.000 N 
ATOM     27  C   UNL     1      49.520   9.085  17.957  0.00  0.00    +0.000 C 
ATOM     28  O   UNL     1      50.665   9.524  17.997  0.00  0.00    +0.000 OA
ATOM     29  H   UNL     1      48.211   7.559  18.474  0.00  0.00    +0.000 HD
BRANCH  27  30
ATOM     30  C   UNL     1      48.313   9.889  17.390  0.00  0.00    +0.000 C 
ATOM     31  C   UNL     1      48.638  11.348  17.041  0.00  0.00    +0.000 C 
ATOM     32  C   UNL     1      49.558  11.471  15.828  0.00  0.00    +0.000 C 
ATOM     33  C   UNL     1      49.012  10.672  14.652  0.00  0.00    +0.000 C 
ATOM     34  C   UNL     1      48.635   9.248  15.053  0.00  0.00    +0.000 C 
ATOM     35  N   UNL     1      47.729   9.211  16.206  0.00  0.00    +0.000 NA
ATOM     36  H   UNL     1      47.529   8.239  16.434  0.00  0.00    +0.000 HD
ENDBRANCH  27  30
ENDBRANCH  25  26
ENDBRANCH   6  25
TORSDOF 7
ENDMDL
MODEL 5
REMARK VINA RESULT:    -6.636      3.007      6.381
REMARK INTER + INTRA:         -10.919
REMARK INTER:                  -8.972
REMARK INTRA:                  -1.948
REMARK UNBOUND:                -1.569
REMARK  Name = 
REMARK  8 active torsions:
REMARK  status: ('A' for Active; 'I' for Inactive)
REMARK    1  A    between atoms: C_1  and  O_2
REMARK    2  A    between atoms: O_2  and  C_3
REMARK    3  A    between atoms: C_6  and  C_7
REMARK    4  A    between atoms: C_7  and  N_8
REMARK    5  A    between atoms: C_9  and  C_11
REMARK    6  A    between atoms: C_22  and  C_23
REMARK    7  A    between atoms: C_23  and  N_24
REMARK    8  A    between atoms: C_25  and  C_27
REMARK                            x       y       z     vdW  Elec       q    Type
REMARK                         _______ _______ _______ _____ _____    ______ ____
ROOT
ATOM      1  C   UNL     1      51.462   2.722  17.564  0.00  0.00    +0.000 A 
ATOM      2  C   UNL     1      50.572   1.757  17.074  0.00  0.00    +0.000 A 
ATOM      3  C   UNL     1      49.231   2.068  16.850  0.00  0.00    +0.000 A 
ATOM      4  C   UNL     1      48.742   3.341  17.142  0.00  0.00    +0.000 A 
ATOM      5  C   UNL     1      49.632   4.311  17.626  0.00  0.00    +0.000 A 
ATOM      6  C   UNL     1      50.992   4.019  17.847  0.00  0.00    +0.000 A 
ENDROOT
BRANCH   1   8
ATOM      7  C   UNL     1      53.208   1.115  17.640  0.00  0.00    +0.000 C 
ATOM      8  O   UNL     1      52.784   2.463  17.834  0.00  0.00    +0.000 OA
ENDBRANCH   1   8
BRANCH   4   9
ATOM      9  C   UNL     1      47.295   3.666  16.904  0.00  0.00    +0.000 C 
BRANCH   9  10
ATOM     10  N   UNL     1      47.146   4.643  15.860  0.00  0.00    +0.000 N 
ATOM     11  C   UNL     1      47.129   4.324  14.525  0.00  0.00    +0.000 C 
ATOM     12  O   UNL     1      47.228   3.171  14.121  0.00  0.00    +0.000 OA
ATOM     13  H   UNL     1      47.305   5.608  16.135  0.00  0.00    +0.000 HD
BRANCH  11  14
ATOM     14  C   UNL     1      46.903   5.448  13.606  0.00  0.00    +0.000 A 
ATOM     15  C   UNL     1      45.796   5.440  12.769  0.00  0.00    +0.000 A 
ATOM     16  S   UNL     1      45.641   6.854  11.827  0.00  0.00    +0.000 S 
ATOM     17  C   UNL     1      47.078   7.502  12.462  0.00  0.00    +0.000 A 
ATOM     18  N   UNL     1      47.542   8.716  12.057  0.00  0.00    +0.000 NA
ATOM     19  C   UNL     1      48.655   9.074  12.604  0.00  0.00    +0.000 A 
ATOM     20  N   UNL     1      49.349   8.330  13.522  0.00  0.00    +0.000 N 
ATOM     21  C   UNL     1      48.899   7.122  13.993  0.00  0.00    +0.000 A 
ATOM     22  O   UNL     1      49.504   6.518  14.872  0.00  0.00    +0.000 OA
ATOM     23  C   UNL     1      47.658   6.662  13.396  0.00  0.00    +0.000 A 
ATOM     24  H   UNL     1      50.203   8.674  13.933  0.00  0.00    +0.000 HD
ENDBRANCH  11  14
ENDBRANCH   9  10
ENDBRANCH   4   9
BRANCH   6  25
ATOM     25  C   UNL     1      51.888   5.124  18.357  0.00  0.00    +0.000 C 
BRANCH  25  26
ATOM     26  N   UNL     1      51.264   6.432  18.292  0.00  0.00    +0.000 N 
ATOM     27  C   UNL     1      51.005   7.199  19.416  0.00  0.00    +0.000 C 
ATOM     28  O   UNL     1      51.269   6.825  20.555  0.00  0.00    +0.000 OA
ATOM     29  H   UNL     1      50.893   6.722  17.399  0.00  0.00    +0.000 HD
BRANCH  27  30
ATOM     30  C   UNL     1      50.374   8.585  19.094  0.00  0.00    +0.000 C 
ATOM     31  C   UNL     1      49.560   8.619  17.794  0.00  0.00    +0.000 C 
ATOM     32  C   UNL     1      48.263   7.819  17.891  0.00  0.00    +0.000 C 
ATOM     33  C   UNL     1      47.463   8.233  19.119  0.00  0.00    +0.000 C 
ATOM     34  C   UNL     1      48.322   8.255  20.381  0.00  0.00    +0.000 C 
ATOM     35  N   UNL     1      49.535   9.064  20.221  0.00  0.00    +0.000 NA
ATOM     36  H   UNL     1      50.070   9.026  21.086  0.00  0.00    +0.000 HD
ENDBRANCH  27  30
ENDBRANCH  25  26
ENDBRANCH   6  25
TORSDOF 7
ENDMDL
MODEL 6
REMARK VINA RESULT:    -6.344      2.651      7.683
REMARK INTER + INTRA:         -10.508
REMARK INTER:                  -9.311
REMARK INTRA:                  -1.197
REMARK UNBOUND:                -1.569
REMARK  Name = 
REMARK  8 active torsions:
REMARK  status: ('A' for Active; 'I' for Inactive)
REMARK    1  A    between atoms: C_1  and  O_2
REMARK    2  A    between atoms: O_2  and  C_3
REMARK    3  A    between atoms: C_6  and  C_7
REMARK    4  A    between atoms: C_7  and  N_8
REMARK    5  A    between atoms: C_9  and  C_11
REMARK    6  A    between atoms: C_22  and  C_23
REMARK    7  A    between atoms: C_23  and  N_24
REMARK    8  A    between atoms: C_25  and  C_27
REMARK                            x       y       z     vdW  Elec       q    Type
REMARK                         _______ _______ _______ _____ _____    ______ ____
ROOT
ATOM      1  C   UNL     1      50.830   5.622  18.638  0.00  0.00    +0.000 A 
ATOM      2  C   UNL     1      50.040   4.662  19.285  0.00  0.00    +0.000 A 
ATOM      3  C   UNL     1      48.958   4.069  18.635  0.00  0.00    +0.000 A 
ATOM      4  C   UNL     1      48.621   4.446  17.336  0.00  0.00    +0.000 A 
ATOM      5  C   UNL     1      49.413   5.401  16.683  0.00  0.00    +0.000 A 
ATOM      6  C   UNL     1      50.517   6.002  17.319  0.00  0.00    +0.000 A 
ENDROOT
BRANCH   1   8
ATOM      7  C   UNL     1      51.547   7.303  20.153  0.00  0.00    +0.000 C 
ATOM      8  O   UNL     1      51.886   6.262  19.239  0.00  0.00    +0.000 OA
ENDBRANCH   1   8
BRANCH   4   9
ATOM      9  C   UNL     1      47.449   3.806  16.645  0.00  0.00    +0.000 C 
BRANCH   9  10
ATOM     10  N   UNL     1      46.882   4.687  15.661  0.00  0.00    +0.000 N 
ATOM     11  C   UNL     1      46.786   4.368  14.329  0.00  0.00    +0.000 C 
ATOM     12  O   UNL     1      47.169   3.295  13.879  0.00  0.00    +0.000 OA
ATOM     13  H   UNL     1      46.781   5.657  15.946  0.00  0.00    +0.000 HD
BRANCH  11  14
ATOM     14  C   UNL     1      46.117   5.366  13.484  0.00  0.00    +0.000 A 
ATOM     15  C   UNL     1      46.764   6.556  13.181  0.00  0.00    +0.000 A 
ATOM     16  S   UNL     1      45.881   7.565  12.126  0.00  0.00    +0.000 S 
ATOM     17  C   UNL     1      44.579   6.473  12.080  0.00  0.00    +0.000 A 
ATOM     18  N   UNL     1      43.461   6.741  11.352  0.00  0.00    +0.000 NA
ATOM     19  C   UNL     1      42.544   5.836  11.428  0.00  0.00    +0.000 A 
ATOM     20  N   UNL     1      42.641   4.684  12.164  0.00  0.00    +0.000 N 
ATOM     21  C   UNL     1      43.764   4.350  12.877  0.00  0.00    +0.000 A 
ATOM     22  O   UNL     1      43.849   3.276  13.462  0.00  0.00    +0.000 OA
ATOM     23  C   UNL     1      44.822   5.344  12.843  0.00  0.00    +0.000 A 
ATOM     24  H   UNL     1      41.898   4.002  12.164  0.00  0.00    +0.000 HD
ENDBRANCH  11  14
ENDBRANCH   9  10
ENDBRANCH   4   9
BRANCH   6  25
ATOM     25  C   UNL     1      51.328   7.013  16.541  0.00  0.00    +0.000 C 
BRANCH  25  26
ATOM     26  N   UNL     1      50.948   7.086  15.143  0.00  0.00    +0.000 N 
ATOM     27  C   UNL     1      50.403   8.224  14.569  0.00  0.00    +0.000 C 
ATOM     28  O   UNL     1      50.185   9.252  15.202  0.00  0.00    +0.000 OA
ATOM     29  H   UNL     1      50.967   6.226  14.614  0.00  0.00    +0.000 HD
BRANCH  27  30
ATOM     30  C   UNL     1      50.121   8.080  13.045  0.00  0.00    +0.000 C 
ATOM     31  C   UNL     1      49.419   9.292  12.419  0.00  0.00    +0.000 C 
ATOM     32  C   UNL     1      50.321  10.523  12.348  0.00  0.00    +0.000 C 
ATOM     33  C   UNL     1      51.650  10.181  11.686  0.00  0.00    +0.000 C 
ATOM     34  C   UNL     1      52.285   8.930  12.288  0.00  0.00    +0.000 C 
ATOM     35  N   UNL     1      51.369   7.785  12.297  0.00  0.00    +0.000 NA
ATOM     36  H   UNL     1      51.843   6.991  12.723  0.00  0.00    +0.000 HD
ENDBRANCH  27  30
ENDBRANCH  25  26
ENDBRANCH   6  25
TORSDOF 7
ENDMDL
MODEL 7
REMARK VINA RESULT:    -6.334      2.818      6.460
REMARK INTER + INTRA:         -10.495
REMARK INTER:                  -9.393
REMARK INTRA:                  -1.102
REMARK UNBOUND:                -1.569
REMARK  Name = 
REMARK  8 active torsions:
REMARK  status: ('A' for Active; 'I' for Inactive)
REMARK    1  A    between atoms: C_1  and  O_2
REMARK    2  A    between atoms: O_2  and  C_3
REMARK    3  A    between atoms: C_6  and  C_7
REMARK    4  A    between atoms: C_7  and  N_8
REMARK    5  A    between atoms: C_9  and  C_11
REMARK    6  A    between atoms: C_22  and  C_23
REMARK    7  A    between atoms: C_23  and  N_24
REMARK    8  A    between atoms: C_25  and  C_27
REMARK                            x       y       z     vdW  Elec       q    Type
REMARK                         _______ _______ _______ _____ _____    ______ ____
ROOT
ATOM      1  C   UNL     1      49.595   9.605  16.509  0.00  0.00    +0.000 A 
ATOM      2  C   UNL     1      48.999  10.115  15.348  0.00  0.00    +0.000 A 
ATOM      3  C   UNL     1      49.000   9.383  14.161  0.00  0.00    +0.000 A 
ATOM      4  C   UNL     1      49.624   8.138  14.100  0.00  0.00    +0.000 A 
ATOM      5  C   UNL     1      50.215   7.621  15.262  0.00  0.00    +0.000 A 
ATOM      6  C   UNL     1      50.214   8.341  16.472  0.00  0.00    +0.000 A 
ENDROOT
BRANCH   1   8
ATOM      7  C   UNL     1      48.446  10.330  18.456  0.00  0.00    +0.000 C 
ATOM      8  O   UNL     1      49.652  10.295  17.695  0.00  0.00    +0.000 OA
ENDBRANCH   1   8
BRANCH   4   9
ATOM      9  C   UNL     1      49.626   7.357  12.815  0.00  0.00    +0.000 C 
BRANCH   9  10
ATOM     10  N   UNL     1      48.289   7.027  12.406  0.00  0.00    +0.000 N 
ATOM     11  C   UNL     1      47.508   6.101  13.053  0.00  0.00    +0.000 C 
ATOM     12  O   UNL     1      47.893   5.491  14.044  0.00  0.00    +0.000 OA
ATOM     13  H   UNL     1      48.031   7.322  11.468  0.00  0.00    +0.000 HD
BRANCH  11  14
ATOM     14  C   UNL     1      46.144   5.943  12.530  0.00  0.00    +0.000 A 
ATOM     15  C   UNL     1      45.458   7.050  12.052  0.00  0.00    +0.000 A 
ATOM     16  S   UNL     1      43.922   6.678  11.411  0.00  0.00    +0.000 S 
ATOM     17  C   UNL     1      44.095   5.032  11.800  0.00  0.00    +0.000 A 
ATOM     18  N   UNL     1      43.108   4.136  11.526  0.00  0.00    +0.000 NA
ATOM     19  C   UNL     1      43.366   2.926  11.897  0.00  0.00    +0.000 A 
ATOM     20  N   UNL     1      44.521   2.528  12.516  0.00  0.00    +0.000 N 
ATOM     21  C   UNL     1      45.561   3.386  12.772  0.00  0.00    +0.000 A 
ATOM     22  O   UNL     1      46.613   2.981  13.257  0.00  0.00    +0.000 OA
ATOM     23  C   UNL     1      45.318   4.765  12.393  0.00  0.00    +0.000 A 
ATOM     24  H   UNL     1      44.675   1.562  12.761  0.00  0.00    +0.000 HD
ENDBRANCH  11  14
ENDBRANCH   9  10
ENDBRANCH   4   9
BRANCH   6  25
ATOM     25  C   UNL     1      50.860   7.707  17.683  0.00  0.00    +0.000 C 
BRANCH  25  26
ATOM     26  N   UNL     1      50.047   6.662  18.275  0.00  0.00    +0.000 N 
ATOM     27  C   UNL     1      50.341   5.314  18.143  0.00  0.00    +0.000 C 
ATOM     28  O   UNL     1      51.302   4.900  17.502  0.00  0.00    +0.000 OA
ATOM     29  H   UNL     1      49.167   6.938  18.684  0.00  0.00    +0.000 HD
BRANCH  27  30
ATOM     30  C   UNL     1      49.353   4.383  18.905  0.00  0.00    +0.000 C 
ATOM     31  C   UNL     1      47.887   4.832  18.838  0.00  0.00    +0.000 C 
ATOM     32  C   UNL     1      47.287   4.674  17.442  0.00  0.00    +0.000 C 
ATOM     33  C   UNL     1      47.515   3.264  16.911  0.00  0.00    +0.000 C 
ATOM     34  C   UNL     1      48.970   2.827  17.059  0.00  0.00    +0.000 C 
ATOM     35  N   UNL     1      49.468   2.982  18.429  0.00  0.00    +0.000 NA
ATOM     36  H   UNL     1      50.443   2.690  18.458  0.00  0.00    +0.000 HD
ENDBRANCH  27  30
ENDBRANCH  25  26
ENDBRANCH   6  25
TORSDOF 7
ENDMDL
MODEL 8
REMARK VINA RESULT:    -6.218      3.222      6.952
REMARK INTER + INTRA:         -10.330
REMARK INTER:                  -9.690
REMARK INTRA:                  -0.640
REMARK UNBOUND:                -1.569
REMARK  Name = 
REMARK  8 active torsions:
REMARK  status: ('A' for Active; 'I' for Inactive)
REMARK    1  A    between atoms: C_1  and  O_2
REMARK    2  A    between atoms: O_2  and  C_3
REMARK    3  A    between atoms: C_6  and  C_7
REMARK    4  A    between atoms: C_7  and  N_8
REMARK    5  A    between atoms: C_9  and  C_11
REMARK    6  A    between atoms: C_22  and  C_23
REMARK    7  A    between atoms: C_23  and  N_24
REMARK    8  A    between atoms: C_25  and  C_27
REMARK                            x       y       z     vdW  Elec       q    Type
REMARK                         _______ _______ _______ _____ _____    ______ ____
ROOT
ATOM      1  C   UNL     1      49.834   8.024  12.856  0.00  0.00    +0.000 A 
ATOM      2  C   UNL     1      50.865   8.145  13.797  0.00  0.00    +0.000 A 
ATOM      3  C   UNL     1      50.647   7.844  15.141  0.00  0.00    +0.000 A 
ATOM      4  C   UNL     1      49.385   7.447  15.580  0.00  0.00    +0.000 A 
ATOM      5  C   UNL     1      48.353   7.318  14.640  0.00  0.00    +0.000 A 
ATOM      6  C   UNL     1      48.557   7.605  13.276  0.00  0.00    +0.000 A 
ENDROOT
BRANCH   1   8
ATOM      7  C   UNL     1      51.140   9.103  11.192  0.00  0.00    +0.000 C 
ATOM      8  O   UNL     1      49.984   8.337  11.527  0.00  0.00    +0.000 OA
ENDBRANCH   1   8
BRANCH   4   9
ATOM      9  C   UNL     1      49.156   7.131  17.031  0.00  0.00    +0.000 C 
BRANCH   9  10
ATOM     10  N   UNL     1      50.198   6.289  17.551  0.00  0.00    +0.000 N 
ATOM     11  C   UNL     1      50.037   4.946  17.786  0.00  0.00    +0.000 C 
ATOM     12  O   UNL     1      48.986   4.358  17.556  0.00  0.00    +0.000 OA
ATOM     13  H   UNL     1      50.985   6.773  17.975  0.00  0.00    +0.000 HD
BRANCH  11  14
ATOM     14  C   UNL     1      51.233   4.234  18.256  0.00  0.00    +0.000 A 
ATOM     15  C   UNL     1      52.122   4.872  19.108  0.00  0.00    +0.000 A 
ATOM     16  S   UNL     1      53.411   3.879  19.620  0.00  0.00    +0.000 S 
ATOM     17  C   UNL     1      52.858   2.578  18.677  0.00  0.00    +0.000 A 
ATOM     18  N   UNL     1      53.529   1.395  18.647  0.00  0.00    +0.000 NA
ATOM     19  C   UNL     1      53.008   0.503  17.870  0.00  0.00    +0.000 A 
ATOM     20  N   UNL     1      51.876   0.686  17.121  0.00  0.00    +0.000 N 
ATOM     21  C   UNL     1      51.142   1.845  17.152  0.00  0.00    +0.000 A 
ATOM     22  O   UNL     1      50.090   1.947  16.530  0.00  0.00    +0.000 OA
ATOM     23  C   UNL     1      51.693   2.889  17.996  0.00  0.00    +0.000 A 
ATOM     24  H   UNL     1      51.504  -0.058  16.550  0.00  0.00    +0.000 HD
ENDBRANCH  11  14
ENDBRANCH   9  10
ENDBRANCH   4   9
BRANCH   6  25
ATOM     25  C   UNL     1      47.397   7.428  12.325  0.00  0.00    +0.000 C 
BRANCH  25  26
ATOM     26  N   UNL     1      46.351   6.578  12.863  0.00  0.00    +0.000 N 
ATOM     27  C   UNL     1      45.092   6.482  12.291  0.00  0.00    +0.000 C 
ATOM     28  O   UNL     1      44.760   7.118  11.297  0.00  0.00    +0.000 OA
ATOM     29  H   UNL     1      46.521   6.149  13.760  0.00  0.00    +0.000 HD
BRANCH  27  30
ATOM     30  C   UNL     1      44.154   5.472  13.016  0.00  0.00    +0.000 C 
ATOM     31  C   UNL     1      42.864   5.151  12.249  0.00  0.00    +0.000 C 
ATOM     32  C   UNL     1      43.119   4.330  10.987  0.00  0.00    +0.000 C 
ATOM     33  C   UNL     1      43.960   3.099  11.303  0.00  0.00    +0.000 C 
ATOM     34  C   UNL     1      45.198   3.448  12.126  0.00  0.00    +0.000 C 
ATOM     35  N   UNL     1      44.871   4.213  13.334  0.00  0.00    +0.000 NA
ATOM     36  H   UNL     1      45.735   4.427  13.828  0.00  0.00    +0.000 HD
ENDBRANCH  27  30
ENDBRANCH  25  26
ENDBRANCH   6  25
TORSDOF 7
ENDMDL
MODEL 9
REMARK VINA RESULT:    -5.990      2.633      7.334
REMARK INTER + INTRA:         -10.010
REMARK INTER:                  -7.980
REMARK INTRA:                  -2.030
REMARK UNBOUND:                -1.569
REMARK  Name = 
REMARK  8 active torsions:
REMARK  status: ('A' for Active; 'I' for Inactive)
REMARK    1  A    between atoms: C_1  and  O_2
REMARK    2  A    between atoms: O_2  and  C_3
REMARK    3  A    between atoms: C_6  and  C_7
REMARK    4  A    between atoms: C_7  and  N_8
REMARK    5  A    between atoms: C_9  and  C_11
REMARK    6  A    between atoms: C_22  and  C_23
REMARK    7  A    between atoms: C_23  and  N_24
REMARK    8  A    between atoms: C_25  and  C_27
REMARK                            x       y       z     vdW  Elec       q    Type
REMARK                         _______ _______ _______ _____ _____    ______ ____
ROOT
ATOM      1  C   UNL     1      50.991   6.069  17.490  0.00  0.00    +0.000 A 
ATOM      2  C   UNL     1      50.943   4.672  17.595  0.00  0.00    +0.000 A 
ATOM      3  C   UNL     1      49.767   3.974  17.327  0.00  0.00    +0.000 A 
ATOM      4  C   UNL     1      48.603   4.657  16.978  0.00  0.00    +0.000 A 
ATOM      5  C   UNL     1      48.649   6.054  16.865  0.00  0.00    +0.000 A 
ATOM      6  C   UNL     1      49.831   6.776  17.120  0.00  0.00    +0.000 A 
ENDROOT
BRANCH   1   8
ATOM      7  C   UNL     1      53.240   6.585  16.929  0.00  0.00    +0.000 C 
ATOM      8  O   UNL     1      52.112   6.810  17.773  0.00  0.00    +0.000 OA
ENDBRANCH   1   8
BRANCH   4   9
ATOM      9  C   UNL     1      47.337   3.897  16.697  0.00  0.00    +0.000 C 
BRANCH   9  10
ATOM     10  N   UNL     1      46.604   4.492  15.613  0.00  0.00    +0.000 N 
ATOM     11  C   UNL     1      46.759   4.117  14.301  0.00  0.00    +0.000 C 
ATOM     12  O   UNL     1      47.532   3.231  13.956  0.00  0.00    +0.000 OA
ATOM     13  H   UNL     1      46.147   5.375  15.824  0.00  0.00    +0.000 HD
BRANCH  11  14
ATOM     14  C   UNL     1      45.877   4.791  13.339  0.00  0.00    +0.000 A 
ATOM     15  C   UNL     1      44.887   4.068  12.690  0.00  0.00    +0.000 A 
ATOM     16  S   UNL     1      43.903   5.018  11.670  0.00  0.00    +0.000 S 
ATOM     17  C   UNL     1      44.802   6.420  12.015  0.00  0.00    +0.000 A 
ATOM     18  N   UNL     1      44.490   7.614  11.443  0.00  0.00    +0.000 NA
ATOM     19  C   UNL     1      45.269   8.587  11.777  0.00  0.00    +0.000 A 
ATOM     20  N   UNL     1      46.333   8.477  12.633  0.00  0.00    +0.000 N 
ATOM     21  C   UNL     1      46.659   7.305  13.268  0.00  0.00    +0.000 A 
ATOM     22  O   UNL     1      47.569   7.260  14.088  0.00  0.00    +0.000 OA
ATOM     23  C   UNL     1      45.825   6.171  12.913  0.00  0.00    +0.000 A 
ATOM     24  H   UNL     1      46.893   9.281  12.875  0.00  0.00    +0.000 HD
ENDBRANCH  11  14
ENDBRANCH   9  10
ENDBRANCH   4   9
BRANCH   6  25
ATOM     25  C   UNL     1      49.800   8.279  16.962  0.00  0.00    +0.000 C 
BRANCH  25  26
ATOM     26  N   UNL     1      50.500   8.736  15.776  0.00  0.00    +0.000 N 
ATOM     27  C   UNL     1      50.066   9.809  15.014  0.00  0.00    +0.000 C 
ATOM     28  O   UNL     1      49.050  10.445  15.273  0.00  0.00    +0.000 OA
ATOM     29  H   UNL     1      51.255   8.159  15.434  0.00  0.00    +0.000 HD
BRANCH  27  30
ATOM     30  C   UNL     1      51.004  10.143  13.817  0.00  0.00    +0.000 C 
ATOM     31  C   UNL     1      51.549   8.911  13.082  0.00  0.00    +0.000 C 
ATOM     32  C   UNL     1      50.469   8.169  12.297  0.00  0.00    +0.000 C 
ATOM     33  C   UNL     1      49.703   9.126  11.393  0.00  0.00    +0.000 C 
ATOM     34  C   UNL     1      49.237  10.372  12.144  0.00  0.00    +0.000 C 
ATOM     35  N   UNL     1      50.332  11.045  12.849  0.00  0.00    +0.000 NA
ATOM     36  H   UNL     1      49.956  11.854  13.339  0.00  0.00    +0.000 HD
ENDBRANCH  27  30
ENDBRANCH  25  26
ENDBRANCH   6  25
TORSDOF 7
ENDMDL
