MODEL 1
REMARK VINA RESULT:    -7.928      0.000      0.000
REMARK INTER + INTRA:         -12.028
REMARK INTER:                 -11.404
REMARK INTRA:                  -0.623
REMARK UNBOUND:                -0.623
REMARK  Name = 
REMARK  8 active torsions:
REMARK  status: ('A' for Active; 'I' for Inactive)
REMARK    1  A    between atoms: N_1  and  C_2
REMARK    2  A    between atoms: C_2  and  C_3
REMARK    3  A    between atoms: C_2  and  C_18
REMARK    4  A    between atoms: C_3  and  C_4
REMARK    5  A    between atoms: C_7  and  C_8
REMARK    6  A    between atoms: C_8  and  O_9
REMARK    7  A    between atoms: O_9  and  C_10
REMARK    8  A    between atoms: C_18  and  C_20
REMARK                            x       y       z     vdW  Elec       q    Type
REMARK                         _______ _______ _______ _____ _____    ______ ____
ROOT
ATOM      1  C   UNL     1      47.599   4.340  14.971  0.00  0.00    +0.000 C 
ENDROOT
BRANCH   1   2
ATOM      2  N   UNL     1      47.487   3.059  14.231  0.00  0.00    +0.000 NA
ATOM      3  H   UNL     1      47.596   2.286  14.892  0.00  0.00    +0.000 HD
ATOM      4  H   UNL     1      48.276   2.980  13.586  0.00  0.00    +0.000 HD
ENDBRANCH   1   2
BRANCH   1   5
ATOM      5  C   UNL     1      47.374   4.075  16.473  0.00  0.00    +0.000 C 
ATOM      6  O   UNL     1      46.371   3.465  16.856  0.00  0.00    +0.000 OA
BRANCH   5   7
ATOM      7  C   UNL     1      48.416   4.405  17.442  0.00  0.00    +0.000 A 
ATOM      8  C   UNL     1      48.398   5.514  18.267  0.00  0.00    +0.000 A 
ATOM      9  S   UNL     1      49.949   5.862  18.906  0.00  0.00    +0.000 S 
ATOM     10  C   UNL     1      50.617   4.459  18.206  0.00  0.00    +0.000 A 
ATOM     11  N   UNL     1      51.943   4.173  18.284  0.00  0.00    +0.000 NA
ATOM     12  C   UNL     1      52.267   3.031  17.768  0.00  0.00    +0.000 A 
ATOM     13  N   UNL     1      51.383   2.133  17.219  0.00  0.00    +0.000 N 
ATOM     14  C   UNL     1      50.025   2.364  17.147  0.00  0.00    +0.000 A 
ATOM     15  O   UNL     1      49.236   1.485  16.840  0.00  0.00    +0.000 OA
ATOM     16  C   UNL     1      49.649   3.692  17.597  0.00  0.00    +0.000 A 
ATOM     17  H   UNL     1      51.688   1.210  16.951  0.00  0.00    +0.000 HD
ENDBRANCH   5   7
ENDBRANCH   1   5
BRANCH   1  18
ATOM     18  C   UNL     1      46.557   5.393  14.546  0.00  0.00    +0.000 C 
BRANCH  18  19
ATOM     19  C   UNL     1      45.904   5.162  13.211  0.00  0.00    +0.000 A 
ATOM     20  C   UNL     1      46.375   5.851  12.084  0.00  0.00    +0.000 A 
ATOM     21  C   UNL     1      45.832   5.605  10.828  0.00  0.00    +0.000 A 
ATOM     22  C   UNL     1      44.803   4.668  10.681  0.00  0.00    +0.000 A 
ATOM     23  C   UNL     1      44.333   3.977  11.806  0.00  0.00    +0.000 A 
ATOM     24  C   UNL     1      44.871   4.230  13.066  0.00  0.00    +0.000 A 
BRANCH  22  25
ATOM     25  C   UNL     1      44.215   4.401   9.325  0.00  0.00    +0.000 C 
BRANCH  25  26
ATOM     26  O   UNL     1      45.233   4.507   8.329  0.00  0.00    +0.000 OA
BRANCH  26  27
ATOM     27  C   UNL     1      45.867   3.340   8.034  0.00  0.00    +0.000 A 
ATOM     28  C   UNL     1      45.572   2.081   8.521  0.00  0.00    +0.000 A 
ATOM     29  N   UNL     1      46.242   0.960   8.184  0.00  0.00    +0.000 NA
ATOM     30  C   UNL     1      47.250   1.127   7.314  0.00  0.00    +0.000 A 
ATOM     31  N   UNL     1      47.635   2.291   6.770  0.00  0.00    +0.000 NA
ATOM     32  C   UNL     1      46.925   3.376   7.149  0.00  0.00    +0.000 A 
ENDBRANCH  26  27
ENDBRANCH  25  26
ENDBRANCH  22  25
ENDBRANCH  18  19
ENDBRANCH   1  18
TORSDOF 8
ENDMDL
MODEL 2
REMARK VINA RESULT:    -7.883      0.626      1.065
REMARK INTER + INTRA:         -11.963
REMARK INTER:                 -11.465
REMARK INTRA:                  -0.498
REMARK UNBOUND:                -0.623
REMARK  Name = 
REMARK  8 active torsions:
REMARK  status: ('A' for Active; 'I' for Inactive)
REMARK    1  A    between atoms: N_1  and  C_2
REMARK    2  A    between atoms: C_2  and  C_3
REMARK    3  A    between atoms: C_2  and  C_18
REMARK    4  A    between atoms: C_3  and  C_4
REMARK    5  A    between atoms: C_7  and  C_8
REMARK    6  A    between atoms: C_8  and  O_9
REMARK    7  A    between atoms: O_9  and  C_10
REMARK    8  A    between atoms: C_18  and  C_20
REMARK                            x       y       z     vdW  Elec       q    Type
REMARK                         _______ _______ _______ _____ _____    ______ ____
ROOT
ATOM      1  C   UNL     1      47.363   4.480  14.682  0.00  0.00    +0.000 C 
ENDROOT
BRANCH   1   2
ATOM      2  N   UNL     1      47.493   3.134  14.072  0.00  0.00    +0.000 NA
ATOM      3  H   UNL     1      47.548   2.437  14.819  0.00  0.00    +0.000 HD
ATOM      4  H   UNL     1      48.388   3.080  13.582  0.00  0.00    +0.000 HD
ENDBRANCH   1   2
BRANCH   1   5
ATOM      5  C   UNL     1      47.279   4.332  16.214  0.00  0.00    +0.000 C 
ATOM      6  O   UNL     1      46.405   3.626  16.727  0.00  0.00    +0.000 OA
BRANCH   5   7
ATOM      7  C   UNL     1      48.323   4.897  17.066  0.00  0.00    +0.000 A 
ATOM      8  C   UNL     1      48.302   6.177  17.587  0.00  0.00    +0.000 A 
ATOM      9  S   UNL     1      49.854   6.680  18.112  0.00  0.00    +0.000 S 
ATOM     10  C   UNL     1      50.527   5.150  17.782  0.00  0.00    +0.000 A 
ATOM     11  N   UNL     1      51.855   4.897  17.923  0.00  0.00    +0.000 NA
ATOM     12  C   UNL     1      52.182   3.664  17.707  0.00  0.00    +0.000 A 
ATOM     13  N   UNL     1      51.301   2.654  17.404  0.00  0.00    +0.000 N 
ATOM     14  C   UNL     1      49.942   2.854  17.282  0.00  0.00    +0.000 A 
ATOM     15  O   UNL     1      49.156   1.923  17.208  0.00  0.00    +0.000 OA
ATOM     16  C   UNL     1      49.560   4.251  17.388  0.00  0.00    +0.000 A 
ATOM     17  H   UNL     1      51.609   1.694  17.373  0.00  0.00    +0.000 HD
ENDBRANCH   5   7
ENDBRANCH   1   5
BRANCH   1  18
ATOM     18  C   UNL     1      46.096   5.239  14.242  0.00  0.00    +0.000 C 
BRANCH  18  19
ATOM     19  C   UNL     1      45.658   5.008  12.821  0.00  0.00    +0.000 A 
ATOM     20  C   UNL     1      46.140   5.845  11.806  0.00  0.00    +0.000 A 
ATOM     21  C   UNL     1      45.804   5.612  10.477  0.00  0.00    +0.000 A 
ATOM     22  C   UNL     1      44.973   4.535  10.145  0.00  0.00    +0.000 A 
ATOM     23  C   UNL     1      44.492   3.695  11.158  0.00  0.00    +0.000 A 
ATOM     24  C   UNL     1      44.823   3.936  12.490  0.00  0.00    +0.000 A 
BRANCH  22  25
ATOM     25  C   UNL     1      44.608   4.281   8.710  0.00  0.00    +0.000 C 
BRANCH  25  26
ATOM     26  O   UNL     1      45.784   4.309   7.901  0.00  0.00    +0.000 OA
BRANCH  26  27
ATOM     27  C   UNL     1      46.355   3.095   7.677  0.00  0.00    +0.000 A 
ATOM     28  C   UNL     1      47.476   2.825   6.915  0.00  0.00    +0.000 A 
ATOM     29  N   UNL     1      47.993   1.594   6.734  0.00  0.00    +0.000 NA
ATOM     30  C   UNL     1      47.347   0.597   7.358  0.00  0.00    +0.000 A 
ATOM     31  N   UNL     1      46.253   0.726   8.123  0.00  0.00    +0.000 NA
ATOM     32  C   UNL     1      45.783   1.985   8.263  0.00  0.00    +0.000 A 
ENDBRANCH  26  27
ENDBRANCH  25  26
ENDBRANCH  22  25
ENDBRANCH  18  19
ENDBRANCH   1  18
TORSDOF 8
ENDMDL
MODEL 3
REMARK VINA RESULT:    -7.507      2.219      2.647
REMARK INTER + INTRA:         -11.422
REMARK INTER:                 -10.547
REMARK INTRA:                  -0.875
REMARK UNBOUND:                -0.623
REMARK  Name = 
REMARK  8 active torsions:
REMARK  status: ('A' for Active; 'I' for Inactive)
REMARK    1  A    between atoms: N_1  and  C_2
REMARK    2  A    between atoms: C_2  and  C_3
REMARK    3  A    between atoms: C_2  and  C_18
REMARK    4  A    between atoms: C_3  and  C_4
REMARK    5  A    between atoms: C_7  and  C_8
REMARK    6  A    between atoms: C_8  and  O_9
REMARK    7  A    between atoms: O_9  and  C_10
REMARK    8  A    between atoms: C_18  and  C_20
REMARK                            x       y       z     vdW  Elec       q    Type
REMARK                         _______ _______ _______ _____ _____    ______ ____
ROOT
ATOM      1  C   UNL     1      47.818   7.233  14.708  0.00  0.00    +0.000 C 
ENDROOT
BRANCH   1   2
ATOM      2  N   UNL     1      47.548   8.691  14.678  0.00  0.00    +0.000 NA
ATOM      3  H   UNL     1      47.572   9.050  15.636  0.00  0.00    +0.000 HD
ATOM      4  H   UNL     1      46.591   8.844  14.353  0.00  0.00    +0.000 HD
ENDBRANCH   1   2
BRANCH   1   5
ATOM      5  C   UNL     1      49.027   6.964  15.625  0.00  0.00    +0.000 C 
ATOM      6  O   UNL     1      50.154   6.810  15.145  0.00  0.00    +0.000 OA
BRANCH   5   7
ATOM      7  C   UNL     1      48.879   7.040  17.077  0.00  0.00    +0.000 A 
ATOM      8  C   UNL     1      49.147   8.165  17.835  0.00  0.00    +0.000 A 
ATOM      9  S   UNL     1      49.344   7.785  19.495  0.00  0.00    +0.000 S 
ATOM     10  C   UNL     1      48.931   6.153  19.232  0.00  0.00    +0.000 A 
ATOM     11  N   UNL     1      48.979   5.226  20.224  0.00  0.00    +0.000 NA
ATOM     12  C   UNL     1      48.558   4.055  19.871  0.00  0.00    +0.000 A 
ATOM     13  N   UNL     1      48.058   3.735  18.632  0.00  0.00    +0.000 N 
ATOM     14  C   UNL     1      47.959   4.649  17.603  0.00  0.00    +0.000 A 
ATOM     15  O   UNL     1      47.337   4.406  16.581  0.00  0.00    +0.000 OA
ATOM     16  C   UNL     1      48.545   5.937  17.928  0.00  0.00    +0.000 A 
ATOM     17  H   UNL     1      47.631   2.837  18.465  0.00  0.00    +0.000 HD
ENDBRANCH   5   7
ENDBRANCH   1   5
BRANCH   1  18
ATOM     18  C   UNL     1      48.168   6.640  13.329  0.00  0.00    +0.000 C 
BRANCH  18  19
ATOM     19  C   UNL     1      47.030   5.992  12.589  0.00  0.00    +0.000 A 
ATOM     20  C   UNL     1      46.593   6.542  11.376  0.00  0.00    +0.000 A 
ATOM     21  C   UNL     1      45.588   5.923  10.641  0.00  0.00    +0.000 A 
ATOM     22  C   UNL     1      45.000   4.744  11.114  0.00  0.00    +0.000 A 
ATOM     23  C   UNL     1      45.438   4.191  12.324  0.00  0.00    +0.000 A 
ATOM     24  C   UNL     1      46.439   4.817  13.064  0.00  0.00    +0.000 A 
BRANCH  22  25
ATOM     25  C   UNL     1      43.914   4.074  10.320  0.00  0.00    +0.000 C 
BRANCH  25  26
ATOM     26  O   UNL     1      44.218   4.150   8.928  0.00  0.00    +0.000 OA
BRANCH  26  27
ATOM     27  C   UNL     1      45.114   3.227   8.486  0.00  0.00    +0.000 A 
ATOM     28  C   UNL     1      45.156   1.882   8.806  0.00  0.00    +0.000 A 
ATOM     29  N   UNL     1      46.074   1.017   8.330  0.00  0.00    +0.000 NA
ATOM     30  C   UNL     1      46.982   1.539   7.492  0.00  0.00    +0.000 A 
ATOM     31  N   UNL     1      47.050   2.821   7.104  0.00  0.00    +0.000 NA
ATOM     32  C   UNL     1      46.103   3.638   7.617  0.00  0.00    +0.000 A 
ENDBRANCH  26  27
ENDBRANCH  25  26
ENDBRANCH  22  25
ENDBRANCH  18  19
ENDBRANCH   1  18
TORSDOF 8
ENDMDL
MODEL 4
REMARK VINA RESULT:    -7.237      2.210      3.177
REMARK INTER + INTRA:         -11.034
REMARK INTER:                 -10.221
REMARK INTRA:                  -0.813
REMARK UNBOUND:                -0.623
REMARK  Name = 
REMARK  8 active torsions:
REMARK  status: ('A' for Active; 'I' for Inactive)
REMARK    1  A    between atoms: N_1  and  C_2
REMARK    2  A    between atoms: C_2  and  C_3
REMARK    3  A    between atoms: C_2  and  C_18
REMARK    4  A    between atoms: C_3  and  C_4
REMARK    5  A    between atoms: C_7  and  C_8
REMARK    6  A    between atoms: C_8  and  O_9
REMARK    7  A    between atoms: O_9  and  C_10
REMARK    8  A    between atoms: C_18  and  C_20
REMARK                            x       y       z     vdW  Elec       q    Type
REMARK                         _______ _______ _______ _____ _____    ______ ____
ROOT
ATOM      1  C   UNL     1      47.553   4.053  15.827  0.00  0.00    +0.000 C 
ENDROOT
BRANCH   1   2
ATOM      2  N   UNL     1      46.452   3.657  16.739  0.00  0.00    +0.000 NA
ATOM      3  H   UNL     1      46.043   2.782  16.402  0.00  0.00    +0.000 HD
ATOM      4  H   UNL     1      45.704   4.350  16.674  0.00  0.00    +0.000 HD
ENDBRANCH   1   2
BRANCH   1   5
ATOM      5  C   UNL     1      48.775   4.474  16.667  0.00  0.00    +0.000 C 
ATOM      6  O   UNL     1      49.601   3.632  17.032  0.00  0.00    +0.000 OA
BRANCH   5   7
ATOM      7  C   UNL     1      49.049   5.888  16.909  0.00  0.00    +0.000 A 
ATOM      8  C   UNL     1      49.865   6.676  16.119  0.00  0.00    +0.000 A 
ATOM      9  S   UNL     1      50.355   8.104  16.929  0.00  0.00    +0.000 S 
ATOM     10  C   UNL     1      49.370   7.750  18.274  0.00  0.00    +0.000 A 
ATOM     11  N   UNL     1      49.367   8.523  19.392  0.00  0.00    +0.000 NA
ATOM     12  C   UNL     1      48.504   8.156  20.283  0.00  0.00    +0.000 A 
ATOM     13  N   UNL     1      47.618   7.115  20.144  0.00  0.00    +0.000 N 
ATOM     14  C   UNL     1      47.561   6.323  19.016  0.00  0.00    +0.000 A 
ATOM     15  O   UNL     1      46.647   5.536  18.825  0.00  0.00    +0.000 OA
ATOM     16  C   UNL     1      48.605   6.627  18.053  0.00  0.00    +0.000 A 
ATOM     17  H   UNL     1      46.889   6.964  20.824  0.00  0.00    +0.000 HD
ENDBRANCH   5   7
ENDBRANCH   1   5
BRANCH   1  18
ATOM     18  C   UNL     1      47.205   5.251  14.921  0.00  0.00    +0.000 C 
BRANCH  18  19
ATOM     19  C   UNL     1      46.403   4.927  13.690  0.00  0.00    +0.000 A 
ATOM     20  C   UNL     1      46.136   3.588  13.373  0.00  0.00    +0.000 A 
ATOM     21  C   UNL     1      45.341   3.265  12.279  0.00  0.00    +0.000 A 
ATOM     22  C   UNL     1      44.804   4.282  11.481  0.00  0.00    +0.000 A 
ATOM     23  C   UNL     1      45.067   5.621  11.798  0.00  0.00    +0.000 A 
ATOM     24  C   UNL     1      45.871   5.943  12.889  0.00  0.00    +0.000 A 
BRANCH  22  25
ATOM     25  C   UNL     1      43.944   3.936  10.298  0.00  0.00    +0.000 C 
BRANCH  25  26
ATOM     26  O   UNL     1      44.364   2.688   9.747  0.00  0.00    +0.000 OA
BRANCH  26  27
ATOM     27  C   UNL     1      45.285   2.782   8.751  0.00  0.00    +0.000 A 
ATOM     28  C   UNL     1      45.593   3.902   8.000  0.00  0.00    +0.000 A 
ATOM     29  N   UNL     1      46.522   3.929   7.024  0.00  0.00    +0.000 NA
ATOM     30  C   UNL     1      47.168   2.773   6.806  0.00  0.00    +0.000 A 
ATOM     31  N   UNL     1      46.964   1.622   7.463  0.00  0.00    +0.000 NA
ATOM     32  C   UNL     1      46.018   1.659   8.428  0.00  0.00    +0.000 A 
ENDBRANCH  26  27
ENDBRANCH  25  26
ENDBRANCH  22  25
ENDBRANCH  18  19
ENDBRANCH   1  18
TORSDOF 8
ENDMDL
MODEL 5
REMARK VINA RESULT:    -7.215      2.459      2.786
REMARK INTER + INTRA:         -11.002
REMARK INTER:                 -10.207
REMARK INTRA:                  -0.794
REMARK UNBOUND:                -0.623
REMARK  Name = 
REMARK  8 active torsions:
REMARK  status: ('A' for Active; 'I' for Inactive)
REMARK    1  A    between atoms: N_1  and  C_2
REMARK    2  A    between atoms: C_2  and  C_3
REMARK    3  A    between atoms: C_2  and  C_18
REMARK    4  A    between atoms: C_3  and  C_4
REMARK    5  A    between atoms: C_7  and  C_8
REMARK    6  A    between atoms: C_8  and  O_9
REMARK    7  A    between atoms: O_9  and  C_10
REMARK    8  A    between atoms: C_18  and  C_20
REMARK                            x       y       z     vdW  Elec       q    Type
REMARK                         _______ _______ _______ _____ _____    ______ ____
ROOT
ATOM      1  C   UNL     1      48.521   7.145  13.747  0.00  0.00    +0.000 C 
ENDROOT
BRANCH   1   2
ATOM      2  N   UNL     1      49.717   6.680  13.003  0.00  0.00    +0.000 NA
ATOM      3  H   UNL     1      49.740   5.657  13.022  0.00  0.00    +0.000 HD
ATOM      4  H   UNL     1      50.555   6.981  13.505  0.00  0.00    +0.000 HD
ENDBRANCH   1   2
BRANCH   1   5
ATOM      5  C   UNL     1      48.976   7.874  15.026  0.00  0.00    +0.000 C 
ATOM      6  O   UNL     1      48.232   8.689  15.580  0.00  0.00    +0.000 OA
BRANCH   5   7
ATOM      7  C   UNL     1      50.226   7.497  15.682  0.00  0.00    +0.000 A 
ATOM      8  C   UNL     1      51.455   8.071  15.418  0.00  0.00    +0.000 A 
ATOM      9  S   UNL     1      52.750   7.095  15.974  0.00  0.00    +0.000 S 
ATOM     10  C   UNL     1      51.680   5.982  16.694  0.00  0.00    +0.000 A 
ATOM     11  N   UNL     1      52.116   4.837  17.283  0.00  0.00    +0.000 NA
ATOM     12  C   UNL     1      51.179   4.147  17.848  0.00  0.00    +0.000 A 
ATOM     13  N   UNL     1      49.856   4.513  17.913  0.00  0.00    +0.000 N 
ATOM     14  C   UNL     1      49.372   5.680  17.358  0.00  0.00    +0.000 A 
ATOM     15  O   UNL     1      48.244   6.086  17.591  0.00  0.00    +0.000 OA
ATOM     16  C   UNL     1      50.375   6.411  16.604  0.00  0.00    +0.000 A 
ATOM     17  H   UNL     1      49.204   3.990  18.477  0.00  0.00    +0.000 HD
ENDBRANCH   5   7
ENDBRANCH   1   5
BRANCH   1  18
ATOM     18  C   UNL     1      47.588   6.003  14.196  0.00  0.00    +0.000 C 
BRANCH  18  19
ATOM     19  C   UNL     1      46.631   5.494  13.152  0.00  0.00    +0.000 A 
ATOM     20  C   UNL     1      46.284   6.319  12.074  0.00  0.00    +0.000 A 
ATOM     21  C   UNL     1      45.455   5.848  11.062  0.00  0.00    +0.000 A 
ATOM     22  C   UNL     1      44.955   4.541  11.118  0.00  0.00    +0.000 A 
ATOM     23  C   UNL     1      45.304   3.715  12.194  0.00  0.00    +0.000 A 
ATOM     24  C   UNL     1      46.128   4.191  13.212  0.00  0.00    +0.000 A 
BRANCH  22  25
ATOM     25  C   UNL     1      44.059   4.030  10.026  0.00  0.00    +0.000 C 
BRANCH  25  26
ATOM     26  O   UNL     1      44.440   2.701   9.673  0.00  0.00    +0.000 OA
BRANCH  26  27
ATOM     27  C   UNL     1      45.335   2.614   8.653  0.00  0.00    +0.000 A 
ATOM     28  C   UNL     1      46.089   1.512   8.291  0.00  0.00    +0.000 A 
ATOM     29  N   UNL     1      46.960   1.492   7.264  0.00  0.00    +0.000 NA
ATOM     30  C   UNL     1      47.067   2.637   6.572  0.00  0.00    +0.000 A 
ATOM     31  N   UNL     1      46.396   3.772   6.820  0.00  0.00    +0.000 NA
ATOM     32  C   UNL     1      45.539   3.727   7.864  0.00  0.00    +0.000 A 
ENDBRANCH  26  27
ENDBRANCH  25  26
ENDBRANCH  22  25
ENDBRANCH  18  19
ENDBRANCH   1  18
TORSDOF 8
ENDMDL
MODEL 6
REMARK VINA RESULT:    -7.162      2.222      2.998
REMARK INTER + INTRA:         -10.926
REMARK INTER:                 -10.287
REMARK INTRA:                  -0.639
REMARK UNBOUND:                -0.623
REMARK  Name = 
REMARK  8 active torsions:
REMARK  status: ('A' for Active; 'I' for Inactive)
REMARK    1  A    between atoms: N_1  and  C_2
REMARK    2  A    between atoms: C_2  and  C_3
REMARK    3  A    between atoms: C_2  and  C_18
REMARK    4  A    between atoms: C_3  and  C_4
REMARK    5  A    between atoms: C_7  and  C_8
REMARK    6  A    between atoms: C_8  and  O_9
REMARK    7  A    between atoms: O_9  and  C_10
REMARK    8  A    between atoms: C_18  and  C_20
REMARK                            x       y       z     vdW  Elec       q    Type
REMARK                         _______ _______ _______ _____ _____    ______ ____
ROOT
ATOM      1  C   UNL     1      47.572   3.567  16.154  0.00  0.00    +0.000 C 
ENDROOT
BRANCH   1   2
ATOM      2  N   UNL     1      46.404   3.726  17.055  0.00  0.00    +0.000 NA
ATOM      3  H   UNL     1      45.945   4.616  16.846  0.00  0.00    +0.000 HD
ATOM      4  H   UNL     1      46.738   3.809  18.017  0.00  0.00    +0.000 HD
ENDBRANCH   1   2
BRANCH   1   5
ATOM      5  C   UNL     1      48.866   3.691  16.982  0.00  0.00    +0.000 C 
ATOM      6  O   UNL     1      49.891   3.099  16.632  0.00  0.00    +0.000 OA
BRANCH   5   7
ATOM      7  C   UNL     1      48.936   4.630  18.099  0.00  0.00    +0.000 A 
ATOM      8  C   UNL     1      48.674   4.303  19.416  0.00  0.00    +0.000 A 
ATOM      9  S   UNL     1      48.371   5.693  20.372  0.00  0.00    +0.000 S 
ATOM     10  C   UNL     1      48.728   6.737  19.074  0.00  0.00    +0.000 A 
ATOM     11  N   UNL     1      48.587   8.085  19.170  0.00  0.00    +0.000 NA
ATOM     12  C   UNL     1      48.978   8.731  18.119  0.00  0.00    +0.000 A 
ATOM     13  N   UNL     1      49.532   8.159  17.000  0.00  0.00    +0.000 N 
ATOM     14  C   UNL     1      49.725   6.799  16.868  0.00  0.00    +0.000 A 
ATOM     15  O   UNL     1      50.392   6.326  15.962  0.00  0.00    +0.000 OA
ATOM     16  C   UNL     1      49.176   6.037  17.976  0.00  0.00    +0.000 A 
ATOM     17  H   UNL     1      49.929   8.732  16.271  0.00  0.00    +0.000 HD
ENDBRANCH   5   7
ENDBRANCH   1   5
BRANCH   1  18
ATOM     18  C   UNL     1      47.650   4.636  15.047  0.00  0.00    +0.000 C 
BRANCH  18  19
ATOM     19  C   UNL     1      46.605   4.536  13.969  0.00  0.00    +0.000 A 
ATOM     20  C   UNL     1      46.006   5.705  13.478  0.00  0.00    +0.000 A 
ATOM     21  C   UNL     1      45.087   5.645  12.436  0.00  0.00    +0.000 A 
ATOM     22  C   UNL     1      44.749   4.409  11.873  0.00  0.00    +0.000 A 
ATOM     23  C   UNL     1      45.348   3.240  12.360  0.00  0.00    +0.000 A 
ATOM     24  C   UNL     1      46.262   3.301  13.410  0.00  0.00    +0.000 A 
BRANCH  22  25
ATOM     25  C   UNL     1      43.756   4.342  10.747  0.00  0.00    +0.000 C 
BRANCH  25  26
ATOM     26  O   UNL     1      43.879   3.091  10.070  0.00  0.00    +0.000 OA
BRANCH  26  27
ATOM     27  C   UNL     1      44.815   3.062   9.085  0.00  0.00    +0.000 A 
ATOM     28  C   UNL     1      45.210   4.111   8.275  0.00  0.00    +0.000 A 
ATOM     29  N   UNL     1      46.150   4.016   7.314  0.00  0.00    +0.000 NA
ATOM     30  C   UNL     1      46.715   2.807   7.173  0.00  0.00    +0.000 A 
ATOM     31  N   UNL     1      46.423   1.713   7.892  0.00  0.00    +0.000 NA
ATOM     32  C   UNL     1      45.471   1.873   8.838  0.00  0.00    +0.000 A 
ENDBRANCH  26  27
ENDBRANCH  25  26
ENDBRANCH  22  25
ENDBRANCH  18  19
ENDBRANCH   1  18
TORSDOF 8
ENDMDL
MODEL 7
REMARK VINA RESULT:    -7.086      2.794      3.614
REMARK INTER + INTRA:         -10.817
REMARK INTER:                  -9.878
REMARK INTRA:                  -0.939
REMARK UNBOUND:                -0.623
REMARK  Name = 
REMARK  8 active torsions:
REMARK  status: ('A' for Active; 'I' for Inactive)
REMARK    1  A    between atoms: N_1  and  C_2
REMARK    2  A    between atoms: C_2  and  C_3
REMARK    3  A    between atoms: C_2  and  C_18
REMARK    4  A    between atoms: C_3  and  C_4
REMARK    5  A    between atoms: C_7  and  C_8
REMARK    6  A    between atoms: C_8  and  O_9
REMARK    7  A    between atoms: O_9  and  C_10
REMARK    8  A    between atoms: C_18  and  C_20
REMARK                            x       y       z     vdW  Elec       q    Type
REMARK                         _______ _______ _______ _____ _____    ______ ____
ROOT
ATOM      1  C   UNL     1      48.204   7.050  14.846  0.00  0.00    +0.000 C 
ENDROOT
BRANCH   1   2
ATOM      2  N   UNL     1      47.747   8.461  14.805  0.00  0.00    +0.000 NA
ATOM      3  H   UNL     1      47.293   8.686  15.694  0.00  0.00    +0.000 HD
ATOM      4  H   UNL     1      47.019   8.552  14.095  0.00  0.00    +0.000 HD
ENDBRANCH   1   2
BRANCH   1   5
ATOM      5  C   UNL     1      49.578   6.986  15.543  0.00  0.00    +0.000 C 
ATOM      6  O   UNL     1      50.542   7.605  15.082  0.00  0.00    +0.000 OA
BRANCH   5   7
ATOM      7  C   UNL     1      49.716   6.321  16.836  0.00  0.00    +0.000 A 
ATOM      8  C   UNL     1      50.485   5.195  17.062  0.00  0.00    +0.000 A 
ATOM      9  S   UNL     1      50.052   4.404  18.519  0.00  0.00    +0.000 S 
ATOM     10  C   UNL     1      48.943   5.633  18.925  0.00  0.00    +0.000 A 
ATOM     11  N   UNL     1      48.147   5.554  20.024  0.00  0.00    +0.000 NA
ATOM     12  C   UNL     1      47.423   6.608  20.225  0.00  0.00    +0.000 A 
ATOM     13  N   UNL     1      47.451   7.745  19.455  0.00  0.00    +0.000 N 
ATOM     14  C   UNL     1      48.265   7.885  18.351  0.00  0.00    +0.000 A 
ATOM     15  O   UNL     1      48.424   8.962  17.797  0.00  0.00    +0.000 OA
ATOM     16  C   UNL     1      48.992   6.671  18.022  0.00  0.00    +0.000 A 
ATOM     17  H   UNL     1      46.954   8.575  19.743  0.00  0.00    +0.000 HD
ENDBRANCH   5   7
ENDBRANCH   1   5
BRANCH   1  18
ATOM     18  C   UNL     1      48.385   6.418  13.452  0.00  0.00    +0.000 C 
BRANCH  18  19
ATOM     19  C   UNL     1      47.121   5.976  12.767  0.00  0.00    +0.000 A 
ATOM     20  C   UNL     1      46.670   6.670  11.636  0.00  0.00    +0.000 A 
ATOM     21  C   UNL     1      45.542   6.242  10.946  0.00  0.00    +0.000 A 
ATOM     22  C   UNL     1      44.843   5.110  11.384  0.00  0.00    +0.000 A 
ATOM     23  C   UNL     1      45.293   4.413  12.512  0.00  0.00    +0.000 A 
ATOM     24  C   UNL     1      46.419   4.849  13.208  0.00  0.00    +0.000 A 
BRANCH  22  25
ATOM     25  C   UNL     1      43.623   4.645  10.640  0.00  0.00    +0.000 C 
BRANCH  25  26
ATOM     26  O   UNL     1      43.801   3.291  10.222  0.00  0.00    +0.000 OA
BRANCH  26  27
ATOM     27  C   UNL     1      44.674   3.119   9.194  0.00  0.00    +0.000 A 
ATOM     28  C   UNL     1      44.987   4.029   8.201  0.00  0.00    +0.000 A 
ATOM     29  N   UNL     1      45.868   3.795   7.207  0.00  0.00    +0.000 NA
ATOM     30  C   UNL     1      46.457   2.590   7.227  0.00  0.00    +0.000 A 
ATOM     31  N   UNL     1      46.241   1.623   8.131  0.00  0.00    +0.000 NA
ATOM     32  C   UNL     1      45.346   1.918   9.100  0.00  0.00    +0.000 A 
ENDBRANCH  26  27
ENDBRANCH  25  26
ENDBRANCH  22  25
ENDBRANCH  18  19
ENDBRANCH   1  18
TORSDOF 8
ENDMDL
MODEL 8
REMARK VINA RESULT:    -6.951      2.916      4.458
REMARK INTER + INTRA:         -10.622
REMARK INTER:                  -9.116
REMARK INTRA:                  -1.506
REMARK UNBOUND:                -0.623
REMARK  Name = 
REMARK  8 active torsions:
REMARK  status: ('A' for Active; 'I' for Inactive)
REMARK    1  A    between atoms: N_1  and  C_2
REMARK    2  A    between atoms: C_2  and  C_3
REMARK    3  A    between atoms: C_2  and  C_18
REMARK    4  A    between atoms: C_3  and  C_4
REMARK    5  A    between atoms: C_7  and  C_8
REMARK    6  A    between atoms: C_8  and  O_9
REMARK    7  A    between atoms: O_9  and  C_10
REMARK    8  A    between atoms: C_18  and  C_20
REMARK                            x       y       z     vdW  Elec       q    Type
REMARK                         _______ _______ _______ _____ _____    ______ ____
ROOT
ATOM      1  C   UNL     1      48.215   8.190  17.524  0.00  0.00    +0.000 C 
ENDROOT
BRANCH   1   2
ATOM      2  N   UNL     1      47.949   9.585  17.954  0.00  0.00    +0.000 NA
ATOM      3  H   UNL     1      48.060   9.645  18.969  0.00  0.00    +0.000 HD
ATOM      4  H   UNL     1      46.967   9.805  17.773  0.00  0.00    +0.000 HD
ENDBRANCH   1   2
BRANCH   1   5
ATOM      5  C   UNL     1      48.929   7.441  18.666  0.00  0.00    +0.000 C 
ATOM      6  O   UNL     1      48.908   7.888  19.817  0.00  0.00    +0.000 OA
BRANCH   5   7
ATOM      7  C   UNL     1      49.507   6.119  18.430  0.00  0.00    +0.000 A 
ATOM      8  C   UNL     1      50.851   5.818  18.547  0.00  0.00    +0.000 A 
ATOM      9  S   UNL     1      51.250   4.356  17.747  0.00  0.00    +0.000 S 
ATOM     10  C   UNL     1      49.618   4.047  17.369  0.00  0.00    +0.000 A 
ATOM     11  N   UNL     1      49.240   2.986  16.608  0.00  0.00    +0.000 NA
ATOM     12  C   UNL     1      47.958   2.856  16.486  0.00  0.00    +0.000 A 
ATOM     13  N   UNL     1      47.022   3.664  17.084  0.00  0.00    +0.000 N 
ATOM     14  C   UNL     1      47.356   4.733  17.890  0.00  0.00    +0.000 A 
ATOM     15  O   UNL     1      46.524   5.316  18.568  0.00  0.00    +0.000 OA
ATOM     16  C   UNL     1      48.785   4.983  17.940  0.00  0.00    +0.000 A 
ATOM     17  H   UNL     1      46.041   3.430  17.048  0.00  0.00    +0.000 HD
ENDBRANCH   5   7
ENDBRANCH   1   5
BRANCH   1  18
ATOM     18  C   UNL     1      49.128   8.087  16.287  0.00  0.00    +0.000 C 
BRANCH  18  19
ATOM     19  C   UNL     1      48.440   7.739  14.995  0.00  0.00    +0.000 A 
ATOM     20  C   UNL     1      48.355   6.397  14.600  0.00  0.00    +0.000 A 
ATOM     21  C   UNL     1      47.666   6.043  13.444  0.00  0.00    +0.000 A 
ATOM     22  C   UNL     1      47.056   7.032  12.663  0.00  0.00    +0.000 A 
ATOM     23  C   UNL     1      47.139   8.373  13.059  0.00  0.00    +0.000 A 
ATOM     24  C   UNL     1      47.836   8.727  14.212  0.00  0.00    +0.000 A 
BRANCH  22  25
ATOM     25  C   UNL     1      46.312   6.652  11.415  0.00  0.00    +0.000 C 
BRANCH  25  26
ATOM     26  O   UNL     1      44.913   6.583  11.690  0.00  0.00    +0.000 OA
BRANCH  26  27
ATOM     27  C   UNL     1      44.409   5.323  11.780  0.00  0.00    +0.000 A 
ATOM     28  C   UNL     1      44.222   4.577  12.928  0.00  0.00    +0.000 A 
ATOM     29  N   UNL     1      43.713   3.328  12.948  0.00  0.00    +0.000 NA
ATOM     30  C   UNL     1      43.377   2.821  11.753  0.00  0.00    +0.000 A 
ATOM     31  N   UNL     1      43.507   3.440  10.570  0.00  0.00    +0.000 NA
ATOM     32  C   UNL     1      44.025   4.687  10.617  0.00  0.00    +0.000 A 
ENDBRANCH  26  27
ENDBRANCH  25  26
ENDBRANCH  22  25
ENDBRANCH  18  19
ENDBRANCH   1  18
TORSDOF 8
ENDMDL
MODEL 9
REMARK VINA RESULT:    -6.849      3.445      8.349
REMARK INTER + INTRA:         -10.475
REMARK INTER:                  -9.093
REMARK INTRA:                  -1.382
REMARK UNBOUND:                -0.623
REMARK  Name = 
REMARK  8 active torsions:
REMARK  status: ('A' for Active; 'I' for Inactive)
REMARK    1  A    between atoms: N_1  and  C_2
REMARK    2  A    between atoms: C_2  and  C_3
REMARK    3  A    between atoms: C_2  and  C_18
REMARK    4  A    between atoms: C_3  and  C_4
REMARK    5  A    between atoms: C_7  and  C_8
REMARK    6  A    between atoms: C_8  and  O_9
REMARK    7  A    between atoms: O_9  and  C_10
REMARK    8  A    between atoms: C_18  and  C_20
REMARK                            x       y       z     vdW  Elec       q    Type
REMARK                         _______ _______ _______ _____ _____    ______ ____
ROOT
ATOM      1  C   UNL     1      47.193   8.983  12.710  0.00  0.00    +0.000 C 
ENDROOT
BRANCH   1   2
ATOM      2  N   UNL     1      46.049   8.867  13.647  0.00  0.00    +0.000 NA
ATOM      3  H   UNL     1      45.806   7.879  13.751  0.00  0.00    +0.000 HD
ATOM      4  H   UNL     1      45.230   9.307  13.223  0.00  0.00    +0.000 HD
ENDBRANCH   1   2
BRANCH   1   5
ATOM      5  C   UNL     1      47.485   7.597  12.100  0.00  0.00    +0.000 C 
ATOM      6  O   UNL     1      48.416   7.449  11.303  0.00  0.00    +0.000 OA
BRANCH   5   7
ATOM      7  C   UNL     1      46.763   6.419  12.573  0.00  0.00    +0.000 A 
ATOM      8  C   UNL     1      47.258   5.511  13.491  0.00  0.00    +0.000 A 
ATOM      9  S   UNL     1      46.395   4.031  13.456  0.00  0.00    +0.000 S 
ATOM     10  C   UNL     1      45.274   4.642  12.328  0.00  0.00    +0.000 A 
ATOM     11  N   UNL     1      44.296   3.868  11.788  0.00  0.00    +0.000 NA
ATOM     12  C   UNL     1      43.485   4.511  11.011  0.00  0.00    +0.000 A 
ATOM     13  N   UNL     1      43.538   5.860  10.755  0.00  0.00    +0.000 N 
ATOM     14  C   UNL     1      44.492   6.692  11.304  0.00  0.00    +0.000 A 
ATOM     15  O   UNL     1      44.411   7.908  11.227  0.00  0.00    +0.000 OA
ATOM     16  C   UNL     1      45.494   5.978  12.075  0.00  0.00    +0.000 A 
ATOM     17  H   UNL     1      42.800   6.316  10.241  0.00  0.00    +0.000 HD
ENDBRANCH   5   7
ENDBRANCH   1   5
BRANCH   1  18
ATOM     18  C   UNL     1      48.498   9.454  13.381  0.00  0.00    +0.000 C 
BRANCH  18  19
ATOM     19  C   UNL     1      48.910   8.694  14.612  0.00  0.00    +0.000 A 
ATOM     20  C   UNL     1      49.928   7.734  14.522  0.00  0.00    +0.000 A 
ATOM     21  C   UNL     1      50.372   7.066  15.657  0.00  0.00    +0.000 A 
ATOM     22  C   UNL     1      49.799   7.345  16.903  0.00  0.00    +0.000 A 
ATOM     23  C   UNL     1      48.783   8.306  16.996  0.00  0.00    +0.000 A 
ATOM     24  C   UNL     1      48.333   8.969  15.856  0.00  0.00    +0.000 A 
BRANCH  22  25
ATOM     25  C   UNL     1      50.278   6.624  18.131  0.00  0.00    +0.000 C 
BRANCH  25  26
ATOM     26  O   UNL     1      49.201   5.882  18.704  0.00  0.00    +0.000 OA
BRANCH  26  27
ATOM     27  C   UNL     1      48.840   4.770  18.011  0.00  0.00    +0.000 A 
ATOM     28  C   UNL     1      47.563   4.398  17.631  0.00  0.00    +0.000 A 
ATOM     29  N   UNL     1      47.272   3.278  16.940  0.00  0.00    +0.000 NA
ATOM     30  C   UNL     1      48.322   2.507  16.618  0.00  0.00    +0.000 A 
ATOM     31  N   UNL     1      49.604   2.754  16.925  0.00  0.00    +0.000 NA
ATOM     32  C   UNL     1      49.829   3.891  17.620  0.00  0.00    +0.000 A 
ENDBRANCH  26  27
ENDBRANCH  25  26
ENDBRANCH  22  25
ENDBRANCH  18  19
ENDBRANCH   1  18
TORSDOF 8
ENDMDL
