MODEL 1
REMARK VINA RESULT:    -8.879      0.000      0.000
REMARK INTER + INTRA:         -14.060
REMARK INTER:                 -13.292
REMARK INTRA:                  -0.769
REMARK UNBOUND:                -0.769
REMARK  Name = 
REMARK  10 active torsions:
REMARK  status: ('A' for Active; 'I' for Inactive)
REMARK    1  A    between atoms: C_1  and  C_2
REMARK    2  A    between atoms: C_2  and  N_3
REMARK    3  A    between atoms: C_2  and  C_21
REMARK    4  A    between atoms: N_3  and  C_4
REMARK    5  A    between atoms: C_4  and  C_5
REMARK    6  A    between atoms: C_8  and  C_9
REMARK    7  A    between atoms: C_9  and  C_10
REMARK    8  A    between atoms: C_10  and  C_11
REMARK    9  A    between atoms: C_11  and  O_12
REMARK   10  A    between atoms: C_11  and  C_13
REMARK                            x       y       z     vdW  Elec       q    Type
REMARK                         _______ _______ _______ _____ _____    ______ ____
ROOT
ATOM      1  C   UNL     1      46.692   5.283  13.588  0.00  0.00    +0.000 A 
ATOM      2  C   UNL     1      46.708   6.061  12.434  0.00  0.00    +0.000 A 
ATOM      3  C   UNL     1      45.708   5.874  11.484  0.00  0.00    +0.000 A 
ATOM      4  C   UNL     1      44.718   4.916  11.702  0.00  0.00    +0.000 A 
ATOM      5  C   UNL     1      44.776   4.191  12.886  0.00  0.00    +0.000 A 
ATOM      6  N   UNL     1      45.729   4.357  13.825  0.00  0.00    +0.000 NA
ENDROOT
BRANCH   1   7
ATOM      7  C   UNL     1      47.741   5.493  14.665  0.00  0.00    +0.000 C 
BRANCH   7   8
ATOM      8  N   UNL     1      48.011   4.275  15.432  0.00  0.00    +0.000 NA
ATOM      9  H   UNL     1      48.984   4.004  15.301  0.00  0.00    +0.000 HD
BRANCH   8  11
ATOM     10  C   UNL     1      46.828   3.252  17.371  0.00  0.00    +0.000 C 
ATOM     11  C   UNL     1      47.716   4.398  16.860  0.00  0.00    +0.000 C 
BRANCH  11  12
ATOM     12  C   UNL     1      49.050   4.403  17.583  0.00  0.00    +0.000 A 
ATOM     13  C   UNL     1      49.471   5.433  18.414  0.00  0.00    +0.000 A 
ATOM     14  S   UNL     1      51.044   5.211  19.032  0.00  0.00    +0.000 S 
ATOM     15  C   UNL     1      51.212   3.720  18.228  0.00  0.00    +0.000 A 
ATOM     16  N   UNL     1      52.363   3.000  18.323  0.00  0.00    +0.000 NA
ATOM     17  C   UNL     1      52.347   1.889  17.665  0.00  0.00    +0.000 A 
ATOM     18  N   UNL     1      51.286   1.426  16.933  0.00  0.00    +0.000 N 
ATOM     19  C   UNL     1      50.092   2.107  16.828  0.00  0.00    +0.000 A 
ATOM     20  O   UNL     1      49.140   1.636  16.208  0.00  0.00    +0.000 OA
ATOM     21  C   UNL     1      50.073   3.384  17.518  0.00  0.00    +0.000 A 
ATOM     22  H   UNL     1      51.331   0.534  16.464  0.00  0.00    +0.000 HD
ENDBRANCH  11  12
ENDBRANCH   8  11
ENDBRANCH   7   8
ENDBRANCH   1   7
BRANCH   4  23
ATOM     23  C   UNL     1      43.598   4.705  10.724  0.00  0.00    +0.000 C 
BRANCH  23  24
ATOM     24  C   UNL     1      44.122   4.136   9.403  0.00  0.00    +0.000 C 
BRANCH  24  25
ATOM     25  C   UNL     1      44.919   2.849   9.620  0.00  0.00    +0.000 C 
BRANCH  25  26
ATOM     26  C   UNL     1      45.756   2.514   8.398  0.00  0.00    +0.000 A 
ATOM     27  C   UNL     1      45.946   3.452   7.386  0.00  0.00    +0.000 A 
ATOM     28  C   UNL     1      46.725   3.101   6.286  0.00  0.00    +0.000 A 
ATOM     29  C   UNL     1      47.285   1.830   6.223  0.00  0.00    +0.000 A 
ATOM     30  C   UNL     1      47.041   0.954   7.268  0.00  0.00    +0.000 A 
ATOM     31  N   UNL     1      46.295   1.264   8.351  0.00  0.00    +0.000 NA
ENDBRANCH  25  26
BRANCH  25  32
ATOM     32  O   UNL     1      43.992   1.783   9.865  0.00  0.00    +0.000 OA
ATOM     33  H   UNL     1      44.301   1.374  10.701  0.00  0.00    +0.000 HD
ENDBRANCH  25  32
ENDBRANCH  24  25
ENDBRANCH  23  24
ENDBRANCH   4  23
TORSDOF 9
ENDMDL
MODEL 2
REMARK VINA RESULT:    -8.144      2.072      2.777
REMARK INTER + INTRA:         -12.960
REMARK INTER:                 -11.838
REMARK INTRA:                  -1.122
REMARK UNBOUND:                -0.769
REMARK  Name = 
REMARK  10 active torsions:
REMARK  status: ('A' for Active; 'I' for Inactive)
REMARK    1  A    between atoms: C_1  and  C_2
REMARK    2  A    between atoms: C_2  and  N_3
REMARK    3  A    between atoms: C_2  and  C_21
REMARK    4  A    between atoms: N_3  and  C_4
REMARK    5  A    between atoms: C_4  and  C_5
REMARK    6  A    between atoms: C_8  and  C_9
REMARK    7  A    between atoms: C_9  and  C_10
REMARK    8  A    between atoms: C_10  and  C_11
REMARK    9  A    between atoms: C_11  and  O_12
REMARK   10  A    between atoms: C_11  and  C_13
REMARK                            x       y       z     vdW  Elec       q    Type
REMARK                         _______ _______ _______ _____ _____    ______ ____
ROOT
ATOM      1  C   UNL     1      46.969   6.166  13.015  0.00  0.00    +0.000 A 
ATOM      2  C   UNL     1      46.285   5.065  13.523  0.00  0.00    +0.000 A 
ATOM      3  C   UNL     1      45.181   4.581  12.828  0.00  0.00    +0.000 A 
ATOM      4  C   UNL     1      44.781   5.204  11.647  0.00  0.00    +0.000 A 
ATOM      5  C   UNL     1      45.527   6.292  11.210  0.00  0.00    +0.000 A 
ATOM      6  N   UNL     1      46.604   6.777  11.860  0.00  0.00    +0.000 NA
ENDROOT
BRANCH   1   7
ATOM      7  C   UNL     1      48.204   6.692  13.724  0.00  0.00    +0.000 C 
BRANCH   7   8
ATOM      8  N   UNL     1      48.171   6.447  15.168  0.00  0.00    +0.000 NA
ATOM      9  H   UNL     1      48.307   5.453  15.343  0.00  0.00    +0.000 HD
BRANCH   8  11
ATOM     10  C   UNL     1      49.261   8.672  15.419  0.00  0.00    +0.000 C 
ATOM     11  C   UNL     1      49.156   7.223  15.922  0.00  0.00    +0.000 C 
BRANCH  11  12
ATOM     12  C   UNL     1      48.719   7.192  17.375  0.00  0.00    +0.000 A 
ATOM     13  C   UNL     1      48.211   8.295  18.048  0.00  0.00    +0.000 A 
ATOM     14  S   UNL     1      47.875   7.994  19.693  0.00  0.00    +0.000 S 
ATOM     15  C   UNL     1      48.375   6.373  19.557  0.00  0.00    +0.000 A 
ATOM     16  N   UNL     1      48.359   5.543  20.636  0.00  0.00    +0.000 NA
ATOM     17  C   UNL     1      48.762   4.342  20.386  0.00  0.00    +0.000 A 
ATOM     18  N   UNL     1      49.168   3.891  19.158  0.00  0.00    +0.000 N 
ATOM     19  C   UNL     1      49.177   4.685  18.031  0.00  0.00    +0.000 A 
ATOM     20  O   UNL     1      49.494   4.233  16.933  0.00  0.00    +0.000 OA
ATOM     21  C   UNL     1      48.771   6.058  18.269  0.00  0.00    +0.000 A 
ATOM     22  H   UNL     1      49.445   2.929  19.025  0.00  0.00    +0.000 HD
ENDBRANCH  11  12
ENDBRANCH   8  11
ENDBRANCH   7   8
ENDBRANCH   1   7
BRANCH   4  23
ATOM     23  C   UNL     1      43.619   4.694  10.842  0.00  0.00    +0.000 C 
BRANCH  23  24
ATOM     24  C   UNL     1      44.089   4.123   9.501  0.00  0.00    +0.000 C 
BRANCH  24  25
ATOM     25  C   UNL     1      44.882   2.828   9.686  0.00  0.00    +0.000 C 
BRANCH  25  26
ATOM     26  C   UNL     1      45.723   2.524   8.458  0.00  0.00    +0.000 A 
ATOM     27  C   UNL     1      45.920   3.490   7.473  0.00  0.00    +0.000 A 
ATOM     28  C   UNL     1      46.702   3.167   6.368  0.00  0.00    +0.000 A 
ATOM     29  C   UNL     1      47.257   1.896   6.271  0.00  0.00    +0.000 A 
ATOM     30  C   UNL     1      47.006   0.992   7.289  0.00  0.00    +0.000 A 
ATOM     31  N   UNL     1      46.257   1.275   8.378  0.00  0.00    +0.000 NA
ENDBRANCH  25  26
BRANCH  25  32
ATOM     32  O   UNL     1      43.952   1.759   9.899  0.00  0.00    +0.000 OA
ATOM     33  H   UNL     1      43.073   2.159   9.727  0.00  0.00    +0.000 HD
ENDBRANCH  25  32
ENDBRANCH  24  25
ENDBRANCH  23  24
ENDBRANCH   4  23
TORSDOF 9
ENDMDL
MODEL 3
REMARK VINA RESULT:    -8.140      1.881      2.463
REMARK INTER + INTRA:         -12.953
REMARK INTER:                 -11.912
REMARK INTRA:                  -1.041
REMARK UNBOUND:                -0.769
REMARK  Name = 
REMARK  10 active torsions:
REMARK  status: ('A' for Active; 'I' for Inactive)
REMARK    1  A    between atoms: C_1  and  C_2
REMARK    2  A    between atoms: C_2  and  N_3
REMARK    3  A    between atoms: C_2  and  C_21
REMARK    4  A    between atoms: N_3  and  C_4
REMARK    5  A    between atoms: C_4  and  C_5
REMARK    6  A    between atoms: C_8  and  C_9
REMARK    7  A    between atoms: C_9  and  C_10
REMARK    8  A    between atoms: C_10  and  C_11
REMARK    9  A    between atoms: C_11  and  O_12
REMARK   10  A    between atoms: C_11  and  C_13
REMARK                            x       y       z     vdW  Elec       q    Type
REMARK                         _______ _______ _______ _____ _____    ______ ____
ROOT
ATOM      1  C   UNL     1      48.015   6.633  14.052  0.00  0.00    +0.000 A 
ATOM      2  C   UNL     1      47.669   7.577  13.089  0.00  0.00    +0.000 A 
ATOM      3  C   UNL     1      46.750   7.226  12.104  0.00  0.00    +0.000 A 
ATOM      4  C   UNL     1      46.200   5.945  12.097  0.00  0.00    +0.000 A 
ATOM      5  C   UNL     1      46.596   5.070  13.101  0.00  0.00    +0.000 A 
ATOM      6  N   UNL     1      47.479   5.386  14.070  0.00  0.00    +0.000 NA
ENDROOT
BRANCH   1   7
ATOM      7  C   UNL     1      48.979   6.996  15.165  0.00  0.00    +0.000 C 
BRANCH   7   8
ATOM      8  N   UNL     1      48.295   7.313  16.422  0.00  0.00    +0.000 NA
ATOM      9  H   UNL     1      47.322   7.020  16.357  0.00  0.00    +0.000 HD
BRANCH   8  11
ATOM     10  C   UNL     1      48.306   7.235  18.911  0.00  0.00    +0.000 C 
ATOM     11  C   UNL     1      48.919   6.713  17.602  0.00  0.00    +0.000 C 
BRANCH  11  12
ATOM     12  C   UNL     1      48.726   5.212  17.483  0.00  0.00    +0.000 A 
ATOM     13  C   UNL     1      47.482   4.600  17.424  0.00  0.00    +0.000 A 
ATOM     14  S   UNL     1      47.563   2.897  17.371  0.00  0.00    +0.000 S 
ATOM     15  C   UNL     1      49.264   2.919  17.405  0.00  0.00    +0.000 A 
ATOM     16  N   UNL     1      49.979   1.761  17.404  0.00  0.00    +0.000 NA
ATOM     17  C   UNL     1      51.259   1.930  17.427  0.00  0.00    +0.000 A 
ATOM     18  N   UNL     1      51.890   3.146  17.441  0.00  0.00    +0.000 N 
ATOM     19  C   UNL     1      51.210   4.345  17.417  0.00  0.00    +0.000 A 
ATOM     20  O   UNL     1      51.808   5.418  17.373  0.00  0.00    +0.000 OA
ATOM     21  C   UNL     1      49.765   4.209  17.431  0.00  0.00    +0.000 A 
ATOM     22  H   UNL     1      52.897   3.207  17.431  0.00  0.00    +0.000 HD
ENDBRANCH  11  12
ENDBRANCH   8  11
ENDBRANCH   7   8
ENDBRANCH   1   7
BRANCH   4  23
ATOM     23  C   UNL     1      45.176   5.533  11.078  0.00  0.00    +0.000 C 
BRANCH  23  24
ATOM     24  C   UNL     1      45.080   4.008  10.980  0.00  0.00    +0.000 C 
BRANCH  24  25
ATOM     25  C   UNL     1      44.360   3.569   9.704  0.00  0.00    +0.000 C 
BRANCH  25  26
ATOM     26  C   UNL     1      45.351   3.096   8.654  0.00  0.00    +0.000 A 
ATOM     27  C   UNL     1      45.799   1.777   8.640  0.00  0.00    +0.000 A 
ATOM     28  C   UNL     1      46.704   1.388   7.657  0.00  0.00    +0.000 A 
ATOM     29  C   UNL     1      47.141   2.321   6.723  0.00  0.00    +0.000 A 
ATOM     30  C   UNL     1      46.652   3.614   6.811  0.00  0.00    +0.000 A 
ATOM     31  N   UNL     1      45.770   4.023   7.750  0.00  0.00    +0.000 NA
ENDBRANCH  25  26
BRANCH  25  32
ATOM     32  O   UNL     1      43.629   4.690   9.193  0.00  0.00    +0.000 OA
ATOM     33  H   UNL     1      42.729   4.341   9.022  0.00  0.00    +0.000 HD
ENDBRANCH  25  32
ENDBRANCH  24  25
ENDBRANCH  23  24
ENDBRANCH   4  23
TORSDOF 9
ENDMDL
MODEL 4
REMARK VINA RESULT:    -7.606      3.735      4.672
REMARK INTER + INTRA:         -12.155
REMARK INTER:                 -10.935
REMARK INTRA:                  -1.219
REMARK UNBOUND:                -0.769
REMARK  Name = 
REMARK  10 active torsions:
REMARK  status: ('A' for Active; 'I' for Inactive)
REMARK    1  A    between atoms: C_1  and  C_2
REMARK    2  A    between atoms: C_2  and  N_3
REMARK    3  A    between atoms: C_2  and  C_21
REMARK    4  A    between atoms: N_3  and  C_4
REMARK    5  A    between atoms: C_4  and  C_5
REMARK    6  A    between atoms: C_8  and  C_9
REMARK    7  A    between atoms: C_9  and  C_10
REMARK    8  A    between atoms: C_10  and  C_11
REMARK    9  A    between atoms: C_11  and  O_12
REMARK   10  A    between atoms: C_11  and  C_13
REMARK                            x       y       z     vdW  Elec       q    Type
REMARK                         _______ _______ _______ _____ _____    ______ ____
ROOT
ATOM      1  C   UNL     1      46.729   5.527  13.493  0.00  0.00    +0.000 A 
ATOM      2  C   UNL     1      46.748   6.187  12.268  0.00  0.00    +0.000 A 
ATOM      3  C   UNL     1      45.741   5.919  11.345  0.00  0.00    +0.000 A 
ATOM      4  C   UNL     1      44.742   4.999  11.660  0.00  0.00    +0.000 A 
ATOM      5  C   UNL     1      44.798   4.393  12.910  0.00  0.00    +0.000 A 
ATOM      6  N   UNL     1      45.757   4.640  13.824  0.00  0.00    +0.000 NA
ENDROOT
BRANCH   1   7
ATOM      7  C   UNL     1      47.786   5.829  14.539  0.00  0.00    +0.000 C 
BRANCH   7   8
ATOM      8  N   UNL     1      48.938   6.545  13.986  0.00  0.00    +0.000 NA
ATOM      9  H   UNL     1      48.709   6.878  13.051  0.00  0.00    +0.000 HD
BRANCH   8  11
ATOM     10  C   UNL     1      49.331   7.335  16.315  0.00  0.00    +0.000 C 
ATOM     11  C   UNL     1      49.393   7.662  14.814  0.00  0.00    +0.000 C 
BRANCH  11  12
ATOM     12  C   UNL     1      50.819   7.966  14.393  0.00  0.00    +0.000 A 
ATOM     13  C   UNL     1      51.921   7.774  15.214  0.00  0.00    +0.000 A 
ATOM     14  S   UNL     1      53.392   8.274  14.510  0.00  0.00    +0.000 S 
ATOM     15  C   UNL     1      52.610   8.745  13.074  0.00  0.00    +0.000 A 
ATOM     16  N   UNL     1      53.312   9.289  12.042  0.00  0.00    +0.000 NA
ATOM     17  C   UNL     1      52.590   9.595  11.016  0.00  0.00    +0.000 A 
ATOM     18  N   UNL     1      51.238   9.397  10.920  0.00  0.00    +0.000 N 
ATOM     19  C   UNL     1      50.490   8.826  11.927  0.00  0.00    +0.000 A 
ATOM     20  O   UNL     1      49.287   8.612  11.787  0.00  0.00    +0.000 OA
ATOM     21  C   UNL     1      51.249   8.501  13.120  0.00  0.00    +0.000 A 
ATOM     22  H   UNL     1      50.739   9.635  10.076  0.00  0.00    +0.000 HD
ENDBRANCH  11  12
ENDBRANCH   8  11
ENDBRANCH   7   8
ENDBRANCH   1   7
BRANCH   4  23
ATOM     23  C   UNL     1      43.614   4.706  10.712  0.00  0.00    +0.000 C 
BRANCH  23  24
ATOM     24  C   UNL     1      44.140   4.136   9.392  0.00  0.00    +0.000 C 
BRANCH  24  25
ATOM     25  C   UNL     1      44.923   2.840   9.610  0.00  0.00    +0.000 C 
BRANCH  25  26
ATOM     26  C   UNL     1      45.767   2.503   8.393  0.00  0.00    +0.000 A 
ATOM     27  C   UNL     1      45.998   3.453   7.401  0.00  0.00    +0.000 A 
ATOM     28  C   UNL     1      46.782   3.100   6.306  0.00  0.00    +0.000 A 
ATOM     29  C   UNL     1      47.306   1.814   6.227  0.00  0.00    +0.000 A 
ATOM     30  C   UNL     1      47.023   0.927   7.252  0.00  0.00    +0.000 A 
ATOM     31  N   UNL     1      46.270   1.239   8.330  0.00  0.00    +0.000 NA
ENDBRANCH  25  26
BRANCH  25  32
ATOM     32  O   UNL     1      43.984   1.782   9.842  0.00  0.00    +0.000 OA
ATOM     33  H   UNL     1      44.079   1.572  10.795  0.00  0.00    +0.000 HD
ENDBRANCH  25  32
ENDBRANCH  24  25
ENDBRANCH  23  24
ENDBRANCH   4  23
TORSDOF 9
ENDMDL
MODEL 5
REMARK VINA RESULT:    -7.249      3.730      8.743
REMARK INTER + INTRA:         -11.620
REMARK INTER:                 -10.058
REMARK INTRA:                  -1.563
REMARK UNBOUND:                -0.769
REMARK  Name = 
REMARK  10 active torsions:
REMARK  status: ('A' for Active; 'I' for Inactive)
REMARK    1  A    between atoms: C_1  and  C_2
REMARK    2  A    between atoms: C_2  and  N_3
REMARK    3  A    between atoms: C_2  and  C_21
REMARK    4  A    between atoms: N_3  and  C_4
REMARK    5  A    between atoms: C_4  and  C_5
REMARK    6  A    between atoms: C_8  and  C_9
REMARK    7  A    between atoms: C_9  and  C_10
REMARK    8  A    between atoms: C_10  and  C_11
REMARK    9  A    between atoms: C_11  and  O_12
REMARK   10  A    between atoms: C_11  and  C_13
REMARK                            x       y       z     vdW  Elec       q    Type
REMARK                         _______ _______ _______ _____ _____    ______ ____
ROOT
ATOM      1  C   UNL     1      48.653   7.976  14.084  0.00  0.00    +0.000 A 
ATOM      2  C   UNL     1      48.145   8.955  14.934  0.00  0.00    +0.000 A 
ATOM      3  C   UNL     1      48.331   8.815  16.306  0.00  0.00    +0.000 A 
ATOM      4  C   UNL     1      49.014   7.706  16.802  0.00  0.00    +0.000 A 
ATOM      5  C   UNL     1      49.493   6.782  15.880  0.00  0.00    +0.000 A 
ATOM      6  N   UNL     1      49.333   6.897  14.547  0.00  0.00    +0.000 NA
ENDROOT
BRANCH   1   7
ATOM      7  C   UNL     1      48.507   8.120  12.581  0.00  0.00    +0.000 C 
BRANCH   7   8
ATOM      8  N   UNL     1      47.846   6.966  11.966  0.00  0.00    +0.000 NA
ATOM      9  H   UNL     1      48.322   6.113  12.255  0.00  0.00    +0.000 HD
BRANCH   8  11
ATOM     10  C   UNL     1      45.698   8.217  12.117  0.00  0.00    +0.000 C 
ATOM     11  C   UNL     1      46.419   6.868  12.274  0.00  0.00    +0.000 C 
BRANCH  11  12
ATOM     12  C   UNL     1      45.836   5.837  11.325  0.00  0.00    +0.000 A 
ATOM     13  C   UNL     1      46.036   5.857   9.951  0.00  0.00    +0.000 A 
ATOM     14  S   UNL     1      45.200   4.624   9.123  0.00  0.00    +0.000 S 
ATOM     15  C   UNL     1      44.558   4.006  10.573  0.00  0.00    +0.000 A 
ATOM     16  N   UNL     1      43.719   2.934  10.566  0.00  0.00    +0.000 NA
ATOM     17  C   UNL     1      43.313   2.574  11.737  0.00  0.00    +0.000 A 
ATOM     18  N   UNL     1      43.675   3.175  12.913  0.00  0.00    +0.000 N 
ATOM     19  C   UNL     1      44.541   4.246  12.973  0.00  0.00    +0.000 A 
ATOM     20  O   UNL     1      44.889   4.727  14.050  0.00  0.00    +0.000 OA
ATOM     21  C   UNL     1      44.995   4.716  11.677  0.00  0.00    +0.000 A 
ATOM     22  H   UNL     1      43.341   2.824  13.799  0.00  0.00    +0.000 HD
ENDBRANCH  11  12
ENDBRANCH   8  11
ENDBRANCH   7   8
ENDBRANCH   1   7
BRANCH   4  23
ATOM     23  C   UNL     1      49.272   7.532  18.271  0.00  0.00    +0.000 C 
BRANCH  23  24
ATOM     24  C   UNL     1      47.982   7.184  19.019  0.00  0.00    +0.000 C 
BRANCH  24  25
ATOM     25  C   UNL     1      48.057   5.796  19.656  0.00  0.00    +0.000 C 
BRANCH  25  26
ATOM     26  C   UNL     1      48.132   4.712  18.595  0.00  0.00    +0.000 A 
ATOM     27  C   UNL     1      49.258   3.898  18.487  0.00  0.00    +0.000 A 
ATOM     28  C   UNL     1      49.281   2.915  17.502  0.00  0.00    +0.000 A 
ATOM     29  C   UNL     1      48.189   2.775  16.651  0.00  0.00    +0.000 A 
ATOM     30  C   UNL     1      47.113   3.629  16.821  0.00  0.00    +0.000 A 
ATOM     31  N   UNL     1      47.057   4.590  17.769  0.00  0.00    +0.000 NA
ENDBRANCH  25  26
BRANCH  25  32
ATOM     32  O   UNL     1      46.878   5.602  20.448  0.00  0.00    +0.000 OA
ATOM     33  H   UNL     1      46.407   6.461  20.404  0.00  0.00    +0.000 HD
ENDBRANCH  25  32
ENDBRANCH  24  25
ENDBRANCH  23  24
ENDBRANCH   4  23
TORSDOF 9
ENDMDL
MODEL 6
REMARK VINA RESULT:    -7.144      2.032      2.751
REMARK INTER + INTRA:         -11.462
REMARK INTER:                 -10.694
REMARK INTRA:                  -0.768
REMARK UNBOUND:                -0.769
REMARK  Name = 
REMARK  10 active torsions:
REMARK  status: ('A' for Active; 'I' for Inactive)
REMARK    1  A    between atoms: C_1  and  C_2
REMARK    2  A    between atoms: C_2  and  N_3
REMARK    3  A    between atoms: C_2  and  C_21
REMARK    4  A    between atoms: N_3  and  C_4
REMARK    5  A    between atoms: C_4  and  C_5
REMARK    6  A    between atoms: C_8  and  C_9
REMARK    7  A    between atoms: C_9  and  C_10
REMARK    8  A    between atoms: C_10  and  C_11
REMARK    9  A    between atoms: C_11  and  O_12
REMARK   10  A    between atoms: C_11  and  C_13
REMARK                            x       y       z     vdW  Elec       q    Type
REMARK                         _______ _______ _______ _____ _____    ______ ____
ROOT
ATOM      1  C   UNL     1      47.762   6.521  14.092  0.00  0.00    +0.000 A 
ATOM      2  C   UNL     1      47.064   6.901  12.949  0.00  0.00    +0.000 A 
ATOM      3  C   UNL     1      46.283   5.954  12.293  0.00  0.00    +0.000 A 
ATOM      4  C   UNL     1      46.217   4.651  12.786  0.00  0.00    +0.000 A 
ATOM      5  C   UNL     1      46.939   4.363  13.938  0.00  0.00    +0.000 A 
ATOM      6  N   UNL     1      47.698   5.263  14.596  0.00  0.00    +0.000 NA
ENDROOT
BRANCH   1   7
ATOM      7  C   UNL     1      48.587   7.539  14.856  0.00  0.00    +0.000 C 
BRANCH   7   8
ATOM      8  N   UNL     1      48.199   7.634  16.266  0.00  0.00    +0.000 NA
ATOM      9  H   UNL     1      47.856   6.729  16.581  0.00  0.00    +0.000 HD
BRANCH   8  11
ATOM     10  C   UNL     1      48.772   8.412  18.562  0.00  0.00    +0.000 C 
ATOM     11  C   UNL     1      49.276   8.092  17.145  0.00  0.00    +0.000 C 
BRANCH  11  12
ATOM     12  C   UNL     1      50.311   6.983  17.184  0.00  0.00    +0.000 A 
ATOM     13  C   UNL     1      51.666   7.189  16.971  0.00  0.00    +0.000 A 
ATOM     14  S   UNL     1      52.586   5.753  16.996  0.00  0.00    +0.000 S 
ATOM     15  C   UNL     1      51.208   4.808  17.314  0.00  0.00    +0.000 A 
ATOM     16  N   UNL     1      51.300   3.455  17.434  0.00  0.00    +0.000 NA
ATOM     17  C   UNL     1      50.176   2.868  17.679  0.00  0.00    +0.000 A 
ATOM     18  N   UNL     1      48.973   3.507  17.826  0.00  0.00    +0.000 N 
ATOM     19  C   UNL     1      48.834   4.876  17.740  0.00  0.00    +0.000 A 
ATOM     20  O   UNL     1      47.750   5.422  17.933  0.00  0.00    +0.000 OA
ATOM     21  C   UNL     1      50.065   5.579  17.425  0.00  0.00    +0.000 A 
ATOM     22  H   UNL     1      48.135   2.989  18.044  0.00  0.00    +0.000 HD
ENDBRANCH  11  12
ENDBRANCH   8  11
ENDBRANCH   7   8
ENDBRANCH   1   7
BRANCH   4  23
ATOM     23  C   UNL     1      45.357   3.606  12.135  0.00  0.00    +0.000 C 
BRANCH  23  24
ATOM     24  C   UNL     1      43.891   4.046  12.097  0.00  0.00    +0.000 C 
BRANCH  24  25
ATOM     25  C   UNL     1      43.385   4.199  10.661  0.00  0.00    +0.000 C 
BRANCH  25  26
ATOM     26  C   UNL     1      44.372   3.607   9.670  0.00  0.00    +0.000 A 
ATOM     27  C   UNL     1      45.146   4.432   8.857  0.00  0.00    +0.000 A 
ATOM     28  C   UNL     1      46.040   3.845   7.966  0.00  0.00    +0.000 A 
ATOM     29  C   UNL     1      46.133   2.458   7.906  0.00  0.00    +0.000 A 
ATOM     30  C   UNL     1      45.323   1.710   8.744  0.00  0.00    +0.000 A 
ATOM     31  N   UNL     1      44.448   2.249   9.622  0.00  0.00    +0.000 NA
ENDBRANCH  25  26
BRANCH  25  32
ATOM     32  O   UNL     1      43.223   5.597  10.390  0.00  0.00    +0.000 OA
ATOM     33  H   UNL     1      43.473   5.697   9.447  0.00  0.00    +0.000 HD
ENDBRANCH  25  32
ENDBRANCH  24  25
ENDBRANCH  23  24
ENDBRANCH   4  23
TORSDOF 9
ENDMDL
MODEL 7
REMARK VINA RESULT:    -7.078      2.936      3.697
REMARK INTER + INTRA:         -11.364
REMARK INTER:                 -10.280
REMARK INTRA:                  -1.084
REMARK UNBOUND:                -0.769
REMARK  Name = 
REMARK  10 active torsions:
REMARK  status: ('A' for Active; 'I' for Inactive)
REMARK    1  A    between atoms: C_1  and  C_2
REMARK    2  A    between atoms: C_2  and  N_3
REMARK    3  A    between atoms: C_2  and  C_21
REMARK    4  A    between atoms: N_3  and  C_4
REMARK    5  A    between atoms: C_4  and  C_5
REMARK    6  A    between atoms: C_8  and  C_9
REMARK    7  A    between atoms: C_9  and  C_10
REMARK    8  A    between atoms: C_10  and  C_11
REMARK    9  A    between atoms: C_11  and  O_12
REMARK   10  A    between atoms: C_11  and  C_13
REMARK                            x       y       z     vdW  Elec       q    Type
REMARK                         _______ _______ _______ _____ _____    ______ ____
ROOT
ATOM      1  C   UNL     1      47.662   8.476  13.604  0.00  0.00    +0.000 A 
ATOM      2  C   UNL     1      48.252   7.216  13.548  0.00  0.00    +0.000 A 
ATOM      3  C   UNL     1      47.521   6.155  13.021  0.00  0.00    +0.000 A 
ATOM      4  C   UNL     1      46.221   6.371  12.564  0.00  0.00    +0.000 A 
ATOM      5  C   UNL     1      45.716   7.663  12.651  0.00  0.00    +0.000 A 
ATOM      6  N   UNL     1      46.405   8.708  13.150  0.00  0.00    +0.000 NA
ENDROOT
BRANCH   1   7
ATOM      7  C   UNL     1      48.447   9.663  14.131  0.00  0.00    +0.000 C 
BRANCH   7   8
ATOM      8  N   UNL     1      48.302   9.836  15.578  0.00  0.00    +0.000 NA
ATOM      9  H   UNL     1      47.439   9.389  15.885  0.00  0.00    +0.000 HD
BRANCH   8  11
ATOM     10  C   UNL     1      50.211  10.440  17.059  0.00  0.00    +0.000 C 
ATOM     11  C   UNL     1      49.432   9.320  16.352  0.00  0.00    +0.000 C 
BRANCH  11  12
ATOM     12  C   UNL     1      48.860   8.346  17.365  0.00  0.00    +0.000 A 
ATOM     13  C   UNL     1      47.885   8.686  18.293  0.00  0.00    +0.000 A 
ATOM     14  S   UNL     1      47.485   7.416  19.358  0.00  0.00    +0.000 S 
ATOM     15  C   UNL     1      48.586   6.360  18.604  0.00  0.00    +0.000 A 
ATOM     16  N   UNL     1      48.755   5.087  19.055  0.00  0.00    +0.000 NA
ATOM     17  C   UNL     1      49.618   4.399  18.385  0.00  0.00    +0.000 A 
ATOM     18  N   UNL     1      50.319   4.861  17.303  0.00  0.00    +0.000 N 
ATOM     19  C   UNL     1      50.164   6.132  16.794  0.00  0.00    +0.000 A 
ATOM     20  O   UNL     1      50.767   6.496  15.787  0.00  0.00    +0.000 OA
ATOM     21  C   UNL     1      49.232   6.960  17.538  0.00  0.00    +0.000 A 
ATOM     22  H   UNL     1      50.961   4.260  16.807  0.00  0.00    +0.000 HD
ENDBRANCH  11  12
ENDBRANCH   8  11
ENDBRANCH   7   8
ENDBRANCH   1   7
BRANCH   4  23
ATOM     23  C   UNL     1      45.408   5.266  11.952  0.00  0.00    +0.000 C 
BRANCH  23  24
ATOM     24  C   UNL     1      45.372   5.392  10.426  0.00  0.00    +0.000 C 
BRANCH  24  25
ATOM     25  C   UNL     1      44.600   4.238   9.784  0.00  0.00    +0.000 C 
BRANCH  25  26
ATOM     26  C   UNL     1      45.471   3.484   8.794  0.00  0.00    +0.000 A 
ATOM     27  C   UNL     1      45.616   2.102   8.883  0.00  0.00    +0.000 A 
ATOM     28  C   UNL     1      46.421   1.453   7.951  0.00  0.00    +0.000 A 
ATOM     29  C   UNL     1      47.061   2.197   6.965  0.00  0.00    +0.000 A 
ATOM     30  C   UNL     1      46.869   3.568   6.951  0.00  0.00    +0.000 A 
ATOM     31  N   UNL     1      46.091   4.228   7.837  0.00  0.00    +0.000 NA
ENDBRANCH  25  26
BRANCH  25  32
ATOM     32  O   UNL     1      43.467   4.784   9.097  0.00  0.00    +0.000 OA
ATOM     33  H   UNL     1      42.963   5.261   9.791  0.00  0.00    +0.000 HD
ENDBRANCH  25  32
ENDBRANCH  24  25
ENDBRANCH  23  24
ENDBRANCH   4  23
TORSDOF 9
ENDMDL
MODEL 8
REMARK VINA RESULT:    -7.054      4.338      5.195
REMARK INTER + INTRA:         -11.328
REMARK INTER:                 -10.347
REMARK INTRA:                  -0.981
REMARK UNBOUND:                -0.769
REMARK  Name = 
REMARK  10 active torsions:
REMARK  status: ('A' for Active; 'I' for Inactive)
REMARK    1  A    between atoms: C_1  and  C_2
REMARK    2  A    between atoms: C_2  and  N_3
REMARK    3  A    between atoms: C_2  and  C_21
REMARK    4  A    between atoms: N_3  and  C_4
REMARK    5  A    between atoms: C_4  and  C_5
REMARK    6  A    between atoms: C_8  and  C_9
REMARK    7  A    between atoms: C_9  and  C_10
REMARK    8  A    between atoms: C_10  and  C_11
REMARK    9  A    between atoms: C_11  and  O_12
REMARK   10  A    between atoms: C_11  and  C_13
REMARK                            x       y       z     vdW  Elec       q    Type
REMARK                         _______ _______ _______ _____ _____    ______ ____
ROOT
ATOM      1  C   UNL     1      47.214   6.229  12.775  0.00  0.00    +0.000 A 
ATOM      2  C   UNL     1      46.547   5.203  13.439  0.00  0.00    +0.000 A 
ATOM      3  C   UNL     1      45.403   4.661  12.860  0.00  0.00    +0.000 A 
ATOM      4  C   UNL     1      44.947   5.154  11.638  0.00  0.00    +0.000 A 
ATOM      5  C   UNL     1      45.679   6.174  11.043  0.00  0.00    +0.000 A 
ATOM      6  N   UNL     1      46.794   6.712  11.579  0.00  0.00    +0.000 NA
ENDROOT
BRANCH   1   7
ATOM      7  C   UNL     1      48.489   6.812  13.356  0.00  0.00    +0.000 C 
BRANCH   7   8
ATOM      8  N   UNL     1      48.585   8.261  13.162  0.00  0.00    +0.000 NA
ATOM      9  H   UNL     1      48.867   8.699  14.037  0.00  0.00    +0.000 HD
BRANCH   8  11
ATOM     10  C   UNL     1      49.045   9.940  11.380  0.00  0.00    +0.000 C 
ATOM     11  C   UNL     1      49.500   8.655  12.091  0.00  0.00    +0.000 C 
BRANCH  11  12
ATOM     12  C   UNL     1      50.862   8.853  12.730  0.00  0.00    +0.000 A 
ATOM     13  C   UNL     1      51.051   9.460  13.964  0.00  0.00    +0.000 A 
ATOM     14  S   UNL     1      52.692   9.619  14.401  0.00  0.00    +0.000 S 
ATOM     15  C   UNL     1      53.207   8.863  12.966  0.00  0.00    +0.000 A 
ATOM     16  N   UNL     1      54.532   8.697  12.698  0.00  0.00    +0.000 NA
ATOM     17  C   UNL     1      54.774   8.105  11.577  0.00  0.00    +0.000 A 
ATOM     18  N   UNL     1      53.819   7.654  10.705  0.00  0.00    +0.000 N 
ATOM     19  C   UNL     1      52.467   7.775  10.943  0.00  0.00    +0.000 A 
ATOM     20  O   UNL     1      51.637   7.309  10.166  0.00  0.00    +0.000 OA
ATOM     21  C   UNL     1      52.142   8.472  12.175  0.00  0.00    +0.000 A 
ATOM     22  H   UNL     1      54.079   7.174   9.856  0.00  0.00    +0.000 HD
ENDBRANCH  11  12
ENDBRANCH   8  11
ENDBRANCH   7   8
ENDBRANCH   1   7
BRANCH   4  23
ATOM     23  C   UNL     1      43.740   4.574  10.957  0.00  0.00    +0.000 C 
BRANCH  23  24
ATOM     24  C   UNL     1      44.104   4.013   9.580  0.00  0.00    +0.000 C 
BRANCH  24  25
ATOM     25  C   UNL     1      44.884   2.702   9.693  0.00  0.00    +0.000 C 
BRANCH  25  26
ATOM     26  C   UNL     1      45.732   2.464   8.455  0.00  0.00    +0.000 A 
ATOM     27  C   UNL     1      45.908   3.471   7.509  0.00  0.00    +0.000 A 
ATOM     28  C   UNL     1      46.697   3.208   6.392  0.00  0.00    +0.000 A 
ATOM     29  C   UNL     1      47.280   1.954   6.247  0.00  0.00    +0.000 A 
ATOM     30  C   UNL     1      47.048   1.007   7.230  0.00  0.00    +0.000 A 
ATOM     31  N   UNL     1      46.293   1.230   8.328  0.00  0.00    +0.000 NA
ENDBRANCH  25  26
BRANCH  25  32
ATOM     32  O   UNL     1      43.944   1.631   9.836  0.00  0.00    +0.000 OA
ATOM     33  H   UNL     1      43.201   1.872   9.242  0.00  0.00    +0.000 HD
ENDBRANCH  25  32
ENDBRANCH  24  25
ENDBRANCH  23  24
ENDBRANCH   4  23
TORSDOF 9
ENDMDL
MODEL 9
REMARK VINA RESULT:    -6.865      2.425      3.863
REMARK INTER + INTRA:         -11.045
REMARK INTER:                  -9.808
REMARK INTRA:                  -1.236
REMARK UNBOUND:                -0.769
REMARK  Name = 
REMARK  10 active torsions:
REMARK  status: ('A' for Active; 'I' for Inactive)
REMARK    1  A    between atoms: C_1  and  C_2
REMARK    2  A    between atoms: C_2  and  N_3
REMARK    3  A    between atoms: C_2  and  C_21
REMARK    4  A    between atoms: N_3  and  C_4
REMARK    5  A    between atoms: C_4  and  C_5
REMARK    6  A    between atoms: C_8  and  C_9
REMARK    7  A    between atoms: C_9  and  C_10
REMARK    8  A    between atoms: C_10  and  C_11
REMARK    9  A    between atoms: C_11  and  O_12
REMARK   10  A    between atoms: C_11  and  C_13
REMARK                            x       y       z     vdW  Elec       q    Type
REMARK                         _______ _______ _______ _____ _____    ______ ____
ROOT
ATOM      1  C   UNL     1      48.690   7.829  15.989  0.00  0.00    +0.000 A 
ATOM      2  C   UNL     1      48.070   8.895  15.344  0.00  0.00    +0.000 A 
ATOM      3  C   UNL     1      47.734   8.763  14.000  0.00  0.00    +0.000 A 
ATOM      4  C   UNL     1      48.025   7.577  13.328  0.00  0.00    +0.000 A 
ATOM      5  C   UNL     1      48.639   6.562  14.052  0.00  0.00    +0.000 A 
ATOM      6  N   UNL     1      48.968   6.661  15.356  0.00  0.00    +0.000 NA
ENDROOT
BRANCH   1   7
ATOM      7  C   UNL     1      49.030   7.923  17.465  0.00  0.00    +0.000 C 
BRANCH   7   8
ATOM      8  N   UNL     1      48.163   7.085  18.297  0.00  0.00    +0.000 NA
ATOM      9  H   UNL     1      47.707   6.387  17.711  0.00  0.00    +0.000 HD
BRANCH   8  11
ATOM     10  C   UNL     1      47.892   5.953  20.499  0.00  0.00    +0.000 C 
ATOM     11  C   UNL     1      48.860   6.427  19.403  0.00  0.00    +0.000 C 
BRANCH  11  12
ATOM     12  C   UNL     1      49.611   5.250  18.808  0.00  0.00    +0.000 A 
ATOM     13  C   UNL     1      50.969   5.031  18.997  0.00  0.00    +0.000 A 
ATOM     14  S   UNL     1      51.564   3.676  18.149  0.00  0.00    +0.000 S 
ATOM     15  C   UNL     1      50.024   3.323  17.517  0.00  0.00    +0.000 A 
ATOM     16  N   UNL     1      49.839   2.270  16.674  0.00  0.00    +0.000 NA
ATOM     17  C   UNL     1      48.619   2.119  16.278  0.00  0.00    +0.000 A 
ATOM     18  N   UNL     1      47.568   2.914  16.652  0.00  0.00    +0.000 N 
ATOM     19  C   UNL     1      47.702   3.975  17.522  0.00  0.00    +0.000 A 
ATOM     20  O   UNL     1      46.728   4.634  17.881  0.00  0.00    +0.000 OA
ATOM     21  C   UNL     1      49.063   4.211  17.966  0.00  0.00    +0.000 A 
ATOM     22  H   UNL     1      46.633   2.724  16.324  0.00  0.00    +0.000 HD
ENDBRANCH  11  12
ENDBRANCH   8  11
ENDBRANCH   7   8
ENDBRANCH   1   7
BRANCH   4  23
ATOM     23  C   UNL     1      47.646   7.374  11.888  0.00  0.00    +0.000 C 
BRANCH  23  24
ATOM     24  C   UNL     1      46.125   7.327  11.722  0.00  0.00    +0.000 C 
BRANCH  24  25
ATOM     25  C   UNL     1      45.537   6.028  12.276  0.00  0.00    +0.000 C 
BRANCH  25  26
ATOM     26  C   UNL     1      45.183   5.068  11.154  0.00  0.00    +0.000 A 
ATOM     27  C   UNL     1      45.611   5.308   9.850  0.00  0.00    +0.000 A 
ATOM     28  C   UNL     1      45.266   4.398   8.855  0.00  0.00    +0.000 A 
ATOM     29  C   UNL     1      44.502   3.283   9.183  0.00  0.00    +0.000 A 
ATOM     30  C   UNL     1      44.111   3.122  10.502  0.00  0.00    +0.000 A 
ATOM     31  N   UNL     1      44.433   3.984  11.492  0.00  0.00    +0.000 NA
ENDBRANCH  25  26
BRANCH  25  32
ATOM     32  O   UNL     1      44.352   6.351  13.014  0.00  0.00    +0.000 OA
ATOM     33  H   UNL     1      44.673   6.861  13.788  0.00  0.00    +0.000 HD
ENDBRANCH  25  32
ENDBRANCH  24  25
ENDBRANCH  23  24
ENDBRANCH   4  23
TORSDOF 9
ENDMDL
