MODEL 1
REMARK VINA RESULT:    -9.284      0.000      0.000
REMARK INTER + INTRA:         -12.849
REMARK INTER:                 -11.998
REMARK INTRA:                  -0.851
REMARK UNBOUND:                -0.851
REMARK  Name = 
REMARK  5 active torsions:
REMARK  status: ('A' for Active; 'I' for Inactive)
REMARK    1  A    between atoms: C_2  and  C_4
REMARK    2  A    between atoms: C_7  and  N_8
REMARK    3  A    between atoms: N_8  and  C_9
REMARK    4  A    between atoms: C_9  and  C_10
REMARK    5  A    between atoms: C_12  and  C_13
REMARK                            x       y       z     vdW  Elec       q    Type
REMARK                         _______ _______ _______ _____ _____    ______ ____
ROOT
ATOM      1  C   UNL     1      44.836   5.035  11.732  0.00  0.00    +0.000 A 
ATOM      2  C   UNL     1      45.477   6.282  11.571  0.00  0.00    +0.000 A 
ATOM      3  C   UNL     1      46.654   6.625  12.268  0.00  0.00    +0.000 A 
ATOM      4  C   UNL     1      47.182   5.660  13.143  0.00  0.00    +0.000 A 
ATOM      5  C   UNL     1      46.559   4.424  13.304  0.00  0.00    +0.000 A 
ATOM      6  F   UNL     1      47.094   3.528  14.148  0.00  0.00    +0.000 F 
ATOM      7  C   UNL     1      45.394   4.113  12.614  0.00  0.00    +0.000 A 
ATOM      8  F   UNL     1      44.809   2.922  12.797  0.00  0.00    +0.000 F 
ENDROOT
BRANCH   3   9
ATOM      9  C   UNL     1      47.303   7.948  12.090  0.00  0.00    +0.000 A 
ATOM     10  C   UNL     1      48.668   8.060  11.756  0.00  0.00    +0.000 A 
ATOM     11  C   UNL     1      49.288   9.305  11.590  0.00  0.00    +0.000 A 
ATOM     12  C   UNL     1      48.549  10.472  11.745  0.00  0.00    +0.000 A 
ATOM     13  C   UNL     1      47.203  10.381  12.066  0.00  0.00    +0.000 A 
ATOM     14  F   UNL     1      46.485  11.503  12.211  0.00  0.00    +0.000 F 
ATOM     15  C   UNL     1      46.584   9.146  12.244  0.00  0.00    +0.000 A 
ENDBRANCH   3   9
BRANCH   1  16
ATOM     16  C   UNL     1      43.552   4.739  10.997  0.00  0.00    +0.000 C 
BRANCH  16  17
ATOM     17  N   UNL     1      43.783   4.931   9.569  0.00  0.00    +0.000 N 
ATOM     18  H   UNL     1      44.112   5.872   9.371  0.00  0.00    +0.000 HD
BRANCH  17  22
ATOM     19  C   UNL     1      46.204   2.051   7.918  0.00  0.00    +0.000 A 
ATOM     20  C   UNL     1      46.350   3.382   7.564  0.00  0.00    +0.000 A 
ATOM     21  N   UNL     1      45.553   4.365   8.065  0.00  0.00    +0.000 NA
ATOM     22  C   UNL     1      44.596   3.984   8.937  0.00  0.00    +0.000 A 
ATOM     23  C   UNL     1      44.472   2.630   9.286  0.00  0.00    +0.000 A 
ATOM     24  N   UNL     1      45.249   1.631   8.790  0.00  0.00    +0.000 NA
BRANCH  19  26
ATOM     25  N   UNL     1      46.819  -0.276   7.653  0.00  0.00    +0.000 N 
ATOM     26  C   UNL     1      47.116   1.024   7.342  0.00  0.00    +0.000 C 
ATOM     27  O   UNL     1      48.068   1.319   6.634  0.00  0.00    +0.000 OA
ATOM     28  H   UNL     1      47.393  -1.019   7.283  0.00  0.00    +0.000 HD
ATOM     29  H   UNL     1      46.014  -0.491   8.231  0.00  0.00    +0.000 HD
ENDBRANCH  19  26
ENDBRANCH  17  22
ENDBRANCH  16  17
ENDBRANCH   1  16
TORSDOF 5
ENDMDL
MODEL 2
REMARK VINA RESULT:    -8.585      4.084      7.341
REMARK INTER + INTRA:         -11.946
REMARK INTER:                 -11.421
REMARK INTRA:                  -0.524
REMARK UNBOUND:                -0.851
REMARK  Name = 
REMARK  5 active torsions:
REMARK  status: ('A' for Active; 'I' for Inactive)
REMARK    1  A    between atoms: C_2  and  C_4
REMARK    2  A    between atoms: C_7  and  N_8
REMARK    3  A    between atoms: N_8  and  C_9
REMARK    4  A    between atoms: C_9  and  C_10
REMARK    5  A    between atoms: C_12  and  C_13
REMARK                            x       y       z     vdW  Elec       q    Type
REMARK                         _______ _______ _______ _____ _____    ______ ____
ROOT
ATOM      1  C   UNL     1      45.478   6.036  11.184  0.00  0.00    +0.000 A 
ATOM      2  C   UNL     1      46.002   5.231  10.150  0.00  0.00    +0.000 A 
ATOM      3  C   UNL     1      45.246   4.221   9.519  0.00  0.00    +0.000 A 
ATOM      4  C   UNL     1      43.923   4.046   9.958  0.00  0.00    +0.000 A 
ATOM      5  C   UNL     1      43.395   4.841  10.974  0.00  0.00    +0.000 A 
ATOM      6  F   UNL     1      42.127   4.643  11.365  0.00  0.00    +0.000 F 
ATOM      7  C   UNL     1      44.163   5.822  11.588  0.00  0.00    +0.000 A 
ATOM      8  F   UNL     1      43.634   6.564  12.570  0.00  0.00    +0.000 F 
ENDROOT
BRANCH   3   9
ATOM      9  C   UNL     1      45.825   3.378   8.442  0.00  0.00    +0.000 A 
ATOM     10  C   UNL     1      46.267   3.938   7.226  0.00  0.00    +0.000 A 
ATOM     11  C   UNL     1      46.811   3.149   6.205  0.00  0.00    +0.000 A 
ATOM     12  C   UNL     1      46.935   1.776   6.383  0.00  0.00    +0.000 A 
ATOM     13  C   UNL     1      46.512   1.209   7.575  0.00  0.00    +0.000 A 
ATOM     14  F   UNL     1      46.634  -0.113   7.754  0.00  0.00    +0.000 F 
ATOM     15  C   UNL     1      45.959   1.988   8.590  0.00  0.00    +0.000 A 
ENDBRANCH   3   9
BRANCH   1  16
ATOM     16  C   UNL     1      46.347   7.070  11.857  0.00  0.00    +0.000 C 
BRANCH  16  17
ATOM     17  N   UNL     1      47.603   6.435  12.245  0.00  0.00    +0.000 N 
ATOM     18  H   UNL     1      48.383   7.083  12.169  0.00  0.00    +0.000 HD
BRANCH  17  22
ATOM     19  C   UNL     1      47.421   4.516  15.874  0.00  0.00    +0.000 A 
ATOM     20  C   UNL     1      48.164   5.677  15.726  0.00  0.00    +0.000 A 
ATOM     21  N   UNL     1      48.274   6.330  14.538  0.00  0.00    +0.000 NA
ATOM     22  C   UNL     1      47.619   5.792  13.487  0.00  0.00    +0.000 A 
ATOM     23  C   UNL     1      46.868   4.619  13.662  0.00  0.00    +0.000 A 
ATOM     24  N   UNL     1      46.753   3.945  14.837  0.00  0.00    +0.000 NA
BRANCH  19  26
ATOM     25  N   UNL     1      48.174   4.342  18.168  0.00  0.00    +0.000 N 
ATOM     26  C   UNL     1      47.332   3.855  17.205  0.00  0.00    +0.000 C 
ATOM     27  O   UNL     1      46.554   2.938  17.428  0.00  0.00    +0.000 OA
ATOM     28  H   UNL     1      48.153   3.942  19.095  0.00  0.00    +0.000 HD
ATOM     29  H   UNL     1      48.798   5.113  17.957  0.00  0.00    +0.000 HD
ENDBRANCH  19  26
ENDBRANCH  17  22
ENDBRANCH  16  17
ENDBRANCH   1  16
TORSDOF 5
ENDMDL
MODEL 3
REMARK VINA RESULT:    -8.350      3.663      6.858
REMARK INTER + INTRA:         -11.641
REMARK INTER:                 -10.860
REMARK INTRA:                  -0.781
REMARK UNBOUND:                -0.851
REMARK  Name = 
REMARK  5 active torsions:
REMARK  status: ('A' for Active; 'I' for Inactive)
REMARK    1  A    between atoms: C_2  and  C_4
REMARK    2  A    between atoms: C_7  and  N_8
REMARK    3  A    between atoms: N_8  and  C_9
REMARK    4  A    between atoms: C_9  and  C_10
REMARK    5  A    between atoms: C_12  and  C_13
REMARK                            x       y       z     vdW  Elec       q    Type
REMARK                         _______ _______ _______ _____ _____    ______ ____
ROOT
ATOM      1  C   UNL     1      43.991   5.234  11.137  0.00  0.00    +0.000 A 
ATOM      2  C   UNL     1      44.706   4.772  10.011  0.00  0.00    +0.000 A 
ATOM      3  C   UNL     1      44.867   3.400   9.726  0.00  0.00    +0.000 A 
ATOM      4  C   UNL     1      44.275   2.489  10.617  0.00  0.00    +0.000 A 
ATOM      5  C   UNL     1      43.562   2.936  11.728  0.00  0.00    +0.000 A 
ATOM      6  F   UNL     1      43.010   2.035  12.555  0.00  0.00    +0.000 F 
ATOM      7  C   UNL     1      43.425   4.293  11.993  0.00  0.00    +0.000 A 
ATOM      8  F   UNL     1      42.745   4.695  13.075  0.00  0.00    +0.000 F 
ENDROOT
BRANCH   3   9
ATOM      9  C   UNL     1      45.635   2.940   8.542  0.00  0.00    +0.000 A 
ATOM     10  C   UNL     1      46.030   3.835   7.527  0.00  0.00    +0.000 A 
ATOM     11  C   UNL     1      46.752   3.408   6.405  0.00  0.00    +0.000 A 
ATOM     12  C   UNL     1      47.105   2.069   6.279  0.00  0.00    +0.000 A 
ATOM     13  C   UNL     1      46.731   1.175   7.270  0.00  0.00    +0.000 A 
ATOM     14  F   UNL     1      47.074  -0.115   7.156  0.00  0.00    +0.000 F 
ATOM     15  C   UNL     1      46.003   1.593   8.383  0.00  0.00    +0.000 A 
ENDBRANCH   3   9
BRANCH   1  16
ATOM     16  C   UNL     1      43.890   6.713  11.419  0.00  0.00    +0.000 C 
BRANCH  16  17
ATOM     17  N   UNL     1      44.617   6.998  12.652  0.00  0.00    +0.000 N 
ATOM     18  H   UNL     1      44.416   6.306  13.369  0.00  0.00    +0.000 HD
BRANCH  17  22
ATOM     19  C   UNL     1      48.697   7.463  12.502  0.00  0.00    +0.000 A 
ATOM     20  C   UNL     1      47.856   8.498  12.129  0.00  0.00    +0.000 A 
ATOM     21  N   UNL     1      46.500   8.380  12.137  0.00  0.00    +0.000 NA
ATOM     22  C   UNL     1      45.998   7.190  12.530  0.00  0.00    +0.000 A 
ATOM     23  C   UNL     1      46.870   6.158  12.911  0.00  0.00    +0.000 A 
ATOM     24  N   UNL     1      48.226   6.251  12.900  0.00  0.00    +0.000 NA
BRANCH  19  26
ATOM     25  N   UNL     1      50.787   7.680  13.706  0.00  0.00    +0.000 N 
ATOM     26  C   UNL     1      50.172   7.660  12.482  0.00  0.00    +0.000 C 
ATOM     27  O   UNL     1      50.800   7.793  11.440  0.00  0.00    +0.000 OA
ATOM     28  H   UNL     1      51.788   7.799  13.757  0.00  0.00    +0.000 HD
ATOM     29  H   UNL     1      50.242   7.553  14.551  0.00  0.00    +0.000 HD
ENDBRANCH  19  26
ENDBRANCH  17  22
ENDBRANCH  16  17
ENDBRANCH   1  16
TORSDOF 5
ENDMDL
MODEL 4
REMARK VINA RESULT:    -8.210      3.955      7.214
REMARK INTER + INTRA:         -11.461
REMARK INTER:                 -10.860
REMARK INTRA:                  -0.601
REMARK UNBOUND:                -0.851
REMARK  Name = 
REMARK  5 active torsions:
REMARK  status: ('A' for Active; 'I' for Inactive)
REMARK    1  A    between atoms: C_2  and  C_4
REMARK    2  A    between atoms: C_7  and  N_8
REMARK    3  A    between atoms: N_8  and  C_9
REMARK    4  A    between atoms: C_9  and  C_10
REMARK    5  A    between atoms: C_12  and  C_13
REMARK                            x       y       z     vdW  Elec       q    Type
REMARK                         _______ _______ _______ _____ _____    ______ ____
ROOT
ATOM      1  C   UNL     1      44.666   5.094  10.934  0.00  0.00    +0.000 A 
ATOM      2  C   UNL     1      45.339   4.581   9.805  0.00  0.00    +0.000 A 
ATOM      3  C   UNL     1      45.164   3.255   9.356  0.00  0.00    +0.000 A 
ATOM      4  C   UNL     1      44.272   2.448  10.082  0.00  0.00    +0.000 A 
ATOM      5  C   UNL     1      43.597   2.948  11.194  0.00  0.00    +0.000 A 
ATOM      6  F   UNL     1      42.753   2.147  11.861  0.00  0.00    +0.000 F 
ATOM      7  C   UNL     1      43.795   4.255  11.623  0.00  0.00    +0.000 A 
ATOM      8  F   UNL     1      43.142   4.706  12.704  0.00  0.00    +0.000 F 
ENDROOT
BRANCH   3   9
ATOM      9  C   UNL     1      45.895   2.735   8.173  0.00  0.00    +0.000 A 
ATOM     10  C   UNL     1      46.394   1.416   8.138  0.00  0.00    +0.000 A 
ATOM     11  C   UNL     1      47.087   0.919   7.027  0.00  0.00    +0.000 A 
ATOM     12  C   UNL     1      47.288   1.730   5.917  0.00  0.00    +0.000 A 
ATOM     13  C   UNL     1      46.798   3.027   5.931  0.00  0.00    +0.000 A 
ATOM     14  F   UNL     1      46.983   3.812   4.860  0.00  0.00    +0.000 F 
ATOM     15  C   UNL     1      46.117   3.531   7.038  0.00  0.00    +0.000 A 
ENDBRANCH   3   9
BRANCH   1  16
ATOM     16  C   UNL     1      44.927   6.506  11.399  0.00  0.00    +0.000 C 
BRANCH  16  17
ATOM     17  N   UNL     1      46.366   6.746  11.359  0.00  0.00    +0.000 N 
ATOM     18  H   UNL     1      46.579   7.648  10.943  0.00  0.00    +0.000 HD
BRANCH  17  22
ATOM     19  C   UNL     1      48.210   6.175  14.986  0.00  0.00    +0.000 A 
ATOM     20  C   UNL     1      48.305   7.392  14.331  0.00  0.00    +0.000 A 
ATOM     21  N   UNL     1      47.734   7.616  13.117  0.00  0.00    +0.000 NA
ATOM     22  C   UNL     1      47.058   6.587  12.565  0.00  0.00    +0.000 A 
ATOM     23  C   UNL     1      46.969   5.365  13.251  0.00  0.00    +0.000 A 
ATOM     24  N   UNL     1      47.540   5.116  14.459  0.00  0.00    +0.000 NA
BRANCH  19  26
ATOM     25  N   UNL     1      48.009   6.076  17.397  0.00  0.00    +0.000 N 
ATOM     26  C   UNL     1      48.849   5.996  16.319  0.00  0.00    +0.000 C 
ATOM     27  O   UNL     1      50.048   5.787  16.447  0.00  0.00    +0.000 OA
ATOM     28  H   UNL     1      48.381   5.952  18.328  0.00  0.00    +0.000 HD
ATOM     29  H   UNL     1      47.017   6.236  17.259  0.00  0.00    +0.000 HD
ENDBRANCH  19  26
ENDBRANCH  17  22
ENDBRANCH  16  17
ENDBRANCH   1  16
TORSDOF 5
ENDMDL
MODEL 5
REMARK VINA RESULT:    -8.130      2.072      3.082
REMARK INTER + INTRA:         -11.358
REMARK INTER:                 -10.738
REMARK INTRA:                  -0.620
REMARK UNBOUND:                -0.851
REMARK  Name = 
REMARK  5 active torsions:
REMARK  status: ('A' for Active; 'I' for Inactive)
REMARK    1  A    between atoms: C_2  and  C_4
REMARK    2  A    between atoms: C_7  and  N_8
REMARK    3  A    between atoms: N_8  and  C_9
REMARK    4  A    between atoms: C_9  and  C_10
REMARK    5  A    between atoms: C_12  and  C_13
REMARK                            x       y       z     vdW  Elec       q    Type
REMARK                         _______ _______ _______ _____ _____    ______ ____
ROOT
ATOM      1  C   UNL     1      44.746   5.454  11.789  0.00  0.00    +0.000 A 
ATOM      2  C   UNL     1      46.070   5.788  12.145  0.00  0.00    +0.000 A 
ATOM      3  C   UNL     1      46.544   7.117  12.139  0.00  0.00    +0.000 A 
ATOM      4  C   UNL     1      45.631   8.118  11.766  0.00  0.00    +0.000 A 
ATOM      5  C   UNL     1      44.320   7.798  11.420  0.00  0.00    +0.000 A 
ATOM      6  F   UNL     1      43.478   8.782  11.070  0.00  0.00    +0.000 F 
ATOM      7  C   UNL     1      43.880   6.480  11.423  0.00  0.00    +0.000 A 
ATOM      8  F   UNL     1      42.617   6.199  11.073  0.00  0.00    +0.000 F 
ENDROOT
BRANCH   3   9
ATOM      9  C   UNL     1      47.946   7.441  12.505  0.00  0.00    +0.000 A 
ATOM     10  C   UNL     1      48.792   8.145  11.623  0.00  0.00    +0.000 A 
ATOM     11  C   UNL     1      50.116   8.452  11.959  0.00  0.00    +0.000 A 
ATOM     12  C   UNL     1      50.623   8.070  13.196  0.00  0.00    +0.000 A 
ATOM     13  C   UNL     1      49.803   7.383  14.078  0.00  0.00    +0.000 A 
ATOM     14  F   UNL     1      50.285   7.017  15.274  0.00  0.00    +0.000 F 
ATOM     15  C   UNL     1      48.488   7.065  13.745  0.00  0.00    +0.000 A 
ENDBRANCH   3   9
BRANCH   1  16
ATOM     16  C   UNL     1      44.306   4.010  11.767  0.00  0.00    +0.000 C 
BRANCH  16  17
ATOM     17  N   UNL     1      43.806   3.701  10.431  0.00  0.00    +0.000 N 
ATOM     18  H   UNL     1      43.214   4.448  10.076  0.00  0.00    +0.000 HD
BRANCH  17  22
ATOM     19  C   UNL     1      46.496   2.757   7.472  0.00  0.00    +0.000 A 
ATOM     20  C   UNL     1      46.029   1.781   8.337  0.00  0.00    +0.000 A 
ATOM     21  N   UNL     1      45.159   2.054   9.348  0.00  0.00    +0.000 NA
ATOM     22  C   UNL     1      44.762   3.337   9.476  0.00  0.00    +0.000 A 
ATOM     23  C   UNL     1      45.244   4.307   8.584  0.00  0.00    +0.000 A 
ATOM     24  N   UNL     1      46.121   4.059   7.575  0.00  0.00    +0.000 NA
BRANCH  19  26
ATOM     25  N   UNL     1      47.356   3.152   5.243  0.00  0.00    +0.000 N 
ATOM     26  C   UNL     1      47.439   2.392   6.380  0.00  0.00    +0.000 C 
ATOM     27  O   UNL     1      48.241   1.474   6.487  0.00  0.00    +0.000 OA
ATOM     28  H   UNL     1      47.977   2.960   4.471  0.00  0.00    +0.000 HD
ATOM     29  H   UNL     1      46.690   3.915   5.189  0.00  0.00    +0.000 HD
ENDBRANCH  19  26
ENDBRANCH  17  22
ENDBRANCH  16  17
ENDBRANCH   1  16
TORSDOF 5
ENDMDL
MODEL 6
REMARK VINA RESULT:    -7.836      4.997      8.029
REMARK INTER + INTRA:         -10.977
REMARK INTER:                 -10.346
REMARK INTRA:                  -0.631
REMARK UNBOUND:                -0.851
REMARK  Name = 
REMARK  5 active torsions:
REMARK  status: ('A' for Active; 'I' for Inactive)
REMARK    1  A    between atoms: C_2  and  C_4
REMARK    2  A    between atoms: C_7  and  N_8
REMARK    3  A    between atoms: N_8  and  C_9
REMARK    4  A    between atoms: C_9  and  C_10
REMARK    5  A    between atoms: C_12  and  C_13
REMARK                            x       y       z     vdW  Elec       q    Type
REMARK                         _______ _______ _______ _____ _____    ______ ____
ROOT
ATOM      1  C   UNL     1      45.311   5.029  12.262  0.00  0.00    +0.000 A 
ATOM      2  C   UNL     1      45.841   4.397  11.117  0.00  0.00    +0.000 A 
ATOM      3  C   UNL     1      45.035   3.997  10.031  0.00  0.00    +0.000 A 
ATOM      4  C   UNL     1      43.658   4.261  10.127  0.00  0.00    +0.000 A 
ATOM      5  C   UNL     1      43.127   4.890  11.251  0.00  0.00    +0.000 A 
ATOM      6  F   UNL     1      41.807   5.126  11.304  0.00  0.00    +0.000 F 
ATOM      7  C   UNL     1      43.940   5.265  12.313  0.00  0.00    +0.000 A 
ATOM      8  F   UNL     1      43.401   5.858  13.387  0.00  0.00    +0.000 F 
ENDROOT
BRANCH   3   9
ATOM      9  C   UNL     1      45.615   3.322   8.843  0.00  0.00    +0.000 A 
ATOM     10  C   UNL     1      45.979   4.046   7.689  0.00  0.00    +0.000 A 
ATOM     11  C   UNL     1      46.524   3.416   6.563  0.00  0.00    +0.000 A 
ATOM     12  C   UNL     1      46.728   2.041   6.570  0.00  0.00    +0.000 A 
ATOM     13  C   UNL     1      46.382   1.313   7.699  0.00  0.00    +0.000 A 
ATOM     14  F   UNL     1      46.582  -0.012   7.714  0.00  0.00    +0.000 F 
ATOM     15  C   UNL     1      45.829   1.934   8.818  0.00  0.00    +0.000 A 
ENDBRANCH   3   9
BRANCH   1  16
ATOM     16  C   UNL     1      46.213   5.393  13.416  0.00  0.00    +0.000 C 
BRANCH  16  17
ATOM     17  N   UNL     1      46.305   4.243  14.311  0.00  0.00    +0.000 N 
ATOM     18  H   UNL     1      46.530   3.394  13.799  0.00  0.00    +0.000 HD
BRANCH  17  22
ATOM     19  C   UNL     1      48.941   4.701  17.428  0.00  0.00    +0.000 A 
ATOM     20  C   UNL     1      48.048   3.642  17.410  0.00  0.00    +0.000 A 
ATOM     21  N   UNL     1      47.139   3.467  16.412  0.00  0.00    +0.000 NA
ATOM     22  C   UNL     1      47.143   4.383  15.421  0.00  0.00    +0.000 A 
ATOM     23  C   UNL     1      48.062   5.444  15.458  0.00  0.00    +0.000 A 
ATOM     24  N   UNL     1      48.970   5.644  16.450  0.00  0.00    +0.000 NA
BRANCH  19  26
ATOM     25  N   UNL     1      50.651   3.708  18.827  0.00  0.00    +0.000 N 
ATOM     26  C   UNL     1      49.918   4.830  18.545  0.00  0.00    +0.000 C 
ATOM     27  O   UNL     1      50.063   5.872  19.170  0.00  0.00    +0.000 OA
ATOM     28  H   UNL     1      51.338   3.736  19.566  0.00  0.00    +0.000 HD
ATOM     29  H   UNL     1      50.518   2.863  18.282  0.00  0.00    +0.000 HD
ENDBRANCH  19  26
ENDBRANCH  17  22
ENDBRANCH  16  17
ENDBRANCH   1  16
TORSDOF 5
ENDMDL
MODEL 7
REMARK VINA RESULT:    -7.248      5.551      7.850
REMARK INTER + INTRA:         -10.218
REMARK INTER:                  -9.438
REMARK INTRA:                  -0.780
REMARK UNBOUND:                -0.851
REMARK  Name = 
REMARK  5 active torsions:
REMARK  status: ('A' for Active; 'I' for Inactive)
REMARK    1  A    between atoms: C_2  and  C_4
REMARK    2  A    between atoms: C_7  and  N_8
REMARK    3  A    between atoms: N_8  and  C_9
REMARK    4  A    between atoms: C_9  and  C_10
REMARK    5  A    between atoms: C_12  and  C_13
REMARK                            x       y       z     vdW  Elec       q    Type
REMARK                         _______ _______ _______ _____ _____    ______ ____
ROOT
ATOM      1  C   UNL     1      48.320   6.641  14.460  0.00  0.00    +0.000 A 
ATOM      2  C   UNL     1      47.168   5.969  13.997  0.00  0.00    +0.000 A 
ATOM      3  C   UNL     1      46.743   6.032  12.653  0.00  0.00    +0.000 A 
ATOM      4  C   UNL     1      47.525   6.798  11.771  0.00  0.00    +0.000 A 
ATOM      5  C   UNL     1      48.667   7.459  12.219  0.00  0.00    +0.000 A 
ATOM      6  F   UNL     1      49.388   8.179  11.346  0.00  0.00    +0.000 F 
ATOM      7  C   UNL     1      49.060   7.390  13.550  0.00  0.00    +0.000 A 
ATOM      8  F   UNL     1      50.156   8.046  13.955  0.00  0.00    +0.000 F 
ENDROOT
BRANCH   3   9
ATOM      9  C   UNL     1      45.520   5.327  12.193  0.00  0.00    +0.000 A 
ATOM     10  C   UNL     1      44.593   4.789  13.109  0.00  0.00    +0.000 A 
ATOM     11  C   UNL     1      43.439   4.119  12.682  0.00  0.00    +0.000 A 
ATOM     12  C   UNL     1      43.180   3.982  11.323  0.00  0.00    +0.000 A 
ATOM     13  C   UNL     1      44.077   4.512  10.409  0.00  0.00    +0.000 A 
ATOM     14  F   UNL     1      43.830   4.388   9.097  0.00  0.00    +0.000 F 
ATOM     15  C   UNL     1      45.233   5.169  10.827  0.00  0.00    +0.000 A 
ENDBRANCH   3   9
BRANCH   1  16
ATOM     16  C   UNL     1      48.702   6.577  15.918  0.00  0.00    +0.000 C 
BRANCH  16  17
ATOM     17  N   UNL     1      48.137   5.360  16.491  0.00  0.00    +0.000 N 
ATOM     18  H   UNL     1      47.391   4.988  15.908  0.00  0.00    +0.000 HD
BRANCH  17  22
ATOM     19  C   UNL     1      50.969   2.520  17.384  0.00  0.00    +0.000 A 
ATOM     20  C   UNL     1      49.736   2.150  16.871  0.00  0.00    +0.000 A 
ATOM     21  N   UNL     1      48.759   3.053  16.586  0.00  0.00    +0.000 NA
ATOM     22  C   UNL     1      49.044   4.350  16.829  0.00  0.00    +0.000 A 
ATOM     23  C   UNL     1      50.302   4.703  17.342  0.00  0.00    +0.000 A 
ATOM     24  N   UNL     1      51.288   3.816  17.643  0.00  0.00    +0.000 NA
BRANCH  19  26
ATOM     25  N   UNL     1      51.525   0.274  18.095  0.00  0.00    +0.000 N 
ATOM     26  C   UNL     1      52.000   1.483  17.664  0.00  0.00    +0.000 C 
ATOM     27  O   UNL     1      53.196   1.693  17.515  0.00  0.00    +0.000 OA
ATOM     28  H   UNL     1      52.174  -0.474  18.291  0.00  0.00    +0.000 HD
ATOM     29  H   UNL     1      50.527   0.125  18.196  0.00  0.00    +0.000 HD
ENDBRANCH  19  26
ENDBRANCH  17  22
ENDBRANCH  16  17
ENDBRANCH   1  16
TORSDOF 5
ENDMDL
MODEL 8
REMARK VINA RESULT:    -6.906      4.760      7.683
REMARK INTER + INTRA:          -9.775
REMARK INTER:                  -9.155
REMARK INTRA:                  -0.620
REMARK UNBOUND:                -0.851
REMARK  Name = 
REMARK  5 active torsions:
REMARK  status: ('A' for Active; 'I' for Inactive)
REMARK    1  A    between atoms: C_2  and  C_4
REMARK    2  A    between atoms: C_7  and  N_8
REMARK    3  A    between atoms: N_8  and  C_9
REMARK    4  A    between atoms: C_9  and  C_10
REMARK    5  A    between atoms: C_12  and  C_13
REMARK                            x       y       z     vdW  Elec       q    Type
REMARK                         _______ _______ _______ _____ _____    ______ ____
ROOT
ATOM      1  C   UNL     1      47.231   7.399  12.585  0.00  0.00    +0.000 A 
ATOM      2  C   UNL     1      46.846   6.255  11.854  0.00  0.00    +0.000 A 
ATOM      3  C   UNL     1      45.627   6.183  11.148  0.00  0.00    +0.000 A 
ATOM      4  C   UNL     1      44.796   7.315  11.191  0.00  0.00    +0.000 A 
ATOM      5  C   UNL     1      45.171   8.451  11.905  0.00  0.00    +0.000 A 
ATOM      6  F   UNL     1      44.351   9.513  11.922  0.00  0.00    +0.000 F 
ATOM      7  C   UNL     1      46.372   8.494  12.603  0.00  0.00    +0.000 A 
ATOM      8  F   UNL     1      46.703   9.596  13.291  0.00  0.00    +0.000 F 
ENDROOT
BRANCH   3   9
ATOM      9  C   UNL     1      45.238   4.963  10.397  0.00  0.00    +0.000 A 
ATOM     10  C   UNL     1      44.530   3.912  11.016  0.00  0.00    +0.000 A 
ATOM     11  C   UNL     1      44.163   2.756  10.315  0.00  0.00    +0.000 A 
ATOM     12  C   UNL     1      44.487   2.631   8.969  0.00  0.00    +0.000 A 
ATOM     13  C   UNL     1      45.176   3.657   8.342  0.00  0.00    +0.000 A 
ATOM     14  F   UNL     1      45.486   3.544   7.043  0.00  0.00    +0.000 F 
ATOM     15  C   UNL     1      45.554   4.805   9.037  0.00  0.00    +0.000 A 
ENDBRANCH   3   9
BRANCH   1  16
ATOM     16  C   UNL     1      48.524   7.404  13.363  0.00  0.00    +0.000 C 
BRANCH  16  17
ATOM     17  N   UNL     1      48.211   7.566  14.779  0.00  0.00    +0.000 N 
ATOM     18  H   UNL     1      47.288   7.971  14.909  0.00  0.00    +0.000 HD
BRANCH  17  22
ATOM     19  C   UNL     1      48.900   4.268  17.131  0.00  0.00    +0.000 A 
ATOM     20  C   UNL     1      47.953   4.228  16.121  0.00  0.00    +0.000 A 
ATOM     21  N   UNL     1      47.673   5.304  15.336  0.00  0.00    +0.000 NA
ATOM     22  C   UNL     1      48.368   6.433  15.585  0.00  0.00    +0.000 A 
ATOM     23  C   UNL     1      49.327   6.448  16.610  0.00  0.00    +0.000 A 
ATOM     24  N   UNL     1      49.615   5.389  17.413  0.00  0.00    +0.000 NA
BRANCH  19  26
ATOM     25  N   UNL     1      48.532   2.999  19.160  0.00  0.00    +0.000 N 
ATOM     26  C   UNL     1      49.167   3.053  17.948  0.00  0.00    +0.000 C 
ATOM     27  O   UNL     1      49.904   2.155  17.563  0.00  0.00    +0.000 OA
ATOM     28  H   UNL     1      48.664   2.195  19.756  0.00  0.00    +0.000 HD
ATOM     29  H   UNL     1      47.917   3.752  19.446  0.00  0.00    +0.000 HD
ENDBRANCH  19  26
ENDBRANCH  17  22
ENDBRANCH  16  17
ENDBRANCH   1  16
TORSDOF 5
ENDMDL
MODEL 9
REMARK VINA RESULT:    -6.298      3.780      6.287
REMARK INTER + INTRA:          -8.989
REMARK INTER:                  -8.238
REMARK INTRA:                  -0.751
REMARK UNBOUND:                -0.851
REMARK  Name = 
REMARK  5 active torsions:
REMARK  status: ('A' for Active; 'I' for Inactive)
REMARK    1  A    between atoms: C_2  and  C_4
REMARK    2  A    between atoms: C_7  and  N_8
REMARK    3  A    between atoms: N_8  and  C_9
REMARK    4  A    between atoms: C_9  and  C_10
REMARK    5  A    between atoms: C_12  and  C_13
REMARK                            x       y       z     vdW  Elec       q    Type
REMARK                         _______ _______ _______ _____ _____    ______ ____
ROOT
ATOM      1  C   UNL     1      48.387   7.949  13.774  0.00  0.00    +0.000 A 
ATOM      2  C   UNL     1      48.239   6.899  14.705  0.00  0.00    +0.000 A 
ATOM      3  C   UNL     1      49.131   6.709  15.781  0.00  0.00    +0.000 A 
ATOM      4  C   UNL     1      50.190   7.625  15.901  0.00  0.00    +0.000 A 
ATOM      5  C   UNL     1      50.340   8.669  14.990  0.00  0.00    +0.000 A 
ATOM      6  F   UNL     1      51.364   9.523  15.140  0.00  0.00    +0.000 F 
ATOM      7  C   UNL     1      49.455   8.828  13.932  0.00  0.00    +0.000 A 
ATOM      8  F   UNL     1      49.630   9.834  13.064  0.00  0.00    +0.000 F 
ENDROOT
BRANCH   3   9
ATOM      9  C   UNL     1      48.962   5.588  16.739  0.00  0.00    +0.000 A 
ATOM     10  C   UNL     1      49.857   5.395  17.812  0.00  0.00    +0.000 A 
ATOM     11  C   UNL     1      49.706   4.338  18.718  0.00  0.00    +0.000 A 
ATOM     12  C   UNL     1      48.644   3.453  18.578  0.00  0.00    +0.000 A 
ATOM     13  C   UNL     1      47.749   3.631  17.534  0.00  0.00    +0.000 A 
ATOM     14  F   UNL     1      46.720   2.784  17.397  0.00  0.00    +0.000 F 
ATOM     15  C   UNL     1      47.901   4.674  16.622  0.00  0.00    +0.000 A 
ENDBRANCH   3   9
BRANCH   1  16
ATOM     16  C   UNL     1      47.431   8.076  12.613  0.00  0.00    +0.000 C 
BRANCH  16  17
ATOM     17  N   UNL     1      46.107   7.655  13.058  0.00  0.00    +0.000 N 
ATOM     18  H   UNL     1      45.415   8.383  12.900  0.00  0.00    +0.000 HD
BRANCH  17  22
ATOM     19  C   UNL     1      44.647   4.166  11.452  0.00  0.00    +0.000 A 
ATOM     20  C   UNL     1      44.609   4.382  12.820  0.00  0.00    +0.000 A 
ATOM     21  N   UNL     1      45.105   5.510  13.397  0.00  0.00    +0.000 NA
ATOM     22  C   UNL     1      45.646   6.428  12.568  0.00  0.00    +0.000 A 
ATOM     23  C   UNL     1      45.668   6.189  11.185  0.00  0.00    +0.000 A 
ATOM     24  N   UNL     1      45.188   5.066  10.589  0.00  0.00    +0.000 NA
BRANCH  19  26
ATOM     25  N   UNL     1      44.768   2.371   9.832  0.00  0.00    +0.000 N 
ATOM     26  C   UNL     1      44.077   2.914  10.882  0.00  0.00    +0.000 C 
ATOM     27  O   UNL     1      43.059   2.399  11.322  0.00  0.00    +0.000 OA
ATOM     28  H   UNL     1      44.438   1.516   9.409  0.00  0.00    +0.000 HD
ATOM     29  H   UNL     1      45.617   2.813   9.497  0.00  0.00    +0.000 HD
ENDBRANCH  19  26
ENDBRANCH  17  22
ENDBRANCH  16  17
ENDBRANCH   1  16
TORSDOF 5
ENDMDL
