MODEL 1
REMARK VINA RESULT:    -9.272      0.000      0.000
REMARK INTER + INTRA:         -12.813
REMARK INTER:                 -11.982
REMARK INTRA:                  -0.831
REMARK UNBOUND:                -0.831
REMARK  Name = 
REMARK  5 active torsions:
REMARK  status: ('A' for Active; 'I' for Inactive)
REMARK    1  A    between atoms: C_2  and  C_4
REMARK    2  A    between atoms: N_8  and  C_9
REMARK    3  A    between atoms: C_9  and  C_10
REMARK    4  A    between atoms: C_10  and  C_13
REMARK    5  A    between atoms: C_17  and  C_18
REMARK                            x       y       z     vdW  Elec       q    Type
REMARK                         _______ _______ _______ _____ _____    ______ ____
ROOT
ATOM      1  C   UNL     1      43.317   4.625  12.621  0.00  0.00    +0.000 C 
ATOM      2  F   UNL     1      42.301   5.546  12.644  0.00  0.00    +0.000 F 
ATOM      3  F   UNL     1      43.021   3.752  13.629  0.00  0.00    +0.000 F 
ENDROOT
BRANCH   1   4
ATOM      4  C   UNL     1      44.675   5.272  12.809  0.00  0.00    +0.000 A 
ATOM      5  C   UNL     1      45.787   4.499  13.164  0.00  0.00    +0.000 A 
ATOM      6  C   UNL     1      47.039   5.093  13.290  0.00  0.00    +0.000 A 
ATOM      7  C   UNL     1      47.194   6.459  13.042  0.00  0.00    +0.000 A 
ATOM      8  C   UNL     1      46.108   7.265  12.654  0.00  0.00    +0.000 A 
ATOM      9  C   UNL     1      44.846   6.647  12.569  0.00  0.00    +0.000 A 
BRANCH   8  10
ATOM     10  C   UNL     1      46.289   8.688  12.305  0.00  0.00    +0.000 A 
ATOM     11  C   UNL     1      47.554   9.292  12.228  0.00  0.00    +0.000 A 
ATOM     12  C   UNL     1      47.678  10.647  11.924  0.00  0.00    +0.000 A 
ATOM     13  C   UNL     1      46.527  11.380  11.686  0.00  0.00    +0.000 A 
ATOM     14  N   UNL     1      45.288  10.853  11.751  0.00  0.00    +0.000 NA
ATOM     15  C   UNL     1      45.205   9.534  12.062  0.00  0.00    +0.000 A 
ENDBRANCH   8  10
ENDBRANCH   1   4
BRANCH   1  16
ATOM     16  C   UNL     1      43.253   3.883  11.262  0.00  0.00    +0.000 C 
BRANCH  16  21
ATOM     17  C   UNL     1      46.430   2.367   7.715  0.00  0.00    +0.000 A 
ATOM     18  C   UNL     1      46.364   3.749   7.558  0.00  0.00    +0.000 A 
ATOM     19  C   UNL     1      45.539   4.492   8.403  0.00  0.00    +0.000 A 
ATOM     20  C   UNL     1      44.808   3.852   9.402  0.00  0.00    +0.000 A 
ATOM     21  N   UNL     1      43.936   4.622  10.179  0.00  0.00    +0.000 N 
ATOM     22  N   UNL     1      44.862   2.514   9.560  0.00  0.00    +0.000 NA
ATOM     23  C   UNL     1      45.657   1.801   8.723  0.00  0.00    +0.000 A 
ATOM     24  H   UNL     1      44.386   5.469  10.515  0.00  0.00    +0.000 HD
BRANCH  17  26
ATOM     25  N   UNL     1      48.265   2.085   6.154  0.00  0.00    +0.000 N 
ATOM     26  C   UNL     1      47.254   1.492   6.857  0.00  0.00    +0.000 C 
ATOM     27  O   UNL     1      47.059   0.288   6.803  0.00  0.00    +0.000 OA
ATOM     28  H   UNL     1      48.878   1.466   5.638  0.00  0.00    +0.000 HD
ATOM     29  H   UNL     1      48.604   3.016   6.355  0.00  0.00    +0.000 HD
ENDBRANCH  17  26
ENDBRANCH  16  21
ENDBRANCH   1  16
TORSDOF 5
ENDMDL
MODEL 2
REMARK VINA RESULT:    -9.196      1.310      1.537
REMARK INTER + INTRA:         -12.715
REMARK INTER:                 -11.750
REMARK INTRA:                  -0.965
REMARK UNBOUND:                -0.831
REMARK  Name = 
REMARK  5 active torsions:
REMARK  status: ('A' for Active; 'I' for Inactive)
REMARK    1  A    between atoms: C_2  and  C_4
REMARK    2  A    between atoms: N_8  and  C_9
REMARK    3  A    between atoms: C_9  and  C_10
REMARK    4  A    between atoms: C_10  and  C_13
REMARK    5  A    between atoms: C_17  and  C_18
REMARK                            x       y       z     vdW  Elec       q    Type
REMARK                         _______ _______ _______ _____ _____    ______ ____
ROOT
ATOM      1  C   UNL     1      43.223   5.320  12.273  0.00  0.00    +0.000 C 
ATOM      2  F   UNL     1      42.604   6.510  11.986  0.00  0.00    +0.000 F 
ATOM      3  F   UNL     1      42.491   4.782  13.293  0.00  0.00    +0.000 F 
ENDROOT
BRANCH   1   4
ATOM      4  C   UNL     1      44.677   5.511  12.655  0.00  0.00    +0.000 A 
ATOM      5  C   UNL     1      45.399   4.469  13.248  0.00  0.00    +0.000 A 
ATOM      6  C   UNL     1      46.745   4.638  13.555  0.00  0.00    +0.000 A 
ATOM      7  C   UNL     1      47.387   5.841  13.252  0.00  0.00    +0.000 A 
ATOM      8  C   UNL     1      46.705   6.902  12.628  0.00  0.00    +0.000 A 
ATOM      9  C   UNL     1      45.335   6.719  12.363  0.00  0.00    +0.000 A 
BRANCH   8  10
ATOM     10  C   UNL     1      47.405   8.139  12.228  0.00  0.00    +0.000 A 
ATOM     11  C   UNL     1      46.778   9.396  12.225  0.00  0.00    +0.000 A 
ATOM     12  C   UNL     1      47.468  10.534  11.812  0.00  0.00    +0.000 A 
ATOM     13  C   UNL     1      48.789  10.400  11.418  0.00  0.00    +0.000 A 
ATOM     14  N   UNL     1      49.439   9.219  11.397  0.00  0.00    +0.000 NA
ATOM     15  C   UNL     1      48.732   8.130  11.794  0.00  0.00    +0.000 A 
ENDBRANCH   8  10
ENDBRANCH   1   4
BRANCH   1  16
ATOM     16  C   UNL     1      43.104   4.412  11.022  0.00  0.00    +0.000 C 
BRANCH  16  21
ATOM     17  C   UNL     1      46.291   2.104   7.941  0.00  0.00    +0.000 A 
ATOM     18  C   UNL     1      46.355   3.445   7.570  0.00  0.00    +0.000 A 
ATOM     19  C   UNL     1      45.563   4.375   8.242  0.00  0.00    +0.000 A 
ATOM     20  C   UNL     1      44.733   3.962   9.283  0.00  0.00    +0.000 A 
ATOM     21  N   UNL     1      43.900   4.914   9.881  0.00  0.00    +0.000 N 
ATOM     22  N   UNL     1      44.660   2.666   9.647  0.00  0.00    +0.000 NA
ATOM     23  C   UNL     1      45.425   1.768   8.977  0.00  0.00    +0.000 A 
ATOM     24  H   UNL     1      44.408   5.764  10.109  0.00  0.00    +0.000 HD
BRANCH  17  26
ATOM     25  N   UNL     1      46.798  -0.249   7.638  0.00  0.00    +0.000 N 
ATOM     26  C   UNL     1      47.071   1.040   7.276  0.00  0.00    +0.000 C 
ATOM     27  O   UNL     1      47.901   1.302   6.420  0.00  0.00    +0.000 OA
ATOM     28  H   UNL     1      47.274  -0.973   7.114  0.00  0.00    +0.000 HD
ATOM     29  H   UNL     1      45.968  -0.513   8.152  0.00  0.00    +0.000 HD
ENDBRANCH  17  26
ENDBRANCH  16  21
ENDBRANCH   1  16
TORSDOF 5
ENDMDL
MODEL 3
REMARK VINA RESULT:    -8.917      2.589      4.132
REMARK INTER + INTRA:         -12.354
REMARK INTER:                 -11.440
REMARK INTRA:                  -0.914
REMARK UNBOUND:                -0.831
REMARK  Name = 
REMARK  5 active torsions:
REMARK  status: ('A' for Active; 'I' for Inactive)
REMARK    1  A    between atoms: C_2  and  C_4
REMARK    2  A    between atoms: N_8  and  C_9
REMARK    3  A    between atoms: C_9  and  C_10
REMARK    4  A    between atoms: C_10  and  C_13
REMARK    5  A    between atoms: C_17  and  C_18
REMARK                            x       y       z     vdW  Elec       q    Type
REMARK                         _______ _______ _______ _____ _____    ______ ____
ROOT
ATOM      1  C   UNL     1      43.556   4.740  12.483  0.00  0.00    +0.000 C 
ATOM      2  F   UNL     1      42.609   5.681  12.798  0.00  0.00    +0.000 F 
ATOM      3  F   UNL     1      43.222   3.644  13.227  0.00  0.00    +0.000 F 
ENDROOT
BRANCH   1   4
ATOM      4  C   UNL     1      44.961   5.223  12.781  0.00  0.00    +0.000 A 
ATOM      5  C   UNL     1      45.543   6.237  12.010  0.00  0.00    +0.000 A 
ATOM      6  C   UNL     1      46.816   6.706  12.319  0.00  0.00    +0.000 A 
ATOM      7  C   UNL     1      47.509   6.182  13.412  0.00  0.00    +0.000 A 
ATOM      8  C   UNL     1      46.948   5.184  14.230  0.00  0.00    +0.000 A 
ATOM      9  C   UNL     1      45.674   4.701  13.875  0.00  0.00    +0.000 A 
BRANCH   8  10
ATOM     10  C   UNL     1      47.644   4.694  15.437  0.00  0.00    +0.000 A 
ATOM     11  C   UNL     1      47.533   3.370  15.889  0.00  0.00    +0.000 A 
ATOM     12  C   UNL     1      48.185   2.958  17.050  0.00  0.00    +0.000 A 
ATOM     13  C   UNL     1      48.954   3.880  17.740  0.00  0.00    +0.000 A 
ATOM     14  N   UNL     1      49.092   5.164  17.355  0.00  0.00    +0.000 NA
ATOM     15  C   UNL     1      48.433   5.534  16.227  0.00  0.00    +0.000 A 
ENDBRANCH   8  10
ENDBRANCH   1   4
BRANCH   1  16
ATOM     16  C   UNL     1      43.405   4.403  10.977  0.00  0.00    +0.000 C 
BRANCH  16  21
ATOM     17  C   UNL     1      46.442   2.799   7.347  0.00  0.00    +0.000 A 
ATOM     18  C   UNL     1      46.033   1.639   7.998  0.00  0.00    +0.000 A 
ATOM     19  C   UNL     1      45.168   1.739   9.089  0.00  0.00    +0.000 A 
ATOM     20  C   UNL     1      44.711   2.989   9.503  0.00  0.00    +0.000 A 
ATOM     21  N   UNL     1      43.906   3.052  10.646  0.00  0.00    +0.000 N 
ATOM     22  N   UNL     1      45.106   4.119   8.882  0.00  0.00    +0.000 NA
ATOM     23  C   UNL     1      45.957   4.009   7.832  0.00  0.00    +0.000 A 
ATOM     24  H   UNL     1      43.162   2.361  10.616  0.00  0.00    +0.000 HD
BRANCH  17  26
ATOM     25  N   UNL     1      48.689   2.548   6.468  0.00  0.00    +0.000 N 
ATOM     26  C   UNL     1      47.373   2.800   6.200  0.00  0.00    +0.000 C 
ATOM     27  O   UNL     1      46.977   2.987   5.060  0.00  0.00    +0.000 OA
ATOM     28  H   UNL     1      49.303   2.463   5.667  0.00  0.00    +0.000 HD
ATOM     29  H   UNL     1      49.008   2.157   7.343  0.00  0.00    +0.000 HD
ENDBRANCH  17  26
ENDBRANCH  16  21
ENDBRANCH   1  16
TORSDOF 5
ENDMDL
MODEL 4
REMARK VINA RESULT:    -8.366      2.149      2.982
REMARK INTER + INTRA:         -11.643
REMARK INTER:                 -10.770
REMARK INTRA:                  -0.872
REMARK UNBOUND:                -0.831
REMARK  Name = 
REMARK  5 active torsions:
REMARK  status: ('A' for Active; 'I' for Inactive)
REMARK    1  A    between atoms: C_2  and  C_4
REMARK    2  A    between atoms: N_8  and  C_9
REMARK    3  A    between atoms: C_9  and  C_10
REMARK    4  A    between atoms: C_10  and  C_13
REMARK    5  A    between atoms: C_17  and  C_18
REMARK                            x       y       z     vdW  Elec       q    Type
REMARK                         _______ _______ _______ _____ _____    ______ ____
ROOT
ATOM      1  C   UNL     1      43.851   4.916  12.396  0.00  0.00    +0.000 C 
ATOM      2  F   UNL     1      42.721   5.173  13.128  0.00  0.00    +0.000 F 
ATOM      3  F   UNL     1      44.465   3.884  13.049  0.00  0.00    +0.000 F 
ENDROOT
BRANCH   1   4
ATOM      4  C   UNL     1      44.748   6.132  12.285  0.00  0.00    +0.000 A 
ATOM      5  C   UNL     1      44.313   7.277  11.608  0.00  0.00    +0.000 A 
ATOM      6  C   UNL     1      45.124   8.406  11.550  0.00  0.00    +0.000 A 
ATOM      7  C   UNL     1      46.368   8.408  12.187  0.00  0.00    +0.000 A 
ATOM      8  C   UNL     1      46.829   7.288  12.904  0.00  0.00    +0.000 A 
ATOM      9  C   UNL     1      46.005   6.148  12.916  0.00  0.00    +0.000 A 
BRANCH   8  10
ATOM     10  C   UNL     1      48.103   7.322  13.651  0.00  0.00    +0.000 A 
ATOM     11  C   UNL     1      49.183   8.132  13.266  0.00  0.00    +0.000 A 
ATOM     12  C   UNL     1      50.378   8.112  13.984  0.00  0.00    +0.000 A 
ATOM     13  C   UNL     1      50.470   7.286  15.092  0.00  0.00    +0.000 A 
ATOM     14  N   UNL     1      49.467   6.485  15.503  0.00  0.00    +0.000 NA
ATOM     15  C   UNL     1      48.323   6.521  14.773  0.00  0.00    +0.000 A 
ENDBRANCH   8  10
ENDBRANCH   1   4
BRANCH   1  16
ATOM     16  C   UNL     1      43.406   4.440  10.989  0.00  0.00    +0.000 C 
BRANCH  16  21
ATOM     17  C   UNL     1      46.428   2.796   7.365  0.00  0.00    +0.000 A 
ATOM     18  C   UNL     1      46.015   1.642   8.026  0.00  0.00    +0.000 A 
ATOM     19  C   UNL     1      45.154   1.754   9.117  0.00  0.00    +0.000 A 
ATOM     20  C   UNL     1      44.702   3.008   9.523  0.00  0.00    +0.000 A 
ATOM     21  N   UNL     1      43.901   3.084  10.667  0.00  0.00    +0.000 N 
ATOM     22  N   UNL     1      45.100   4.132   8.893  0.00  0.00    +0.000 NA
ATOM     23  C   UNL     1      45.949   4.011   7.842  0.00  0.00    +0.000 A 
ATOM     24  H   UNL     1      43.154   2.396  10.645  0.00  0.00    +0.000 HD
BRANCH  17  26
ATOM     25  N   UNL     1      48.671   2.525   6.481  0.00  0.00    +0.000 N 
ATOM     26  C   UNL     1      47.356   2.783   6.215  0.00  0.00    +0.000 C 
ATOM     27  O   UNL     1      46.958   2.966   5.075  0.00  0.00    +0.000 OA
ATOM     28  H   UNL     1      49.282   2.432   5.679  0.00  0.00    +0.000 HD
ATOM     29  H   UNL     1      48.990   2.138   7.359  0.00  0.00    +0.000 HD
ENDBRANCH  17  26
ENDBRANCH  16  21
ENDBRANCH   1  16
TORSDOF 5
ENDMDL
MODEL 5
REMARK VINA RESULT:    -7.823      4.614      8.116
REMARK INTER + INTRA:         -10.941
REMARK INTER:                 -10.237
REMARK INTRA:                  -0.704
REMARK UNBOUND:                -0.831
REMARK  Name = 
REMARK  5 active torsions:
REMARK  status: ('A' for Active; 'I' for Inactive)
REMARK    1  A    between atoms: C_2  and  C_4
REMARK    2  A    between atoms: N_8  and  C_9
REMARK    3  A    between atoms: C_9  and  C_10
REMARK    4  A    between atoms: C_10  and  C_13
REMARK    5  A    between atoms: C_17  and  C_18
REMARK                            x       y       z     vdW  Elec       q    Type
REMARK                         _______ _______ _______ _____ _____    ______ ____
ROOT
ATOM      1  C   UNL     1      45.357   5.610  12.462  0.00  0.00    +0.000 C 
ATOM      2  F   UNL     1      44.390   6.014  13.346  0.00  0.00    +0.000 F 
ATOM      3  F   UNL     1      45.585   6.700  11.671  0.00  0.00    +0.000 F 
ENDROOT
BRANCH   1   4
ATOM      4  C   UNL     1      44.924   4.402  11.655  0.00  0.00    +0.000 A 
ATOM      5  C   UNL     1      43.796   3.664  12.031  0.00  0.00    +0.000 A 
ATOM      6  C   UNL     1      43.379   2.584  11.260  0.00  0.00    +0.000 A 
ATOM      7  C   UNL     1      44.072   2.246  10.095  0.00  0.00    +0.000 A 
ATOM      8  C   UNL     1      45.193   2.981   9.666  0.00  0.00    +0.000 A 
ATOM      9  C   UNL     1      45.615   4.046  10.484  0.00  0.00    +0.000 A 
BRANCH   8  10
ATOM     10  C   UNL     1      45.871   2.679   8.389  0.00  0.00    +0.000 A 
ATOM     11  C   UNL     1      46.024   3.632   7.370  0.00  0.00    +0.000 A 
ATOM     12  C   UNL     1      46.645   3.296   6.169  0.00  0.00    +0.000 A 
ATOM     13  C   UNL     1      47.120   2.004   6.009  0.00  0.00    +0.000 A 
ATOM     14  N   UNL     1      46.996   1.048   6.950  0.00  0.00    +0.000 NA
ATOM     15  C   UNL     1      46.375   1.408   8.103  0.00  0.00    +0.000 A 
ENDBRANCH   8  10
ENDBRANCH   1   4
BRANCH   1  16
ATOM     16  C   UNL     1      46.637   5.289  13.276  0.00  0.00    +0.000 C 
BRANCH  16  21
ATOM     17  C   UNL     1      48.918   4.738  17.687  0.00  0.00    +0.000 A 
ATOM     18  C   UNL     1      47.965   3.723  17.658  0.00  0.00    +0.000 A 
ATOM     19  C   UNL     1      47.135   3.602  16.544  0.00  0.00    +0.000 A 
ATOM     20  C   UNL     1      47.277   4.479  15.470  0.00  0.00    +0.000 A 
ATOM     21  N   UNL     1      46.375   4.372  14.405  0.00  0.00    +0.000 N 
ATOM     22  N   UNL     1      48.194   5.468  15.491  0.00  0.00    +0.000 NA
ATOM     23  C   UNL     1      48.986   5.584  16.586  0.00  0.00    +0.000 A 
ATOM     24  H   UNL     1      46.270   3.408  14.102  0.00  0.00    +0.000 HD
BRANCH  17  26
ATOM     25  N   UNL     1      50.809   4.035  19.035  0.00  0.00    +0.000 N 
ATOM     26  C   UNL     1      49.828   4.963  18.830  0.00  0.00    +0.000 C 
ATOM     27  O   UNL     1      49.724   5.951  19.540  0.00  0.00    +0.000 OA
ATOM     28  H   UNL     1      51.480   4.243  19.764  0.00  0.00    +0.000 HD
ATOM     29  H   UNL     1      51.073   3.349  18.340  0.00  0.00    +0.000 HD
ENDBRANCH  17  26
ENDBRANCH  16  21
ENDBRANCH   1  16
TORSDOF 5
ENDMDL
MODEL 6
REMARK VINA RESULT:    -7.488      3.141      7.019
REMARK INTER + INTRA:         -10.508
REMARK INTER:                  -9.764
REMARK INTRA:                  -0.744
REMARK UNBOUND:                -0.831
REMARK  Name = 
REMARK  5 active torsions:
REMARK  status: ('A' for Active; 'I' for Inactive)
REMARK    1  A    between atoms: C_2  and  C_4
REMARK    2  A    between atoms: N_8  and  C_9
REMARK    3  A    between atoms: C_9  and  C_10
REMARK    4  A    between atoms: C_10  and  C_13
REMARK    5  A    between atoms: C_17  and  C_18
REMARK                            x       y       z     vdW  Elec       q    Type
REMARK                         _______ _______ _______ _____ _____    ______ ____
ROOT
ATOM      1  C   UNL     1      44.091   6.226  11.390  0.00  0.00    +0.000 C 
ATOM      2  F   UNL     1      42.793   6.648  11.525  0.00  0.00    +0.000 F 
ATOM      3  F   UNL     1      44.639   7.069  10.466  0.00  0.00    +0.000 F 
ENDROOT
BRANCH   1   4
ATOM      4  C   UNL     1      44.177   4.776  10.958  0.00  0.00    +0.000 A 
ATOM      5  C   UNL     1      43.381   3.802  11.574  0.00  0.00    +0.000 A 
ATOM      6  C   UNL     1      43.434   2.481  11.141  0.00  0.00    +0.000 A 
ATOM      7  C   UNL     1      44.264   2.126  10.075  0.00  0.00    +0.000 A 
ATOM      8  C   UNL     1      45.057   3.079   9.410  0.00  0.00    +0.000 A 
ATOM      9  C   UNL     1      45.013   4.401   9.891  0.00  0.00    +0.000 A 
BRANCH   8  10
ATOM     10  C   UNL     1      45.866   2.720   8.228  0.00  0.00    +0.000 A 
ATOM     11  C   UNL     1      46.105   3.617   7.175  0.00  0.00    +0.000 A 
ATOM     12  C   UNL     1      46.851   3.226   6.064  0.00  0.00    +0.000 A 
ATOM     13  C   UNL     1      47.363   1.939   6.030  0.00  0.00    +0.000 A 
ATOM     14  N   UNL     1      47.161   1.036   7.010  0.00  0.00    +0.000 NA
ATOM     15  C   UNL     1      46.419   1.447   8.070  0.00  0.00    +0.000 A 
ENDBRANCH   8  10
ENDBRANCH   1   4
BRANCH   1  16
ATOM     16  C   UNL     1      44.798   6.429  12.755  0.00  0.00    +0.000 C 
BRANCH  16  21
ATOM     17  C   UNL     1      49.222   8.616  11.966  0.00  0.00    +0.000 A 
ATOM     18  C   UNL     1      48.440   9.609  12.551  0.00  0.00    +0.000 A 
ATOM     19  C   UNL     1      47.119   9.322  12.893  0.00  0.00    +0.000 A 
ATOM     20  C   UNL     1      46.602   8.048  12.667  0.00  0.00    +0.000 A 
ATOM     21  N   UNL     1      45.251   7.823  12.955  0.00  0.00    +0.000 N 
ATOM     22  N   UNL     1      47.348   7.081  12.097  0.00  0.00    +0.000 NA
ATOM     23  C   UNL     1      48.627   7.377  11.755  0.00  0.00    +0.000 A 
ATOM     24  H   UNL     1      45.001   8.181  13.872  0.00  0.00    +0.000 HD
BRANCH  17  26
ATOM     25  N   UNL     1      51.503   7.811  11.783  0.00  0.00    +0.000 N 
ATOM     26  C   UNL     1      50.622   8.828  11.546  0.00  0.00    +0.000 C 
ATOM     27  O   UNL     1      50.969   9.856  10.985  0.00  0.00    +0.000 OA
ATOM     28  H   UNL     1      52.438   7.930  11.414  0.00  0.00    +0.000 HD
ATOM     29  H   UNL     1      51.210   6.872  12.019  0.00  0.00    +0.000 HD
ENDBRANCH  17  26
ENDBRANCH  16  21
ENDBRANCH   1  16
TORSDOF 5
ENDMDL
MODEL 7
REMARK VINA RESULT:    -7.344      2.397      3.329
REMARK INTER + INTRA:         -10.322
REMARK INTER:                  -9.506
REMARK INTRA:                  -0.815
REMARK UNBOUND:                -0.831
REMARK  Name = 
REMARK  5 active torsions:
REMARK  status: ('A' for Active; 'I' for Inactive)
REMARK    1  A    between atoms: C_2  and  C_4
REMARK    2  A    between atoms: N_8  and  C_9
REMARK    3  A    between atoms: C_9  and  C_10
REMARK    4  A    between atoms: C_10  and  C_13
REMARK    5  A    between atoms: C_17  and  C_18
REMARK                            x       y       z     vdW  Elec       q    Type
REMARK                         _______ _______ _______ _____ _____    ______ ____
ROOT
ATOM      1  C   UNL     1      45.225   6.071  12.225  0.00  0.00    +0.000 C 
ATOM      2  F   UNL     1      44.397   6.011  13.317  0.00  0.00    +0.000 F 
ATOM      3  F   UNL     1      46.116   5.051  12.404  0.00  0.00    +0.000 F 
ENDROOT
BRANCH   1   4
ATOM      4  C   UNL     1      45.916   7.415  12.107  0.00  0.00    +0.000 A 
ATOM      5  C   UNL     1      45.166   8.593  12.006  0.00  0.00    +0.000 A 
ATOM      6  C   UNL     1      45.808   9.826  11.944  0.00  0.00    +0.000 A 
ATOM      7  C   UNL     1      47.202   9.894  12.004  0.00  0.00    +0.000 A 
ATOM      8  C   UNL     1      47.990   8.736  12.136  0.00  0.00    +0.000 A 
ATOM      9  C   UNL     1      47.319   7.500  12.160  0.00  0.00    +0.000 A 
BRANCH   8  10
ATOM     10  C   UNL     1      49.457   8.815  12.289  0.00  0.00    +0.000 A 
ATOM     11  C   UNL     1      50.124   8.351  13.435  0.00  0.00    +0.000 A 
ATOM     12  C   UNL     1      51.507   8.472  13.550  0.00  0.00    +0.000 A 
ATOM     13  C   UNL     1      52.210   9.047  12.503  0.00  0.00    +0.000 A 
ATOM     14  N   UNL     1      51.622   9.513  11.384  0.00  0.00    +0.000 NA
ATOM     15  C   UNL     1      50.272   9.390  11.312  0.00  0.00    +0.000 A 
ENDBRANCH   8  10
ENDBRANCH   1   4
BRANCH   1  16
ATOM     16  C   UNL     1      44.368   5.788  10.965  0.00  0.00    +0.000 C 
BRANCH  16  21
ATOM     17  C   UNL     1      46.437   3.105   7.292  0.00  0.00    +0.000 A 
ATOM     18  C   UNL     1      45.624   2.200   7.970  0.00  0.00    +0.000 A 
ATOM     19  C   UNL     1      44.898   2.636   9.079  0.00  0.00    +0.000 A 
ATOM     20  C   UNL     1      44.976   3.968   9.484  0.00  0.00    +0.000 A 
ATOM     21  N   UNL     1      44.292   4.347  10.643  0.00  0.00    +0.000 N 
ATOM     22  N   UNL     1      45.764   4.850   8.837  0.00  0.00    +0.000 NA
ATOM     23  C   UNL     1      46.476   4.411   7.769  0.00  0.00    +0.000 A 
ATOM     24  H   UNL     1      43.336   4.002  10.641  0.00  0.00    +0.000 HD
BRANCH  17  26
ATOM     25  N   UNL     1      48.585   2.481   6.354  0.00  0.00    +0.000 N 
ATOM     26  C   UNL     1      47.262   2.735   6.124  0.00  0.00    +0.000 C 
ATOM     27  O   UNL     1      46.776   2.632   5.009  0.00  0.00    +0.000 OA
ATOM     28  H   UNL     1      49.122   2.144   5.564  0.00  0.00    +0.000 HD
ATOM     29  H   UNL     1      48.963   2.322   7.277  0.00  0.00    +0.000 HD
ENDBRANCH  17  26
ENDBRANCH  16  21
ENDBRANCH   1  16
TORSDOF 5
ENDMDL
MODEL 8
REMARK VINA RESULT:    -7.156      6.129      8.177
REMARK INTER + INTRA:         -10.079
REMARK INTER:                  -9.480
REMARK INTRA:                  -0.599
REMARK UNBOUND:                -0.831
REMARK  Name = 
REMARK  5 active torsions:
REMARK  status: ('A' for Active; 'I' for Inactive)
REMARK    1  A    between atoms: C_2  and  C_4
REMARK    2  A    between atoms: N_8  and  C_9
REMARK    3  A    between atoms: C_9  and  C_10
REMARK    4  A    between atoms: C_10  and  C_13
REMARK    5  A    between atoms: C_17  and  C_18
REMARK                            x       y       z     vdW  Elec       q    Type
REMARK                         _______ _______ _______ _____ _____    ______ ____
ROOT
ATOM      1  C   UNL     1      47.674   3.793  17.240  0.00  0.00    +0.000 C 
ATOM      2  F   UNL     1      46.846   4.740  17.787  0.00  0.00    +0.000 F 
ATOM      3  F   UNL     1      47.366   2.636  17.899  0.00  0.00    +0.000 F 
ENDROOT
BRANCH   1   4
ATOM      4  C   UNL     1      49.137   4.161  17.390  0.00  0.00    +0.000 A 
ATOM      5  C   UNL     1      49.532   5.503  17.425  0.00  0.00    +0.000 A 
ATOM      6  C   UNL     1      50.872   5.832  17.608  0.00  0.00    +0.000 A 
ATOM      7  C   UNL     1      51.823   4.824  17.780  0.00  0.00    +0.000 A 
ATOM      8  C   UNL     1      51.463   3.464  17.783  0.00  0.00    +0.000 A 
ATOM      9  C   UNL     1      50.108   3.157  17.559  0.00  0.00    +0.000 A 
BRANCH   8  10
ATOM     10  C   UNL     1      52.454   2.404  18.054  0.00  0.00    +0.000 A 
ATOM     11  C   UNL     1      52.400   1.143  17.438  0.00  0.00    +0.000 A 
ATOM     12  C   UNL     1      53.341   0.161  17.746  0.00  0.00    +0.000 A 
ATOM     13  C   UNL     1      54.338   0.463  18.659  0.00  0.00    +0.000 A 
ATOM     14  N   UNL     1      54.435   1.653  19.282  0.00  0.00    +0.000 NA
ATOM     15  C   UNL     1      53.495   2.581  18.969  0.00  0.00    +0.000 A 
ENDBRANCH   8  10
ENDBRANCH   1   4
BRANCH   1  16
ATOM     16  C   UNL     1      47.302   3.646  15.743  0.00  0.00    +0.000 C 
BRANCH  16  21
ATOM     17  C   UNL     1      45.177   4.900  11.397  0.00  0.00    +0.000 A 
ATOM     18  C   UNL     1      45.748   6.082  11.861  0.00  0.00    +0.000 A 
ATOM     19  C   UNL     1      46.423   6.079  13.081  0.00  0.00    +0.000 A 
ATOM     20  C   UNL     1      46.538   4.897  13.811  0.00  0.00    +0.000 A 
ATOM     21  N   UNL     1      47.157   4.953  15.064  0.00  0.00    +0.000 N 
ATOM     22  N   UNL     1      45.985   3.748  13.373  0.00  0.00    +0.000 NA
ATOM     23  C   UNL     1      45.318   3.767  12.192  0.00  0.00    +0.000 A 
ATOM     24  H   UNL     1      48.033   5.465  15.024  0.00  0.00    +0.000 HD
BRANCH  17  26
ATOM     25  N   UNL     1      45.147   4.614   8.988  0.00  0.00    +0.000 N 
ATOM     26  C   UNL     1      44.422   4.806  10.130  0.00  0.00    +0.000 C 
ATOM     27  O   UNL     1      43.203   4.867  10.111  0.00  0.00    +0.000 OA
ATOM     28  H   UNL     1      44.617   4.464   8.138  0.00  0.00    +0.000 HD
ATOM     29  H   UNL     1      46.115   4.322   8.992  0.00  0.00    +0.000 HD
ENDBRANCH  17  26
ENDBRANCH  16  21
ENDBRANCH   1  16
TORSDOF 5
ENDMDL
MODEL 9
REMARK VINA RESULT:    -7.059      4.510      7.613
REMARK INTER + INTRA:          -9.954
REMARK INTER:                  -8.885
REMARK INTRA:                  -1.068
REMARK UNBOUND:                -0.831
REMARK  Name = 
REMARK  5 active torsions:
REMARK  status: ('A' for Active; 'I' for Inactive)
REMARK    1  A    between atoms: C_2  and  C_4
REMARK    2  A    between atoms: N_8  and  C_9
REMARK    3  A    between atoms: C_9  and  C_10
REMARK    4  A    between atoms: C_10  and  C_13
REMARK    5  A    between atoms: C_17  and  C_18
REMARK                            x       y       z     vdW  Elec       q    Type
REMARK                         _______ _______ _______ _____ _____    ______ ____
ROOT
ATOM      1  C   UNL     1      48.315   8.911  12.641  0.00  0.00    +0.000 C 
ATOM      2  F   UNL     1      48.421   9.821  13.661  0.00  0.00    +0.000 F 
ATOM      3  F   UNL     1      49.009   9.467  11.603  0.00  0.00    +0.000 F 
ENDROOT
BRANCH   1   4
ATOM      4  C   UNL     1      46.871   8.631  12.275  0.00  0.00    +0.000 A 
ATOM      5  C   UNL     1      46.033   9.667  11.846  0.00  0.00    +0.000 A 
ATOM      6  C   UNL     1      44.722   9.393  11.469  0.00  0.00    +0.000 A 
ATOM      7  C   UNL     1      44.244   8.081  11.497  0.00  0.00    +0.000 A 
ATOM      8  C   UNL     1      45.064   7.008  11.893  0.00  0.00    +0.000 A 
ATOM      9  C   UNL     1      46.374   7.316  12.304  0.00  0.00    +0.000 A 
BRANCH   8  10
ATOM     10  C   UNL     1      44.586   5.611  11.837  0.00  0.00    +0.000 A 
ATOM     11  C   UNL     1      44.271   4.967  10.630  0.00  0.00    +0.000 A 
ATOM     12  C   UNL     1      43.796   3.657  10.626  0.00  0.00    +0.000 A 
ATOM     13  C   UNL     1      43.655   3.001  11.837  0.00  0.00    +0.000 A 
ATOM     14  N   UNL     1      43.937   3.571  13.025  0.00  0.00    +0.000 NA
ATOM     15  C   UNL     1      44.386   4.852  12.993  0.00  0.00    +0.000 A 
ENDBRANCH   8  10
ENDBRANCH   1   4
BRANCH   1  16
ATOM     16  C   UNL     1      49.024   7.609  13.093  0.00  0.00    +0.000 C 
BRANCH  16  21
ATOM     17  C   UNL     1      48.028   4.631  16.981  0.00  0.00    +0.000 A 
ATOM     18  C   UNL     1      48.780   5.671  17.521  0.00  0.00    +0.000 A 
ATOM     19  C   UNL     1      49.236   6.688  16.682  0.00  0.00    +0.000 A 
ATOM     20  C   UNL     1      48.922   6.665  15.324  0.00  0.00    +0.000 A 
ATOM     21  N   UNL     1      49.461   7.663  14.504  0.00  0.00    +0.000 N 
ATOM     22  N   UNL     1      48.199   5.660  14.790  0.00  0.00    +0.000 NA
ATOM     23  C   UNL     1      47.773   4.670  15.614  0.00  0.00    +0.000 A 
ATOM     24  H   UNL     1      49.339   8.585  14.911  0.00  0.00    +0.000 HD
BRANCH  17  26
ATOM     25  N   UNL     1      48.220   3.171  18.908  0.00  0.00    +0.000 N 
ATOM     26  C   UNL     1      47.521   3.498  17.781  0.00  0.00    +0.000 C 
ATOM     27  O   UNL     1      46.504   2.901  17.463  0.00  0.00    +0.000 OA
ATOM     28  H   UNL     1      47.816   2.451  19.495  0.00  0.00    +0.000 HD
ATOM     29  H   UNL     1      48.910   3.781  19.325  0.00  0.00    +0.000 HD
ENDBRANCH  17  26
ENDBRANCH  16  21
ENDBRANCH   1  16
TORSDOF 5
ENDMDL
