MODEL 1
REMARK VINA RESULT:    -9.186      0.000      0.000
REMARK INTER + INTRA:         -12.114
REMARK INTER:                 -11.334
REMARK INTRA:                  -0.781
REMARK UNBOUND:                -0.781
REMARK  Name = 
REMARK  5 active torsions:
REMARK  status: ('A' for Active; 'I' for Inactive)
REMARK    1  A    between atoms: C_1  and  C_2
REMARK    2  A    between atoms: C_12  and  C_13
REMARK    3  A    between atoms: C_13  and  N_14
REMARK    4  A    between atoms: N_14  and  C_15
REMARK    5  A    between atoms: C_18  and  C_19
REMARK                            x       y       z     vdW  Elec       q    Type
REMARK                         _______ _______ _______ _____ _____    ______ ____
ROOT
ATOM      1  C   UNL     1      43.807   4.907  11.347  0.00  0.00    +0.000 C 
ATOM      2  C   UNL     1      43.188   6.266  11.084  0.00  0.00    +0.000 C 
ATOM      3  C   UNL     1      42.522   5.347  12.054  0.00  0.00    +0.000 C 
ENDROOT
BRANCH   1  15
ATOM      4  C   UNL     1      49.801   7.709  14.223  0.00  0.00    +0.000 C 
ATOM      5  C   UNL     1      49.037   7.256  12.979  0.00  0.00    +0.000 C 
ATOM      6  C   UNL     1      49.254   8.234  11.801  0.00  0.00    +0.000 C 
ATOM      7  O   UNL     1      48.619   9.502  12.021  0.00  0.00    +0.000 OA
ATOM      8  C   UNL     1      47.199   9.313  12.134  0.00  0.00    +0.000 C 
ATOM      9  C   UNL     1      46.841   8.412  13.319  0.00  0.00    +0.000 C 
ATOM     10  N   UNL     1      47.607   7.157  13.322  0.00  0.00    +0.000 N 
ATOM     11  C   UNL     1      46.933   5.971  13.092  0.00  0.00    +0.000 A 
ATOM     12  C   UNL     1      47.414   4.779  13.629  0.00  0.00    +0.000 A 
ATOM     13  C   UNL     1      46.677   3.608  13.495  0.00  0.00    +0.000 A 
ATOM     14  C   UNL     1      45.490   3.643  12.780  0.00  0.00    +0.000 A 
ATOM     15  C   UNL     1      45.071   4.844  12.213  0.00  0.00    +0.000 A 
ATOM     16  N   UNL     1      45.773   5.997  12.405  0.00  0.00    +0.000 NA
ENDBRANCH   1  15
BRANCH   1  17
ATOM     17  N   UNL     1      43.617   3.737  10.462  0.00  0.00    +0.000 N 
ATOM     18  H   UNL     1      43.237   2.939  10.968  0.00  0.00    +0.000 HD
BRANCH  17  19
ATOM     19  C   UNL     1      44.500   3.325   9.446  0.00  0.00    +0.000 A 
ATOM     20  C   UNL     1      44.936   2.013   9.262  0.00  0.00    +0.000 A 
ATOM     21  C   UNL     1      45.899   1.703   8.289  0.00  0.00    +0.000 A 
ATOM     22  C   UNL     1      46.461   2.714   7.496  0.00  0.00    +0.000 A 
ATOM     23  C   UNL     1      46.058   4.034   7.695  0.00  0.00    +0.000 A 
ATOM     24  C   UNL     1      45.096   4.331   8.664  0.00  0.00    +0.000 A 
BRANCH  22  25
ATOM     25  C   UNL     1      47.517   2.357   6.507  0.00  0.00    +0.000 C 
ATOM     26  N   UNL     1      47.503   3.013   5.309  0.00  0.00    +0.000 N 
ATOM     27  O   UNL     1      48.352   1.500   6.748  0.00  0.00    +0.000 OA
ATOM     28  H   UNL     1      46.725   3.567   4.985  0.00  0.00    +0.000 HD
ATOM     29  H   UNL     1      48.184   2.712   4.624  0.00  0.00    +0.000 HD
ENDBRANCH  22  25
ENDBRANCH  17  19
ENDBRANCH   1  17
TORSDOF 4
ENDMDL
MODEL 2
REMARK VINA RESULT:    -7.527      2.391      3.319
REMARK INTER + INTRA:         -10.067
REMARK INTER:                 -10.353
REMARK INTRA:                   0.286
REMARK UNBOUND:                -0.781
REMARK  Name = 
REMARK  5 active torsions:
REMARK  status: ('A' for Active; 'I' for Inactive)
REMARK    1  A    between atoms: C_1  and  C_2
REMARK    2  A    between atoms: C_12  and  C_13
REMARK    3  A    between atoms: C_13  and  N_14
REMARK    4  A    between atoms: N_14  and  C_15
REMARK    5  A    between atoms: C_18  and  C_19
REMARK                            x       y       z     vdW  Elec       q    Type
REMARK                         _______ _______ _______ _____ _____    ______ ____
ROOT
ATOM      1  C   UNL     1      44.530   4.411  11.991  0.00  0.00    +0.000 C 
ATOM      2  C   UNL     1      43.463   4.082  13.017  0.00  0.00    +0.000 C 
ATOM      3  C   UNL     1      44.332   2.982  12.503  0.00  0.00    +0.000 C 
ENDROOT
BRANCH   1  15
ATOM      4  C   UNL     1      49.730   5.813  16.792  0.00  0.00    +0.000 C 
ATOM      5  C   UNL     1      48.248   5.863  16.418  0.00  0.00    +0.000 C 
ATOM      6  C   UNL     1      47.353   5.508  17.628  0.00  0.00    +0.000 C 
ATOM      7  O   UNL     1      47.457   4.125  17.997  0.00  0.00    +0.000 OA
ATOM      8  C   UNL     1      47.010   3.304  16.907  0.00  0.00    +0.000 C 
ATOM      9  C   UNL     1      47.867   3.507  15.655  0.00  0.00    +0.000 C 
ATOM     10  N   UNL     1      48.018   4.927  15.303  0.00  0.00    +0.000 N 
ATOM     11  C   UNL     1      47.424   5.386  14.141  0.00  0.00    +0.000 A 
ATOM     12  C   UNL     1      47.967   6.474  13.462  0.00  0.00    +0.000 A 
ATOM     13  C   UNL     1      47.439   6.864  12.237  0.00  0.00    +0.000 A 
ATOM     14  C   UNL     1      46.340   6.183  11.736  0.00  0.00    +0.000 A 
ATOM     15  C   UNL     1      45.794   5.135  12.471  0.00  0.00    +0.000 A 
ATOM     16  N   UNL     1      46.360   4.725  13.642  0.00  0.00    +0.000 NA
ENDBRANCH   1  15
BRANCH   1  17
ATOM     17  N   UNL     1      44.256   4.558  10.545  0.00  0.00    +0.000 N 
ATOM     18  H   UNL     1      43.257   4.598  10.352  0.00  0.00    +0.000 HD
BRANCH  17  19
ATOM     19  C   UNL     1      44.951   3.906   9.508  0.00  0.00    +0.000 A 
ATOM     20  C   UNL     1      45.094   2.523   9.400  0.00  0.00    +0.000 A 
ATOM     21  C   UNL     1      45.891   1.958   8.392  0.00  0.00    +0.000 A 
ATOM     22  C   UNL     1      46.581   2.776   7.486  0.00  0.00    +0.000 A 
ATOM     23  C   UNL     1      46.473   4.161   7.607  0.00  0.00    +0.000 A 
ATOM     24  C   UNL     1      45.674   4.713   8.611  0.00  0.00    +0.000 A 
BRANCH  22  25
ATOM     25  C   UNL     1      47.457   2.144   6.461  0.00  0.00    +0.000 C 
ATOM     26  N   UNL     1      47.790   2.895   5.369  0.00  0.00    +0.000 N 
ATOM     27  O   UNL     1      47.851   0.994   6.579  0.00  0.00    +0.000 OA
ATOM     28  H   UNL     1      47.330   3.759   5.125  0.00  0.00    +0.000 HD
ATOM     29  H   UNL     1      48.329   2.429   4.651  0.00  0.00    +0.000 HD
ENDBRANCH  22  25
ENDBRANCH  17  19
ENDBRANCH   1  17
TORSDOF 4
ENDMDL
MODEL 3
REMARK VINA RESULT:    -7.381      1.662      2.916
REMARK INTER + INTRA:          -9.887
REMARK INTER:                 -10.269
REMARK INTRA:                   0.382
REMARK UNBOUND:                -0.781
REMARK  Name = 
REMARK  5 active torsions:
REMARK  status: ('A' for Active; 'I' for Inactive)
REMARK    1  A    between atoms: C_1  and  C_2
REMARK    2  A    between atoms: C_12  and  C_13
REMARK    3  A    between atoms: C_13  and  N_14
REMARK    4  A    between atoms: N_14  and  C_15
REMARK    5  A    between atoms: C_18  and  C_19
REMARK                            x       y       z     vdW  Elec       q    Type
REMARK                         _______ _______ _______ _____ _____    ______ ____
ROOT
ATOM      1  C   UNL     1      43.857   5.533  11.263  0.00  0.00    +0.000 C 
ATOM      2  C   UNL     1      42.998   5.009  12.398  0.00  0.00    +0.000 C 
ATOM      3  C   UNL     1      44.396   4.505  12.262  0.00  0.00    +0.000 C 
ENDROOT
BRANCH   1  15
ATOM      4  C   UNL     1      48.869  10.344  13.209  0.00  0.00    +0.000 C 
ATOM      5  C   UNL     1      47.826   9.305  13.620  0.00  0.00    +0.000 C 
ATOM      6  C   UNL     1      48.332   8.438  14.797  0.00  0.00    +0.000 C 
ATOM      7  O   UNL     1      49.399   7.561  14.409  0.00  0.00    +0.000 OA
ATOM      8  C   UNL     1      48.928   6.647  13.406  0.00  0.00    +0.000 C 
ATOM      9  C   UNL     1      48.460   7.381  12.146  0.00  0.00    +0.000 C 
ATOM     10  N   UNL     1      47.516   8.467  12.447  0.00  0.00    +0.000 N 
ATOM     11  C   UNL     1      46.203   8.335  12.034  0.00  0.00    +0.000 A 
ATOM     12  C   UNL     1      45.441   9.467  11.755  0.00  0.00    +0.000 A 
ATOM     13  C   UNL     1      44.160   9.333  11.232  0.00  0.00    +0.000 A 
ATOM     14  C   UNL     1      43.646   8.060  11.041  0.00  0.00    +0.000 A 
ATOM     15  C   UNL     1      44.420   6.954  11.382  0.00  0.00    +0.000 A 
ATOM     16  N   UNL     1      45.697   7.101  11.838  0.00  0.00    +0.000 NA
ENDBRANCH   1  15
BRANCH   1  17
ATOM     17  N   UNL     1      43.783   5.020   9.878  0.00  0.00    +0.000 N 
ATOM     18  H   UNL     1      42.823   4.834   9.595  0.00  0.00    +0.000 HD
BRANCH  17  19
ATOM     19  C   UNL     1      44.674   4.099   9.296  0.00  0.00    +0.000 A 
ATOM     20  C   UNL     1      45.663   4.431   8.370  0.00  0.00    +0.000 A 
ATOM     21  C   UNL     1      46.442   3.437   7.758  0.00  0.00    +0.000 A 
ATOM     22  C   UNL     1      46.224   2.082   8.049  0.00  0.00    +0.000 A 
ATOM     23  C   UNL     1      45.215   1.736   8.946  0.00  0.00    +0.000 A 
ATOM     24  C   UNL     1      44.448   2.734   9.552  0.00  0.00    +0.000 A 
BRANCH  22  25
ATOM     25  C   UNL     1      47.035   1.050   7.343  0.00  0.00    +0.000 C 
ATOM     26  N   UNL     1      46.769  -0.259   7.626  0.00  0.00    +0.000 N 
ATOM     27  O   UNL     1      47.915   1.359   6.555  0.00  0.00    +0.000 OA
ATOM     28  H   UNL     1      46.208  -0.557   8.410  0.00  0.00    +0.000 HD
ATOM     29  H   UNL     1      47.372  -0.945   7.191  0.00  0.00    +0.000 HD
ENDBRANCH  22  25
ENDBRANCH  17  19
ENDBRANCH   1  17
TORSDOF 4
ENDMDL
MODEL 4
REMARK VINA RESULT:    -6.658      3.307      5.745
REMARK INTER + INTRA:          -8.995
REMARK INTER:                  -8.569
REMARK INTRA:                  -0.426
REMARK UNBOUND:                -0.781
REMARK  Name = 
REMARK  5 active torsions:
REMARK  status: ('A' for Active; 'I' for Inactive)
REMARK    1  A    between atoms: C_1  and  C_2
REMARK    2  A    between atoms: C_12  and  C_13
REMARK    3  A    between atoms: C_13  and  N_14
REMARK    4  A    between atoms: N_14  and  C_15
REMARK    5  A    between atoms: C_18  and  C_19
REMARK                            x       y       z     vdW  Elec       q    Type
REMARK                         _______ _______ _______ _____ _____    ______ ____
ROOT
ATOM      1  C   UNL     1      48.455   7.665  12.797  0.00  0.00    +0.000 C 
ATOM      2  C   UNL     1      49.104   7.772  11.430  0.00  0.00    +0.000 C 
ATOM      3  C   UNL     1      48.633   9.019  12.103  0.00  0.00    +0.000 C 
ENDROOT
BRANCH   1  15
ATOM      4  C   UNL     1      49.928   4.767  19.238  0.00  0.00    +0.000 C 
ATOM      5  C   UNL     1      49.103   5.747  18.404  0.00  0.00    +0.000 C 
ATOM      6  C   UNL     1      47.621   5.748  18.845  0.00  0.00    +0.000 C 
ATOM      7  O   UNL     1      46.950   4.526  18.507  0.00  0.00    +0.000 OA
ATOM      8  C   UNL     1      46.947   4.359  17.080  0.00  0.00    +0.000 C 
ATOM      9  C   UNL     1      48.369   4.270  16.518  0.00  0.00    +0.000 C 
ATOM     10  N   UNL     1      49.227   5.369  16.984  0.00  0.00    +0.000 N 
ATOM     11  C   UNL     1      49.653   6.310  16.065  0.00  0.00    +0.000 A 
ATOM     12  C   UNL     1      50.855   6.986  16.262  0.00  0.00    +0.000 A 
ATOM     13  C   UNL     1      51.339   7.847  15.284  0.00  0.00    +0.000 A 
ATOM     14  C   UNL     1      50.582   8.053  14.142  0.00  0.00    +0.000 A 
ATOM     15  C   UNL     1      49.360   7.400  14.007  0.00  0.00    +0.000 A 
ATOM     16  N   UNL     1      48.927   6.512  14.947  0.00  0.00    +0.000 NA
ENDBRANCH   1  15
BRANCH   1  17
ATOM     17  N   UNL     1      47.039   7.294  13.002  0.00  0.00    +0.000 N 
ATOM     18  H   UNL     1      46.757   7.404  13.975  0.00  0.00    +0.000 HD
BRANCH  17  19
ATOM     19  C   UNL     1      46.380   6.205  12.400  0.00  0.00    +0.000 A 
ATOM     20  C   UNL     1      45.722   6.260  11.172  0.00  0.00    +0.000 A 
ATOM     21  C   UNL     1      45.000   5.156  10.691  0.00  0.00    +0.000 A 
ATOM     22  C   UNL     1      44.907   3.980  11.449  0.00  0.00    +0.000 A 
ATOM     23  C   UNL     1      45.531   3.927  12.694  0.00  0.00    +0.000 A 
ATOM     24  C   UNL     1      46.250   5.029  13.162  0.00  0.00    +0.000 A 
BRANCH  22  25
ATOM     25  C   UNL     1      44.091   2.846  10.931  0.00  0.00    +0.000 C 
ATOM     26  N   UNL     1      44.571   2.173   9.844  0.00  0.00    +0.000 N 
ATOM     27  O   UNL     1      43.027   2.539  11.444  0.00  0.00    +0.000 OA
ATOM     28  H   UNL     1      45.325   2.513   9.265  0.00  0.00    +0.000 HD
ATOM     29  H   UNL     1      43.974   1.451   9.463  0.00  0.00    +0.000 HD
ENDBRANCH  22  25
ENDBRANCH  17  19
ENDBRANCH   1  17
TORSDOF 4
ENDMDL
MODEL 5
REMARK VINA RESULT:    -6.242      3.446      6.043
REMARK INTER + INTRA:          -8.482
REMARK INTER:                  -7.947
REMARK INTRA:                  -0.535
REMARK UNBOUND:                -0.781
REMARK  Name = 
REMARK  5 active torsions:
REMARK  status: ('A' for Active; 'I' for Inactive)
REMARK    1  A    between atoms: C_1  and  C_2
REMARK    2  A    between atoms: C_12  and  C_13
REMARK    3  A    between atoms: C_13  and  N_14
REMARK    4  A    between atoms: N_14  and  C_15
REMARK    5  A    between atoms: C_18  and  C_19
REMARK                            x       y       z     vdW  Elec       q    Type
REMARK                         _______ _______ _______ _____ _____    ______ ____
ROOT
ATOM      1  C   UNL     1      48.375   8.032  12.948  0.00  0.00    +0.000 C 
ATOM      2  C   UNL     1      49.511   7.347  12.213  0.00  0.00    +0.000 C 
ATOM      3  C   UNL     1      49.225   8.782  11.918  0.00  0.00    +0.000 C 
ENDROOT
BRANCH   1  15
ATOM      4  C   UNL     1      48.991   6.548  19.982  0.00  0.00    +0.000 C 
ATOM      5  C   UNL     1      48.118   6.594  18.728  0.00  0.00    +0.000 C 
ATOM      6  C   UNL     1      47.198   5.354  18.640  0.00  0.00    +0.000 C 
ATOM      7  O   UNL     1      47.931   4.148  18.375  0.00  0.00    +0.000 OA
ATOM      8  C   UNL     1      48.588   4.257  17.102  0.00  0.00    +0.000 C 
ATOM      9  C   UNL     1      49.590   5.415  17.078  0.00  0.00    +0.000 C 
ATOM     10  N   UNL     1      49.001   6.677  17.550  0.00  0.00    +0.000 N 
ATOM     11  C   UNL     1      48.828   7.705  16.641  0.00  0.00    +0.000 A 
ATOM     12  C   UNL     1      48.843   9.029  17.074  0.00  0.00    +0.000 A 
ATOM     13  C   UNL     1      48.783  10.064  16.148  0.00  0.00    +0.000 A 
ATOM     14  C   UNL     1      48.660   9.752  14.804  0.00  0.00    +0.000 A 
ATOM     15  C   UNL     1      48.594   8.416  14.417  0.00  0.00    +0.000 A 
ATOM     16  N   UNL     1      48.715   7.411  15.330  0.00  0.00    +0.000 NA
ENDBRANCH   1  15
BRANCH   1  17
ATOM     17  N   UNL     1      46.955   7.907  12.557  0.00  0.00    +0.000 N 
ATOM     18  H   UNL     1      46.351   8.488  13.136  0.00  0.00    +0.000 HD
BRANCH  17  19
ATOM     19  C   UNL     1      46.309   6.713  12.183  0.00  0.00    +0.000 A 
ATOM     20  C   UNL     1      45.640   6.521  10.974  0.00  0.00    +0.000 A 
ATOM     21  C   UNL     1      44.933   5.335  10.722  0.00  0.00    +0.000 A 
ATOM     22  C   UNL     1      44.864   4.327  11.693  0.00  0.00    +0.000 A 
ATOM     23  C   UNL     1      45.498   4.523  12.919  0.00  0.00    +0.000 A 
ATOM     24  C   UNL     1      46.203   5.705  13.158  0.00  0.00    +0.000 A 
BRANCH  22  25
ATOM     25  C   UNL     1      44.062   3.103  11.412  0.00  0.00    +0.000 C 
ATOM     26  N   UNL     1      43.705   2.327  12.478  0.00  0.00    +0.000 N 
ATOM     27  O   UNL     1      43.748   2.794  10.273  0.00  0.00    +0.000 OA
ATOM     28  H   UNL     1      44.110   2.423  13.397  0.00  0.00    +0.000 HD
ATOM     29  H   UNL     1      43.221   1.465  12.264  0.00  0.00    +0.000 HD
ENDBRANCH  22  25
ENDBRANCH  17  19
ENDBRANCH   1  17
TORSDOF 4
ENDMDL
