MODEL 1
REMARK VINA RESULT:    -7.776      0.000      0.000
REMARK INTER + INTRA:         -11.676
REMARK INTER:                 -10.504
REMARK INTRA:                  -1.172
REMARK UNBOUND:                -1.172
REMARK  Name = 
REMARK  6 active torsions:
REMARK  status: ('A' for Active; 'I' for Inactive)
REMARK    1  A    between atoms: C_2  and  C_18
REMARK    2  A    between atoms: N_3  and  C_4
REMARK    3  A    between atoms: C_4  and  C_5
REMARK    4  A    between atoms: C_8  and  O_9
REMARK    5  A    between atoms: O_9  and  C_10
REMARK    6  A    between atoms: C_10  and  C_11
REMARK                            x       y       z     vdW  Elec       q    Type
REMARK                         _______ _______ _______ _____ _____    ______ ____
ROOT
ATOM      1  O   UNL     1      49.077   6.594  13.184  0.00  0.00    +0.000 OA
ATOM      2  C   UNL     1      48.423   6.720  14.219  0.00  0.00    +0.000 C 
ATOM      3  N   UNL     1      47.181   7.299  14.237  0.00  0.00    +0.000 N 
ATOM      4  H   UNL     1      46.752   7.537  15.128  0.00  0.00    +0.000 HD
ENDROOT
BRANCH   2   5
ATOM      5  C   UNL     1      48.918   6.199  15.495  0.00  0.00    +0.000 A 
ATOM      6  C   UNL     1      49.987   6.805  16.140  0.00  0.00    +0.000 A 
ATOM      7  S   UNL     1      50.391   6.065  17.626  0.00  0.00    +0.000 S 
ATOM      8  C   UNL     1      49.135   4.928  17.466  0.00  0.00    +0.000 A 
ATOM      9  N   UNL     1      48.901   3.995  18.426  0.00  0.00    +0.000 NA
ATOM     10  C   UNL     1      47.888   3.228  18.186  0.00  0.00    +0.000 A 
ATOM     11  N   UNL     1      47.095   3.299  17.070  0.00  0.00    +0.000 N 
ATOM     12  C   UNL     1      47.343   4.175  16.039  0.00  0.00    +0.000 A 
ATOM     13  O   UNL     1      46.708   4.119  14.992  0.00  0.00    +0.000 OA
ATOM     14  C   UNL     1      48.436   5.093  16.283  0.00  0.00    +0.000 A 
ATOM     15  H   UNL     1      46.342   2.649  16.925  0.00  0.00    +0.000 HD
ENDBRANCH   2   5
BRANCH   3  16
ATOM     16  C   UNL     1      46.570   7.831  13.047  0.00  0.00    +0.000 C 
BRANCH  16  17
ATOM     17  C   UNL     1      45.873   6.787  12.225  0.00  0.00    +0.000 A 
ATOM     18  C   UNL     1      44.751   6.100  12.697  0.00  0.00    +0.000 A 
ATOM     19  C   UNL     1      44.096   5.182  11.874  0.00  0.00    +0.000 A 
ATOM     20  C   UNL     1      44.600   4.966  10.598  0.00  0.00    +0.000 A 
ATOM     21  N   UNL     1      45.692   5.597  10.124  0.00  0.00    +0.000 NA
ATOM     22  C   UNL     1      46.304   6.480  10.942  0.00  0.00    +0.000 A 
BRANCH  20  23
ATOM     23  O   UNL     1      43.940   4.071   9.777  0.00  0.00    +0.000 OA
BRANCH  23  24
ATOM     24  C   UNL     1      44.660   2.831   9.640  0.00  0.00    +0.000 C 
BRANCH  24  25
ATOM     25  C   UNL     1      45.153   2.647   8.199  0.00  0.00    +0.000 C 
ATOM     26  C   UNL     1      46.312   1.669   8.086  0.00  0.00    +0.000 C 
ATOM     27  C   UNL     1      46.911   2.012   6.736  0.00  0.00    +0.000 C 
ATOM     28  C   UNL     1      46.641   3.500   6.562  0.00  0.00    +0.000 C 
ATOM     29  N   UNL     1      45.716   3.884   7.630  0.00  0.00    +0.000 NA
ATOM     30  H   UNL     1      44.979   4.489   7.273  0.00  0.00    +0.000 HD
ENDBRANCH  24  25
ENDBRANCH  23  24
ENDBRANCH  20  23
ENDBRANCH  16  17
ENDBRANCH   3  16
TORSDOF 6
ENDMDL
MODEL 2
REMARK VINA RESULT:    -7.182      1.798      2.064
REMARK INTER + INTRA:         -10.874
REMARK INTER:                  -9.993
REMARK INTRA:                  -0.881
REMARK UNBOUND:                -1.172
REMARK  Name = 
REMARK  6 active torsions:
REMARK  status: ('A' for Active; 'I' for Inactive)
REMARK    1  A    between atoms: C_2  and  C_18
REMARK    2  A    between atoms: N_3  and  C_4
REMARK    3  A    between atoms: C_4  and  C_5
REMARK    4  A    between atoms: C_8  and  O_9
REMARK    5  A    between atoms: O_9  and  C_10
REMARK    6  A    between atoms: C_10  and  C_11
REMARK                            x       y       z     vdW  Elec       q    Type
REMARK                         _______ _______ _______ _____ _____    ______ ____
ROOT
ATOM      1  O   UNL     1      50.191   6.660  15.364  0.00  0.00    +0.000 OA
ATOM      2  C   UNL     1      49.080   6.948  15.807  0.00  0.00    +0.000 C 
ATOM      3  N   UNL     1      48.012   7.219  14.992  0.00  0.00    +0.000 N 
ATOM      4  H   UNL     1      47.165   7.616  15.391  0.00  0.00    +0.000 HD
ENDROOT
BRANCH   2   5
ATOM      5  C   UNL     1      48.819   6.961  17.249  0.00  0.00    +0.000 A 
ATOM      6  C   UNL     1      48.455   8.136  17.891  0.00  0.00    +0.000 A 
ATOM      7  S   UNL     1      48.169   7.935  19.563  0.00  0.00    +0.000 S 
ATOM      8  C   UNL     1      48.498   6.268  19.475  0.00  0.00    +0.000 A 
ATOM      9  N   UNL     1      48.407   5.472  20.574  0.00  0.00    +0.000 NA
ATOM     10  C   UNL     1      48.644   4.222  20.346  0.00  0.00    +0.000 A 
ATOM     11  N   UNL     1      48.975   3.695  19.125  0.00  0.00    +0.000 N 
ATOM     12  C   UNL     1      49.154   4.474  18.005  0.00  0.00    +0.000 A 
ATOM     13  O   UNL     1      49.590   3.997  16.963  0.00  0.00    +0.000 OA
ATOM     14  C   UNL     1      48.849   5.876  18.196  0.00  0.00    +0.000 A 
ATOM     15  H   UNL     1      49.183   2.717  19.019  0.00  0.00    +0.000 HD
ENDBRANCH   2   5
BRANCH   3  16
ATOM     16  C   UNL     1      48.128   7.216  13.557  0.00  0.00    +0.000 C 
BRANCH  16  17
ATOM     17  C   UNL     1      47.176   6.267  12.890  0.00  0.00    +0.000 A 
ATOM     18  C   UNL     1      46.762   5.081  13.504  0.00  0.00    +0.000 A 
ATOM     19  C   UNL     1      45.826   4.258  12.875  0.00  0.00    +0.000 A 
ATOM     20  C   UNL     1      45.341   4.645  11.632  0.00  0.00    +0.000 A 
ATOM     21  N   UNL     1      45.738   5.770  11.007  0.00  0.00    +0.000 NA
ATOM     22  C   UNL     1      46.643   6.547  11.640  0.00  0.00    +0.000 A 
BRANCH  20  23
ATOM     23  O   UNL     1      44.400   3.839  11.018  0.00  0.00    +0.000 OA
BRANCH  23  24
ATOM     24  C   UNL     1      43.957   4.386   9.762  0.00  0.00    +0.000 C 
BRANCH  24  25
ATOM     25  C   UNL     1      44.630   3.663   8.588  0.00  0.00    +0.000 C 
ATOM     26  C   UNL     1      45.305   2.362   8.997  0.00  0.00    +0.000 C 
ATOM     27  C   UNL     1      46.261   2.104   7.848  0.00  0.00    +0.000 C 
ATOM     28  C   UNL     1      46.643   3.489   7.347  0.00  0.00    +0.000 C 
ATOM     29  N   UNL     1      45.742   4.436   8.007  0.00  0.00    +0.000 NA
ATOM     30  H   UNL     1      45.397   5.131   7.347  0.00  0.00    +0.000 HD
ENDBRANCH  24  25
ENDBRANCH  23  24
ENDBRANCH  20  23
ENDBRANCH  16  17
ENDBRANCH   3  16
TORSDOF 6
ENDMDL
MODEL 3
REMARK VINA RESULT:    -7.006      2.259      3.671
REMARK INTER + INTRA:         -10.636
REMARK INTER:                  -9.811
REMARK INTRA:                  -0.825
REMARK UNBOUND:                -1.172
REMARK  Name = 
REMARK  6 active torsions:
REMARK  status: ('A' for Active; 'I' for Inactive)
REMARK    1  A    between atoms: C_2  and  C_18
REMARK    2  A    between atoms: N_3  and  C_4
REMARK    3  A    between atoms: C_4  and  C_5
REMARK    4  A    between atoms: C_8  and  O_9
REMARK    5  A    between atoms: O_9  and  C_10
REMARK    6  A    between atoms: C_10  and  C_11
REMARK                            x       y       z     vdW  Elec       q    Type
REMARK                         _______ _______ _______ _____ _____    ______ ____
ROOT
ATOM      1  O   UNL     1      46.558   4.389  14.732  0.00  0.00    +0.000 OA
ATOM      2  C   UNL     1      46.736   5.501  14.237  0.00  0.00    +0.000 C 
ATOM      3  N   UNL     1      45.773   6.138  13.497  0.00  0.00    +0.000 N 
ATOM      4  H   UNL     1      46.018   6.971  12.967  0.00  0.00    +0.000 HD
ENDROOT
BRANCH   2   5
ATOM      5  C   UNL     1      47.980   6.241  14.461  0.00  0.00    +0.000 A 
ATOM      6  C   UNL     1      48.586   6.244  15.709  0.00  0.00    +0.000 A 
ATOM      7  S   UNL     1      50.040   7.140  15.755  0.00  0.00    +0.000 S 
ATOM      8  C   UNL     1      49.918   7.529  14.103  0.00  0.00    +0.000 A 
ATOM      9  N   UNL     1      50.873   8.270  13.480  0.00  0.00    +0.000 NA
ATOM     10  C   UNL     1      50.667   8.449  12.216  0.00  0.00    +0.000 A 
ATOM     11  N   UNL     1      49.589   7.967  11.520  0.00  0.00    +0.000 N 
ATOM     12  C   UNL     1      48.562   7.280  12.126  0.00  0.00    +0.000 A 
ATOM     13  O   UNL     1      47.543   6.988  11.508  0.00  0.00    +0.000 OA
ATOM     14  C   UNL     1      48.771   7.008  13.532  0.00  0.00    +0.000 A 
ATOM     15  H   UNL     1      49.467   8.171  10.543  0.00  0.00    +0.000 HD
ENDBRANCH   2   5
BRANCH   3  16
ATOM     16  C   UNL     1      44.497   5.531  13.222  0.00  0.00    +0.000 C 
BRANCH  16  17
ATOM     17  C   UNL     1      44.528   4.600  12.046  0.00  0.00    +0.000 A 
ATOM     18  C   UNL     1      44.110   3.270  12.142  0.00  0.00    +0.000 A 
ATOM     19  C   UNL     1      44.096   2.457  11.007  0.00  0.00    +0.000 A 
ATOM     20  C   UNL     1      44.521   3.003   9.803  0.00  0.00    +0.000 A 
ATOM     21  N   UNL     1      44.950   4.274   9.684  0.00  0.00    +0.000 NA
ATOM     22  C   UNL     1      44.951   5.037  10.798  0.00  0.00    +0.000 A 
BRANCH  20  23
ATOM     23  O   UNL     1      44.489   2.203   8.676  0.00  0.00    +0.000 OA
BRANCH  23  24
ATOM     24  C   UNL     1      45.712   1.462   8.504  0.00  0.00    +0.000 C 
BRANCH  24  25
ATOM     25  C   UNL     1      46.691   2.231   7.608  0.00  0.00    +0.000 C 
ATOM     26  C   UNL     1      46.005   2.960   6.463  0.00  0.00    +0.000 C 
ATOM     27  C   UNL     1      47.144   3.212   5.494  0.00  0.00    +0.000 C 
ATOM     28  C   UNL     1      48.096   2.044   5.707  0.00  0.00    +0.000 C 
ATOM     29  N   UNL     1      47.636   1.343   6.907  0.00  0.00    +0.000 NA
ATOM     30  H   UNL     1      48.420   1.098   7.509  0.00  0.00    +0.000 HD
ENDBRANCH  24  25
ENDBRANCH  23  24
ENDBRANCH  20  23
ENDBRANCH  16  17
ENDBRANCH   3  16
TORSDOF 6
ENDMDL
MODEL 4
REMARK VINA RESULT:    -6.937      2.120      2.928
REMARK INTER + INTRA:         -10.542
REMARK INTER:                  -9.996
REMARK INTRA:                  -0.545
REMARK UNBOUND:                -1.172
REMARK  Name = 
REMARK  6 active torsions:
REMARK  status: ('A' for Active; 'I' for Inactive)
REMARK    1  A    between atoms: C_2  and  C_18
REMARK    2  A    between atoms: N_3  and  C_4
REMARK    3  A    between atoms: C_4  and  C_5
REMARK    4  A    between atoms: C_8  and  O_9
REMARK    5  A    between atoms: O_9  and  C_10
REMARK    6  A    between atoms: C_10  and  C_11
REMARK                            x       y       z     vdW  Elec       q    Type
REMARK                         _______ _______ _______ _____ _____    ______ ____
ROOT
ATOM      1  O   UNL     1      46.690   4.056  14.377  0.00  0.00    +0.000 OA
ATOM      2  C   UNL     1      46.720   5.255  14.102  0.00  0.00    +0.000 C 
ATOM      3  N   UNL     1      45.627   5.924  13.617  0.00  0.00    +0.000 N 
ATOM      4  H   UNL     1      45.740   6.864  13.244  0.00  0.00    +0.000 HD
ENDROOT
BRANCH   2   5
ATOM      5  C   UNL     1      47.925   6.055  14.333  0.00  0.00    +0.000 A 
ATOM      6  C   UNL     1      48.510   6.768  13.297  0.00  0.00    +0.000 A 
ATOM      7  S   UNL     1      49.887   7.658  13.778  0.00  0.00    +0.000 S 
ATOM      8  C   UNL     1      49.727   7.140  15.391  0.00  0.00    +0.000 A 
ATOM      9  N   UNL     1      50.586   7.562  16.356  0.00  0.00    +0.000 NA
ATOM     10  C   UNL     1      50.315   7.119  17.540  0.00  0.00    +0.000 A 
ATOM     11  N   UNL     1      49.274   6.282  17.846  0.00  0.00    +0.000 N 
ATOM     12  C   UNL     1      48.428   5.769  16.890  0.00  0.00    +0.000 A 
ATOM     13  O   UNL     1      47.598   4.912  17.171  0.00  0.00    +0.000 OA
ATOM     14  C   UNL     1      48.658   6.277  15.553  0.00  0.00    +0.000 A 
ATOM     15  H   UNL     1      49.136   5.943  18.783  0.00  0.00    +0.000 HD
ENDBRANCH   2   5
BRANCH   3  16
ATOM     16  C   UNL     1      44.374   5.260  13.366  0.00  0.00    +0.000 C 
BRANCH  16  17
ATOM     17  C   UNL     1      44.352   4.517  12.062  0.00  0.00    +0.000 A 
ATOM     18  C   UNL     1      44.945   5.033  10.907  0.00  0.00    +0.000 A 
ATOM     19  C   UNL     1      44.956   4.280   9.731  0.00  0.00    +0.000 A 
ATOM     20  C   UNL     1      44.352   3.029   9.746  0.00  0.00    +0.000 A 
ATOM     21  N   UNL     1      43.754   2.516  10.838  0.00  0.00    +0.000 NA
ATOM     22  C   UNL     1      43.760   3.266  11.961  0.00  0.00    +0.000 A 
BRANCH  20  23
ATOM     23  O   UNL     1      44.380   2.276   8.587  0.00  0.00    +0.000 OA
BRANCH  23  24
ATOM     24  C   UNL     1      45.569   1.469   8.495  0.00  0.00    +0.000 C 
BRANCH  24  25
ATOM     25  C   UNL     1      46.634   2.167   7.639  0.00  0.00    +0.000 C 
ATOM     26  C   UNL     1      46.042   3.012   6.523  0.00  0.00    +0.000 C 
ATOM     27  C   UNL     1      47.211   3.183   5.573  0.00  0.00    +0.000 C 
ATOM     28  C   UNL     1      48.032   1.912   5.741  0.00  0.00    +0.000 C 
ATOM     29  N   UNL     1      47.487   1.214   6.906  0.00  0.00    +0.000 NA
ATOM     30  H   UNL     1      48.234   0.861   7.502  0.00  0.00    +0.000 HD
ENDBRANCH  24  25
ENDBRANCH  23  24
ENDBRANCH  20  23
ENDBRANCH  16  17
ENDBRANCH   3  16
TORSDOF 6
ENDMDL
MODEL 5
REMARK VINA RESULT:    -6.814      2.902      4.061
REMARK INTER + INTRA:         -10.376
REMARK INTER:                  -9.402
REMARK INTRA:                  -0.974
REMARK UNBOUND:                -1.172
REMARK  Name = 
REMARK  6 active torsions:
REMARK  status: ('A' for Active; 'I' for Inactive)
REMARK    1  A    between atoms: C_2  and  C_18
REMARK    2  A    between atoms: N_3  and  C_4
REMARK    3  A    between atoms: C_4  and  C_5
REMARK    4  A    between atoms: C_8  and  O_9
REMARK    5  A    between atoms: O_9  and  C_10
REMARK    6  A    between atoms: C_10  and  C_11
REMARK                            x       y       z     vdW  Elec       q    Type
REMARK                         _______ _______ _______ _____ _____    ______ ____
ROOT
ATOM      1  O   UNL     1      49.444   5.773  18.869  0.00  0.00    +0.000 OA
ATOM      2  C   UNL     1      50.240   5.416  18.002  0.00  0.00    +0.000 C 
ATOM      3  N   UNL     1      50.144   5.834  16.700  0.00  0.00    +0.000 N 
ATOM      4  H   UNL     1      50.713   5.385  15.987  0.00  0.00    +0.000 HD
ENDROOT
BRANCH   2   5
ATOM      5  C   UNL     1      51.383   4.560  18.329  0.00  0.00    +0.000 A 
ATOM      6  C   UNL     1      52.430   5.042  19.100  0.00  0.00    +0.000 A 
ATOM      7  S   UNL     1      53.649   3.881  19.391  0.00  0.00    +0.000 S 
ATOM      8  C   UNL     1      52.803   2.691  18.518  0.00  0.00    +0.000 A 
ATOM      9  N   UNL     1      53.287   1.427  18.395  0.00  0.00    +0.000 NA
ATOM     10  C   UNL     1      52.515   0.623  17.740  0.00  0.00    +0.000 A 
ATOM     11  N   UNL     1      51.311   0.968  17.185  0.00  0.00    +0.000 N 
ATOM     12  C   UNL     1      50.819   2.253  17.220  0.00  0.00    +0.000 A 
ATOM     13  O   UNL     1      49.812   2.564  16.593  0.00  0.00    +0.000 OA
ATOM     14  C   UNL     1      51.622   3.181  17.987  0.00  0.00    +0.000 A 
ATOM     15  H   UNL     1      50.771   0.304  16.656  0.00  0.00    +0.000 HD
ENDBRANCH   2   5
BRANCH   3  16
ATOM     16  C   UNL     1      49.081   6.696  16.252  0.00  0.00    +0.000 C 
BRANCH  16  17
ATOM     17  C   UNL     1      48.158   6.033  15.273  0.00  0.00    +0.000 A 
ATOM     18  C   UNL     1      47.954   6.540  13.987  0.00  0.00    +0.000 A 
ATOM     19  C   UNL     1      47.135   5.855  13.086  0.00  0.00    +0.000 A 
ATOM     20  C   UNL     1      46.527   4.681  13.513  0.00  0.00    +0.000 A 
ATOM     21  N   UNL     1      46.688   4.181  14.753  0.00  0.00    +0.000 NA
ATOM     22  C   UNL     1      47.486   4.863  15.601  0.00  0.00    +0.000 A 
BRANCH  20  23
ATOM     23  O   UNL     1      45.732   3.994  12.615  0.00  0.00    +0.000 OA
BRANCH  23  24
ATOM     24  C   UNL     1      44.835   4.870  11.907  0.00  0.00    +0.000 C 
BRANCH  24  25
ATOM     25  C   UNL     1      44.403   4.243  10.575  0.00  0.00    +0.000 C 
ATOM     26  C   UNL     1      44.823   2.788  10.437  0.00  0.00    +0.000 C 
ATOM     27  C   UNL     1      44.734   2.553   8.941  0.00  0.00    +0.000 C 
ATOM     28  C   UNL     1      45.052   3.905   8.320  0.00  0.00    +0.000 C 
ATOM     29  N   UNL     1      45.049   4.879   9.413  0.00  0.00    +0.000 NA
ATOM     30  H   UNL     1      44.557   5.729   9.143  0.00  0.00    +0.000 HD
ENDBRANCH  24  25
ENDBRANCH  23  24
ENDBRANCH  20  23
ENDBRANCH  16  17
ENDBRANCH   3  16
TORSDOF 6
ENDMDL
MODEL 6
REMARK VINA RESULT:    -6.789      1.805      3.128
REMARK INTER + INTRA:         -10.343
REMARK INTER:                  -9.472
REMARK INTRA:                  -0.870
REMARK UNBOUND:                -1.172
REMARK  Name = 
REMARK  6 active torsions:
REMARK  status: ('A' for Active; 'I' for Inactive)
REMARK    1  A    between atoms: C_2  and  C_18
REMARK    2  A    between atoms: N_3  and  C_4
REMARK    3  A    between atoms: C_4  and  C_5
REMARK    4  A    between atoms: C_8  and  O_9
REMARK    5  A    between atoms: O_9  and  C_10
REMARK    6  A    between atoms: C_10  and  C_11
REMARK                            x       y       z     vdW  Elec       q    Type
REMARK                         _______ _______ _______ _____ _____    ______ ____
ROOT
ATOM      1  O   UNL     1      47.827   3.633  16.445  0.00  0.00    +0.000 OA
ATOM      2  C   UNL     1      47.792   4.785  16.015  0.00  0.00    +0.000 C 
ATOM      3  N   UNL     1      46.925   5.174  15.028  0.00  0.00    +0.000 N 
ATOM      4  H   UNL     1      47.045   6.083  14.585  0.00  0.00    +0.000 HD
ENDROOT
BRANCH   2   5
ATOM      5  C   UNL     1      48.647   5.831  16.582  0.00  0.00    +0.000 A 
ATOM      6  C   UNL     1      48.755   5.989  17.956  0.00  0.00    +0.000 A 
ATOM      7  S   UNL     1      49.820   7.243  18.413  0.00  0.00    +0.000 S 
ATOM      8  C   UNL     1      50.190   7.597  16.791  0.00  0.00    +0.000 A 
ATOM      9  N   UNL     1      51.080   8.572  16.466  0.00  0.00    +0.000 NA
ATOM     10  C   UNL     1      51.291   8.697  15.197  0.00  0.00    +0.000 A 
ATOM     11  N   UNL     1      50.686   7.948  14.221  0.00  0.00    +0.000 N 
ATOM     12  C   UNL     1      49.724   7.005  14.501  0.00  0.00    +0.000 A 
ATOM     13  O   UNL     1      49.097   6.454  13.603  0.00  0.00    +0.000 OA
ATOM     14  C   UNL     1      49.489   6.789  15.913  0.00  0.00    +0.000 A 
ATOM     15  H   UNL     1      50.866   8.118  13.247  0.00  0.00    +0.000 HD
ENDBRANCH   2   5
BRANCH   3  16
ATOM     16  C   UNL     1      46.016   4.250  14.402  0.00  0.00    +0.000 C 
BRANCH  16  17
ATOM     17  C   UNL     1      45.803   4.528  12.943  0.00  0.00    +0.000 A 
ATOM     18  C   UNL     1      46.231   5.717  12.346  0.00  0.00    +0.000 A 
ATOM     19  C   UNL     1      46.070   5.908  10.972  0.00  0.00    +0.000 A 
ATOM     20  C   UNL     1      45.464   4.898  10.236  0.00  0.00    +0.000 A 
ATOM     21  N   UNL     1      45.022   3.751  10.787  0.00  0.00    +0.000 NA
ATOM     22  C   UNL     1      45.193   3.595  12.117  0.00  0.00    +0.000 A 
BRANCH  20  23
ATOM     23  O   UNL     1      45.322   5.079   8.872  0.00  0.00    +0.000 OA
BRANCH  23  24
ATOM     24  C   UNL     1      44.665   3.962   8.245  0.00  0.00    +0.000 C 
BRANCH  24  25
ATOM     25  C   UNL     1      45.639   3.200   7.337  0.00  0.00    +0.000 C 
ATOM     26  C   UNL     1      46.175   1.926   7.973  0.00  0.00    +0.000 C 
ATOM     27  C   UNL     1      47.414   1.635   7.149  0.00  0.00    +0.000 C 
ATOM     28  C   UNL     1      47.919   3.003   6.715  0.00  0.00    +0.000 C 
ATOM     29  N   UNL     1      46.868   3.964   7.057  0.00  0.00    +0.000 NA
ATOM     30  H   UNL     1      46.720   4.626   6.297  0.00  0.00    +0.000 HD
ENDBRANCH  24  25
ENDBRANCH  23  24
ENDBRANCH  20  23
ENDBRANCH  16  17
ENDBRANCH   3  16
TORSDOF 6
ENDMDL
MODEL 7
REMARK VINA RESULT:    -6.788      3.138      7.664
REMARK INTER + INTRA:         -10.341
REMARK INTER:                  -9.159
REMARK INTRA:                  -1.182
REMARK UNBOUND:                -1.172
REMARK  Name = 
REMARK  6 active torsions:
REMARK  status: ('A' for Active; 'I' for Inactive)
REMARK    1  A    between atoms: C_2  and  C_18
REMARK    2  A    between atoms: N_3  and  C_4
REMARK    3  A    between atoms: C_4  and  C_5
REMARK    4  A    between atoms: C_8  and  O_9
REMARK    5  A    between atoms: O_9  and  C_10
REMARK    6  A    between atoms: C_10  and  C_11
REMARK                            x       y       z     vdW  Elec       q    Type
REMARK                         _______ _______ _______ _____ _____    ______ ____
ROOT
ATOM      1  O   UNL     1      45.155   7.986  11.516  0.00  0.00    +0.000 OA
ATOM      2  C   UNL     1      45.907   7.024  11.367  0.00  0.00    +0.000 C 
ATOM      3  N   UNL     1      47.205   7.033  11.806  0.00  0.00    +0.000 N 
ATOM      4  H   UNL     1      47.838   6.291  11.513  0.00  0.00    +0.000 HD
ENDROOT
BRANCH   2   5
ATOM      5  C   UNL     1      45.434   5.780  10.755  0.00  0.00    +0.000 A 
ATOM      6  C   UNL     1      45.743   5.477   9.437  0.00  0.00    +0.000 A 
ATOM      7  S   UNL     1      45.123   3.971   8.923  0.00  0.00    +0.000 S 
ATOM      8  C   UNL     1      44.444   3.666  10.453  0.00  0.00    +0.000 A 
ATOM      9  N   UNL     1      43.777   2.509  10.711  0.00  0.00    +0.000 NA
ATOM     10  C   UNL     1      43.354   2.400  11.928  0.00  0.00    +0.000 A 
ATOM     11  N   UNL     1      43.524   3.343  12.907  0.00  0.00    +0.000 N 
ATOM     12  C   UNL     1      44.123   4.559  12.669  0.00  0.00    +0.000 A 
ATOM     13  O   UNL     1      44.133   5.439  13.523  0.00  0.00    +0.000 OA
ATOM     14  C   UNL     1      44.662   4.710  11.334  0.00  0.00    +0.000 A 
ATOM     15  H   UNL     1      43.139   3.214  13.827  0.00  0.00    +0.000 HD
ENDBRANCH   2   5
BRANCH   3  16
ATOM     16  C   UNL     1      47.788   8.184  12.444  0.00  0.00    +0.000 C 
BRANCH  16  17
ATOM     17  C   UNL     1      48.210   7.923  13.860  0.00  0.00    +0.000 A 
ATOM     18  C   UNL     1      48.196   8.925  14.834  0.00  0.00    +0.000 A 
ATOM     19  C   UNL     1      48.536   8.621  16.154  0.00  0.00    +0.000 A 
ATOM     20  C   UNL     1      48.898   7.315  16.456  0.00  0.00    +0.000 A 
ATOM     21  N   UNL     1      48.942   6.334  15.534  0.00  0.00    +0.000 NA
ATOM     22  C   UNL     1      48.607   6.657  14.266  0.00  0.00    +0.000 A 
BRANCH  20  23
ATOM     23  O   UNL     1      49.217   7.011  17.767  0.00  0.00    +0.000 OA
BRANCH  23  24
ATOM     24  C   UNL     1      48.042   6.796  18.572  0.00  0.00    +0.000 C 
BRANCH  24  25
ATOM     25  C   UNL     1      47.734   5.298  18.692  0.00  0.00    +0.000 C 
ATOM     26  C   UNL     1      48.981   4.428  18.659  0.00  0.00    +0.000 C 
ATOM     27  C   UNL     1      48.427   3.061  18.309  0.00  0.00    +0.000 C 
ATOM     28  C   UNL     1      47.204   3.348  17.452  0.00  0.00    +0.000 C 
ATOM     29  N   UNL     1      46.951   4.787  17.552  0.00  0.00    +0.000 NA
ATOM     30  H   UNL     1      45.958   4.975  17.679  0.00  0.00    +0.000 HD
ENDBRANCH  24  25
ENDBRANCH  23  24
ENDBRANCH  20  23
ENDBRANCH  16  17
ENDBRANCH   3  16
TORSDOF 6
ENDMDL
MODEL 8
REMARK VINA RESULT:    -6.509      2.764      8.169
REMARK INTER + INTRA:          -9.964
REMARK INTER:                  -8.859
REMARK INTRA:                  -1.105
REMARK UNBOUND:                -1.172
REMARK  Name = 
REMARK  6 active torsions:
REMARK  status: ('A' for Active; 'I' for Inactive)
REMARK    1  A    between atoms: C_2  and  C_18
REMARK    2  A    between atoms: N_3  and  C_4
REMARK    3  A    between atoms: C_4  and  C_5
REMARK    4  A    between atoms: C_8  and  O_9
REMARK    5  A    between atoms: O_9  and  C_10
REMARK    6  A    between atoms: C_10  and  C_11
REMARK                            x       y       z     vdW  Elec       q    Type
REMARK                         _______ _______ _______ _____ _____    ______ ____
ROOT
ATOM      1  O   UNL     1      44.504   7.410  11.674  0.00  0.00    +0.000 OA
ATOM      2  C   UNL     1      45.255   6.438  11.607  0.00  0.00    +0.000 C 
ATOM      3  N   UNL     1      46.605   6.537  11.826  0.00  0.00    +0.000 N 
ATOM      4  H   UNL     1      47.208   5.751  11.595  0.00  0.00    +0.000 HD
ENDROOT
BRANCH   2   5
ATOM      5  C   UNL     1      44.734   5.095  11.343  0.00  0.00    +0.000 A 
ATOM      6  C   UNL     1      43.968   4.434  12.292  0.00  0.00    +0.000 A 
ATOM      7  S   UNL     1      43.434   2.894  11.781  0.00  0.00    +0.000 S 
ATOM      8  C   UNL     1      44.189   3.073  10.266  0.00  0.00    +0.000 A 
ATOM      9  N   UNL     1      44.101   2.106   9.315  0.00  0.00    +0.000 NA
ATOM     10  C   UNL     1      44.689   2.400   8.202  0.00  0.00    +0.000 A 
ATOM     11  N   UNL     1      45.367   3.565   7.956  0.00  0.00    +0.000 N 
ATOM     12  C   UNL     1      45.547   4.536   8.914  0.00  0.00    +0.000 A 
ATOM     13  O   UNL     1      46.279   5.499   8.713  0.00  0.00    +0.000 OA
ATOM     14  C   UNL     1      44.863   4.277  10.164  0.00  0.00    +0.000 A 
ATOM     15  H   UNL     1      45.835   3.721   7.078  0.00  0.00    +0.000 HD
ENDBRANCH   2   5
BRANCH   3  16
ATOM     16  C   UNL     1      47.241   7.795  12.118  0.00  0.00    +0.000 C 
BRANCH  16  17
ATOM     17  C   UNL     1      47.892   7.826  13.469  0.00  0.00    +0.000 A 
ATOM     18  C   UNL     1      47.856   8.962  14.283  0.00  0.00    +0.000 A 
ATOM     19  C   UNL     1      48.421   8.927  15.559  0.00  0.00    +0.000 A 
ATOM     20  C   UNL     1      49.024   7.748  15.978  0.00  0.00    +0.000 A 
ATOM     21  N   UNL     1      49.093   6.645  15.208  0.00  0.00    +0.000 NA
ATOM     22  C   UNL     1      48.537   6.708  13.979  0.00  0.00    +0.000 A 
BRANCH  20  23
ATOM     23  O   UNL     1      49.566   7.707  17.249  0.00  0.00    +0.000 OA
BRANCH  23  24
ATOM     24  C   UNL     1      48.550   7.651  18.268  0.00  0.00    +0.000 C 
BRANCH  24  25
ATOM     25  C   UNL     1      48.218   6.196  18.623  0.00  0.00    +0.000 C 
ATOM     26  C   UNL     1      49.424   5.273  18.549  0.00  0.00    +0.000 C 
ATOM     27  C   UNL     1      48.791   3.898  18.455  0.00  0.00    +0.000 C 
ATOM     28  C   UNL     1      47.475   4.130  17.728  0.00  0.00    +0.000 C 
ATOM     29  N   UNL     1      47.279   5.580  17.668  0.00  0.00    +0.000 NA
ATOM     30  H   UNL     1      46.317   5.827  17.893  0.00  0.00    +0.000 HD
ENDBRANCH  24  25
ENDBRANCH  23  24
ENDBRANCH  20  23
ENDBRANCH  16  17
ENDBRANCH   3  16
TORSDOF 6
ENDMDL
MODEL 9
REMARK VINA RESULT:    -6.366      1.800      2.588
REMARK INTER + INTRA:          -9.771
REMARK INTER:                  -8.521
REMARK INTRA:                  -1.251
REMARK UNBOUND:                -1.172
REMARK  Name = 
REMARK  6 active torsions:
REMARK  status: ('A' for Active; 'I' for Inactive)
REMARK    1  A    between atoms: C_2  and  C_18
REMARK    2  A    between atoms: N_3  and  C_4
REMARK    3  A    between atoms: C_4  and  C_5
REMARK    4  A    between atoms: C_8  and  O_9
REMARK    5  A    between atoms: O_9  and  C_10
REMARK    6  A    between atoms: C_10  and  C_11
REMARK                            x       y       z     vdW  Elec       q    Type
REMARK                         _______ _______ _______ _____ _____    ______ ____
ROOT
ATOM      1  O   UNL     1      47.952   9.125  16.389  0.00  0.00    +0.000 OA
ATOM      2  C   UNL     1      48.588   8.086  16.217  0.00  0.00    +0.000 C 
ATOM      3  N   UNL     1      49.041   7.698  14.983  0.00  0.00    +0.000 N 
ATOM      4  H   UNL     1      49.409   6.758  14.857  0.00  0.00    +0.000 HD
ENDROOT
BRANCH   2   5
ATOM      5  C   UNL     1      48.952   7.224  17.345  0.00  0.00    +0.000 A 
ATOM      6  C   UNL     1      49.558   7.755  18.474  0.00  0.00    +0.000 A 
ATOM      7  S   UNL     1      49.874   6.592  19.685  0.00  0.00    +0.000 S 
ATOM      8  C   UNL     1      49.188   5.349  18.748  0.00  0.00    +0.000 A 
ATOM      9  N   UNL     1      49.111   4.074  19.215  0.00  0.00    +0.000 NA
ATOM     10  C   UNL     1      48.527   3.248  18.410  0.00  0.00    +0.000 A 
ATOM     11  N   UNL     1      48.025   3.574  17.178  0.00  0.00    +0.000 N 
ATOM     12  C   UNL     1      48.150   4.832  16.635  0.00  0.00    +0.000 A 
ATOM     13  O   UNL     1      47.821   5.058  15.475  0.00  0.00    +0.000 OA
ATOM     14  C   UNL     1      48.751   5.808  17.519  0.00  0.00    +0.000 A 
ATOM     15  H   UNL     1      47.612   2.876  16.582  0.00  0.00    +0.000 HD
ENDBRANCH   2   5
BRANCH   3  16
ATOM     16  C   UNL     1      48.772   8.466  13.795  0.00  0.00    +0.000 C 
BRANCH  16  17
ATOM     17  C   UNL     1      47.581   7.970  13.029  0.00  0.00    +0.000 A 
ATOM     18  C   UNL     1      47.668   6.897  12.138  0.00  0.00    +0.000 A 
ATOM     19  C   UNL     1      46.522   6.428  11.494  0.00  0.00    +0.000 A 
ATOM     20  C   UNL     1      45.315   7.066  11.753  0.00  0.00    +0.000 A 
ATOM     21  N   UNL     1      45.205   8.115  12.590  0.00  0.00    +0.000 NA
ATOM     22  C   UNL     1      46.330   8.546  13.200  0.00  0.00    +0.000 A 
BRANCH  20  23
ATOM     23  O   UNL     1      44.177   6.588  11.130  0.00  0.00    +0.000 OA
BRANCH  23  24
ATOM     24  C   UNL     1      43.710   5.363  11.724  0.00  0.00    +0.000 C 
BRANCH  24  25
ATOM     25  C   UNL     1      43.673   4.235  10.684  0.00  0.00    +0.000 C 
ATOM     26  C   UNL     1      44.794   3.222  10.863  0.00  0.00    +0.000 C 
ATOM     27  C   UNL     1      44.845   2.536   9.512  0.00  0.00    +0.000 C 
ATOM     28  C   UNL     1      44.409   3.604   8.520  0.00  0.00    +0.000 C 
ATOM     29  N   UNL     1      43.894   4.723   9.311  0.00  0.00    +0.000 NA
ATOM     30  H   UNL     1      43.030   5.086   8.910  0.00  0.00    +0.000 HD
ENDBRANCH  24  25
ENDBRANCH  23  24
ENDBRANCH  20  23
ENDBRANCH  16  17
ENDBRANCH   3  16
TORSDOF 6
ENDMDL
