MODEL 1
REMARK VINA RESULT:    -7.296      0.000      0.000
REMARK INTER + INTRA:          -9.598
REMARK INTER:                  -9.216
REMARK INTRA:                  -0.382
REMARK UNBOUND:                -0.382
REMARK  Name = 
REMARK  5 active torsions:
REMARK  status: ('A' for Active; 'I' for Inactive)
REMARK    1  A    between atoms: N_1  and  C_2
REMARK    2  A    between atoms: C_2  and  C_3
REMARK    3  A    between atoms: C_7  and  C_8
REMARK    4  A    between atoms: C_8  and  C_9
REMARK    5  A    between atoms: C_9  and  C_10
REMARK                            x       y       z     vdW  Elec       q    Type
REMARK                         _______ _______ _______ _____ _____    ______ ____
ROOT
ATOM      1  C   UNL     1      45.303   4.526  12.983  0.00  0.00    +0.000 A 
ATOM      2  C   UNL     1      44.119   5.208  13.246  0.00  0.00    +0.000 A 
ATOM      3  C   UNL     1      43.063   5.058  12.363  0.00  0.00    +0.000 A 
ATOM      4  N   UNL     1      43.101   4.272  11.261  0.00  0.00    +0.000 NA
ATOM      5  C   UNL     1      44.250   3.602  11.007  0.00  0.00    +0.000 A 
ATOM      6  C   UNL     1      45.366   3.729  11.834  0.00  0.00    +0.000 A 
ENDROOT
BRANCH   1   7
ATOM      7  C   UNL     1      46.485   4.601  13.910  0.00  0.00    +0.000 C 
BRANCH   7   8
ATOM      8  N   UNL     1      47.176   3.323  14.005  0.00  0.00    +0.000 NA
ATOM      9  H   UNL     1      47.319   3.091  14.986  0.00  0.00    +0.000 HD
ATOM     10  H   UNL     1      48.103   3.419  13.594  0.00  0.00    +0.000 HD
ENDBRANCH   7   8
ENDBRANCH   1   7
BRANCH   5  11
ATOM     11  C   UNL     1      44.266   2.737   9.764  0.00  0.00    +0.000 C 
BRANCH  11  12
ATOM     12  C   UNL     1      44.770   3.461   8.510  0.00  0.00    +0.000 C 
BRANCH  12  13
ATOM     13  C   UNL     1      45.875   2.739   7.786  0.00  0.00    +0.000 A 
ATOM     14  C   UNL     1      46.631   3.391   6.807  0.00  0.00    +0.000 A 
ATOM     15  C   UNL     1      47.683   2.710   6.217  0.00  0.00    +0.000 A 
ATOM     16  N   UNL     1      48.023   1.440   6.524  0.00  0.00    +0.000 NA
ATOM     17  C   UNL     1      47.270   0.823   7.461  0.00  0.00    +0.000 A 
ATOM     18  C   UNL     1      46.198   1.420   8.107  0.00  0.00    +0.000 A 
ENDBRANCH  12  13
ENDBRANCH  11  12
ENDBRANCH   5  11
TORSDOF 5
ENDMDL
MODEL 2
REMARK VINA RESULT:    -7.049      1.591      2.613
REMARK INTER + INTRA:          -9.286
REMARK INTER:                  -8.917
REMARK INTRA:                  -0.369
REMARK UNBOUND:                -0.382
REMARK  Name = 
REMARK  5 active torsions:
REMARK  status: ('A' for Active; 'I' for Inactive)
REMARK    1  A    between atoms: N_1  and  C_2
REMARK    2  A    between atoms: C_2  and  C_3
REMARK    3  A    between atoms: C_7  and  C_8
REMARK    4  A    between atoms: C_8  and  C_9
REMARK    5  A    between atoms: C_9  and  C_10
REMARK                            x       y       z     vdW  Elec       q    Type
REMARK                         _______ _______ _______ _____ _____    ______ ____
ROOT
ATOM      1  C   UNL     1      44.910   6.283  11.808  0.00  0.00    +0.000 A 
ATOM      2  C   UNL     1      45.271   5.775  13.053  0.00  0.00    +0.000 A 
ATOM      3  C   UNL     1      45.362   4.401  13.201  0.00  0.00    +0.000 A 
ATOM      4  N   UNL     1      45.137   3.514  12.204  0.00  0.00    +0.000 NA
ATOM      5  C   UNL     1      44.792   4.006  10.990  0.00  0.00    +0.000 A 
ATOM      6  C   UNL     1      44.650   5.377  10.774  0.00  0.00    +0.000 A 
ENDROOT
BRANCH   1   7
ATOM      7  C   UNL     1      44.827   7.763  11.550  0.00  0.00    +0.000 C 
BRANCH   7   8
ATOM      8  N   UNL     1      43.515   8.148  11.047  0.00  0.00    +0.000 NA
ATOM      9  H   UNL     1      43.631   8.711  10.207  0.00  0.00    +0.000 HD
ATOM     10  H   UNL     1      43.062   8.746  11.735  0.00  0.00    +0.000 HD
ENDBRANCH   7   8
ENDBRANCH   1   7
BRANCH   5  11
ATOM     11  C   UNL     1      44.539   2.990   9.897  0.00  0.00    +0.000 C 
BRANCH  11  12
ATOM     12  C   UNL     1      44.800   3.521   8.482  0.00  0.00    +0.000 C 
BRANCH  12  13
ATOM     13  C   UNL     1      45.896   2.797   7.747  0.00  0.00    +0.000 A 
ATOM     14  C   UNL     1      46.279   1.507   8.128  0.00  0.00    +0.000 A 
ATOM     15  C   UNL     1      47.243   0.852   7.379  0.00  0.00    +0.000 A 
ATOM     16  N   UNL     1      47.850   1.389   6.300  0.00  0.00    +0.000 NA
ATOM     17  C   UNL     1      47.478   2.642   5.960  0.00  0.00    +0.000 A 
ATOM     18  C   UNL     1      46.524   3.379   6.644  0.00  0.00    +0.000 A 
ENDBRANCH  12  13
ENDBRANCH  11  12
ENDBRANCH   5  11
TORSDOF 5
ENDMDL
MODEL 3
REMARK VINA RESULT:    -6.930      1.580      2.392
REMARK INTER + INTRA:          -9.135
REMARK INTER:                  -8.721
REMARK INTRA:                  -0.414
REMARK UNBOUND:                -0.382
REMARK  Name = 
REMARK  5 active torsions:
REMARK  status: ('A' for Active; 'I' for Inactive)
REMARK    1  A    between atoms: N_1  and  C_2
REMARK    2  A    between atoms: C_2  and  C_3
REMARK    3  A    between atoms: C_7  and  C_8
REMARK    4  A    between atoms: C_8  and  C_9
REMARK    5  A    between atoms: C_9  and  C_10
REMARK                            x       y       z     vdW  Elec       q    Type
REMARK                         _______ _______ _______ _____ _____    ______ ____
ROOT
ATOM      1  C   UNL     1      44.403   4.563  12.429  0.00  0.00    +0.000 A 
ATOM      2  C   UNL     1      44.992   5.615  13.124  0.00  0.00    +0.000 A 
ATOM      3  C   UNL     1      45.831   6.472  12.432  0.00  0.00    +0.000 A 
ATOM      4  N   UNL     1      46.105   6.363  11.110  0.00  0.00    +0.000 NA
ATOM      5  C   UNL     1      45.527   5.344  10.431  0.00  0.00    +0.000 A 
ATOM      6  C   UNL     1      44.696   4.423  11.068  0.00  0.00    +0.000 A 
ENDROOT
BRANCH   1   7
ATOM      7  C   UNL     1      43.447   3.610  13.094  0.00  0.00    +0.000 C 
BRANCH   7   8
ATOM      8  N   UNL     1      43.526   2.277  12.512  0.00  0.00    +0.000 NA
ATOM      9  H   UNL     1      43.791   2.355  11.532  0.00  0.00    +0.000 HD
ATOM     10  H   UNL     1      42.598   1.857  12.527  0.00  0.00    +0.000 HD
ENDBRANCH   7   8
ENDBRANCH   1   7
BRANCH   5  11
ATOM     11  C   UNL     1      45.858   5.242   8.958  0.00  0.00    +0.000 C 
BRANCH  11  12
ATOM     12  C   UNL     1      45.147   4.089   8.239  0.00  0.00    +0.000 C 
BRANCH  12  13
ATOM     13  C   UNL     1      46.079   3.068   7.643  0.00  0.00    +0.000 A 
ATOM     14  C   UNL     1      46.187   1.790   8.199  0.00  0.00    +0.000 A 
ATOM     15  C   UNL     1      47.004   0.861   7.576  0.00  0.00    +0.000 A 
ATOM     16  N   UNL     1      47.719   1.117   6.461  0.00  0.00    +0.000 NA
ATOM     17  C   UNL     1      47.614   2.363   5.949  0.00  0.00    +0.000 A 
ATOM     18  C   UNL     1      46.824   3.360   6.499  0.00  0.00    +0.000 A 
ENDBRANCH  12  13
ENDBRANCH  11  12
ENDBRANCH   5  11
TORSDOF 5
ENDMDL
MODEL 4
REMARK VINA RESULT:    -6.622      1.548      5.920
REMARK INTER + INTRA:          -8.746
REMARK INTER:                  -8.295
REMARK INTRA:                  -0.452
REMARK UNBOUND:                -0.382
REMARK  Name = 
REMARK  5 active torsions:
REMARK  status: ('A' for Active; 'I' for Inactive)
REMARK    1  A    between atoms: N_1  and  C_2
REMARK    2  A    between atoms: C_2  and  C_3
REMARK    3  A    between atoms: C_7  and  C_8
REMARK    4  A    between atoms: C_8  and  C_9
REMARK    5  A    between atoms: C_9  and  C_10
REMARK                            x       y       z     vdW  Elec       q    Type
REMARK                         _______ _______ _______ _____ _____    ______ ____
ROOT
ATOM      1  C   UNL     1      46.791   2.600   6.951  0.00  0.00    +0.000 A 
ATOM      2  C   UNL     1      46.672   1.322   7.490  0.00  0.00    +0.000 A 
ATOM      3  C   UNL     1      45.770   1.125   8.522  0.00  0.00    +0.000 A 
ATOM      4  N   UNL     1      44.979   2.096   9.035  0.00  0.00    +0.000 NA
ATOM      5  C   UNL     1      45.088   3.339   8.508  0.00  0.00    +0.000 A 
ATOM      6  C   UNL     1      45.997   3.620   7.488  0.00  0.00    +0.000 A 
ENDROOT
BRANCH   1   7
ATOM      7  C   UNL     1      47.716   2.893   5.802  0.00  0.00    +0.000 C 
BRANCH   7   8
ATOM      8  N   UNL     1      48.567   1.752   5.493  0.00  0.00    +0.000 NA
ATOM      9  H   UNL     1      47.998   1.009   5.092  0.00  0.00    +0.000 HD
ATOM     10  H   UNL     1      48.952   1.385   6.361  0.00  0.00    +0.000 HD
ENDBRANCH   7   8
ENDBRANCH   1   7
BRANCH   5  11
ATOM     11  C   UNL     1      44.197   4.406   9.106  0.00  0.00    +0.000 C 
BRANCH  11  12
ATOM     12  C   UNL     1      43.935   4.229  10.606  0.00  0.00    +0.000 C 
BRANCH  12  13
ATOM     13  C   UNL     1      45.077   4.666  11.485  0.00  0.00    +0.000 A 
ATOM     14  C   UNL     1      45.761   5.858  11.225  0.00  0.00    +0.000 A 
ATOM     15  C   UNL     1      46.758   6.256  12.100  0.00  0.00    +0.000 A 
ATOM     16  N   UNL     1      47.122   5.555  13.195  0.00  0.00    +0.000 NA
ATOM     17  C   UNL     1      46.459   4.399  13.419  0.00  0.00    +0.000 A 
ATOM     18  C   UNL     1      45.448   3.917  12.603  0.00  0.00    +0.000 A 
ENDBRANCH  12  13
ENDBRANCH  11  12
ENDBRANCH   5  11
TORSDOF 5
ENDMDL
MODEL 5
REMARK VINA RESULT:    -6.552      1.557      5.872
REMARK INTER + INTRA:          -8.659
REMARK INTER:                  -8.223
REMARK INTRA:                  -0.435
REMARK UNBOUND:                -0.382
REMARK  Name = 
REMARK  5 active torsions:
REMARK  status: ('A' for Active; 'I' for Inactive)
REMARK    1  A    between atoms: N_1  and  C_2
REMARK    2  A    between atoms: C_2  and  C_3
REMARK    3  A    between atoms: C_7  and  C_8
REMARK    4  A    between atoms: C_8  and  C_9
REMARK    5  A    between atoms: C_9  and  C_10
REMARK                            x       y       z     vdW  Elec       q    Type
REMARK                         _______ _______ _______ _____ _____    ______ ____
ROOT
ATOM      1  C   UNL     1      46.596   1.989   7.532  0.00  0.00    +0.000 A 
ATOM      2  C   UNL     1      46.998   3.196   6.968  0.00  0.00    +0.000 A 
ATOM      3  C   UNL     1      46.465   4.369   7.476  0.00  0.00    +0.000 A 
ATOM      4  N   UNL     1      45.585   4.420   8.503  0.00  0.00    +0.000 NA
ATOM      5  C   UNL     1      45.198   3.247   9.058  0.00  0.00    +0.000 A 
ATOM      6  C   UNL     1      45.668   2.025   8.579  0.00  0.00    +0.000 A 
ENDROOT
BRANCH   1   7
ATOM      7  C   UNL     1      47.156   0.672   7.068  0.00  0.00    +0.000 C 
BRANCH   7   8
ATOM      8  N   UNL     1      46.692  -0.431   7.898  0.00  0.00    +0.000 NA
ATOM      9  H   UNL     1      46.972  -0.265   8.863  0.00  0.00    +0.000 HD
ATOM     10  H   UNL     1      47.163  -1.285   7.604  0.00  0.00    +0.000 HD
ENDBRANCH   7   8
ENDBRANCH   1   7
BRANCH   5  11
ATOM     11  C   UNL     1      44.208   3.335  10.200  0.00  0.00    +0.000 C 
BRANCH  11  12
ATOM     12  C   UNL     1      44.271   4.654  10.978  0.00  0.00    +0.000 C 
BRANCH  12  13
ATOM     13  C   UNL     1      45.388   4.720  11.986  0.00  0.00    +0.000 A 
ATOM     14  C   UNL     1      45.724   3.599  12.752  0.00  0.00    +0.000 A 
ATOM     15  C   UNL     1      46.804   3.684  13.616  0.00  0.00    +0.000 A 
ATOM     16  N   UNL     1      47.553   4.795  13.775  0.00  0.00    +0.000 NA
ATOM     17  C   UNL     1      47.201   5.872  13.039  0.00  0.00    +0.000 A 
ATOM     18  C   UNL     1      46.139   5.885  12.148  0.00  0.00    +0.000 A 
ENDBRANCH  12  13
ENDBRANCH  11  12
ENDBRANCH   5  11
TORSDOF 5
ENDMDL
MODEL 6
REMARK VINA RESULT:    -6.146      1.639      5.866
REMARK INTER + INTRA:          -8.145
REMARK INTER:                  -7.661
REMARK INTRA:                  -0.484
REMARK UNBOUND:                -0.382
REMARK  Name = 
REMARK  5 active torsions:
REMARK  status: ('A' for Active; 'I' for Inactive)
REMARK    1  A    between atoms: N_1  and  C_2
REMARK    2  A    between atoms: C_2  and  C_3
REMARK    3  A    between atoms: C_7  and  C_8
REMARK    4  A    between atoms: C_8  and  C_9
REMARK    5  A    between atoms: C_9  and  C_10
REMARK                            x       y       z     vdW  Elec       q    Type
REMARK                         _______ _______ _______ _____ _____    ______ ____
ROOT
ATOM      1  C   UNL     1      45.792   3.409   7.971  0.00  0.00    +0.000 A 
ATOM      2  C   UNL     1      45.396   2.100   8.230  0.00  0.00    +0.000 A 
ATOM      3  C   UNL     1      44.559   1.867   9.309  0.00  0.00    +0.000 A 
ATOM      4  N   UNL     1      44.084   2.838  10.124  0.00  0.00    +0.000 NA
ATOM      5  C   UNL     1      44.463   4.113   9.870  0.00  0.00    +0.000 A 
ATOM      6  C   UNL     1      45.329   4.420   8.821  0.00  0.00    +0.000 A 
ENDROOT
BRANCH   1   7
ATOM      7  C   UNL     1      46.667   3.755   6.797  0.00  0.00    +0.000 C 
BRANCH   7   8
ATOM      8  N   UNL     1      47.908   2.993   6.809  0.00  0.00    +0.000 NA
ATOM      9  H   UNL     1      48.340   3.044   5.888  0.00  0.00    +0.000 HD
ATOM     10  H   UNL     1      47.690   2.012   6.971  0.00  0.00    +0.000 HD
ENDBRANCH   7   8
ENDBRANCH   1   7
BRANCH   5  11
ATOM     11  C   UNL     1      43.923   5.176  10.803  0.00  0.00    +0.000 C 
BRANCH  11  12
ATOM     12  C   UNL     1      44.909   6.316  11.083  0.00  0.00    +0.000 C 
BRANCH  12  13
ATOM     13  C   UNL     1      45.896   6.019  12.181  0.00  0.00    +0.000 A 
ATOM     14  C   UNL     1      45.601   5.074  13.169  0.00  0.00    +0.000 A 
ATOM     15  C   UNL     1      46.567   4.782  14.118  0.00  0.00    +0.000 A 
ATOM     16  N   UNL     1      47.784   5.364  14.156  0.00  0.00    +0.000 NA
ATOM     17  C   UNL     1      48.042   6.285  13.203  0.00  0.00    +0.000 A 
ATOM     18  C   UNL     1      47.143   6.646  12.212  0.00  0.00    +0.000 A 
ENDBRANCH  12  13
ENDBRANCH  11  12
ENDBRANCH   5  11
TORSDOF 5
ENDMDL
MODEL 7
REMARK VINA RESULT:    -5.898      1.910      3.065
REMARK INTER + INTRA:          -7.832
REMARK INTER:                  -7.361
REMARK INTRA:                  -0.472
REMARK UNBOUND:                -0.382
REMARK  Name = 
REMARK  5 active torsions:
REMARK  status: ('A' for Active; 'I' for Inactive)
REMARK    1  A    between atoms: N_1  and  C_2
REMARK    2  A    between atoms: C_2  and  C_3
REMARK    3  A    between atoms: C_7  and  C_8
REMARK    4  A    between atoms: C_8  and  C_9
REMARK    5  A    between atoms: C_9  and  C_10
REMARK                            x       y       z     vdW  Elec       q    Type
REMARK                         _______ _______ _______ _____ _____    ______ ____
ROOT
ATOM      1  C   UNL     1      47.157   6.164  12.728  0.00  0.00    +0.000 A 
ATOM      2  C   UNL     1      47.439   5.505  13.921  0.00  0.00    +0.000 A 
ATOM      3  C   UNL     1      46.577   4.506  14.341  0.00  0.00    +0.000 A 
ATOM      4  N   UNL     1      45.479   4.113  13.654  0.00  0.00    +0.000 NA
ATOM      5  C   UNL     1      45.206   4.748  12.488  0.00  0.00    +0.000 A 
ATOM      6  C   UNL     1      46.011   5.785  12.019  0.00  0.00    +0.000 A 
ENDROOT
BRANCH   1   7
ATOM      7  C   UNL     1      48.062   7.233  12.179  0.00  0.00    +0.000 C 
BRANCH   7   8
ATOM      8  N   UNL     1      49.464   6.930  12.429  0.00  0.00    +0.000 NA
ATOM      9  H   UNL     1      49.918   6.692  11.549  0.00  0.00    +0.000 HD
ATOM     10  H   UNL     1      49.522   6.100  13.017  0.00  0.00    +0.000 HD
ENDBRANCH   7   8
ENDBRANCH   1   7
BRANCH   5  11
ATOM     11  C   UNL     1      43.968   4.293  11.746  0.00  0.00    +0.000 C 
BRANCH  11  12
ATOM     12  C   UNL     1      43.944   4.700  10.268  0.00  0.00    +0.000 C 
BRANCH  12  13
ATOM     13  C   UNL     1      44.803   3.840   9.380  0.00  0.00    +0.000 A 
ATOM     14  C   UNL     1      44.821   2.450   9.535  0.00  0.00    +0.000 A 
ATOM     15  C   UNL     1      45.572   1.693   8.650  0.00  0.00    +0.000 A 
ATOM     16  N   UNL     1      46.303   2.217   7.644  0.00  0.00    +0.000 NA
ATOM     17  C   UNL     1      46.285   3.562   7.523  0.00  0.00    +0.000 A 
ATOM     18  C   UNL     1      45.566   4.405   8.357  0.00  0.00    +0.000 A 
ENDBRANCH  12  13
ENDBRANCH  11  12
ENDBRANCH   5  11
TORSDOF 5
ENDMDL
MODEL 8
REMARK VINA RESULT:    -5.293      3.602      5.905
REMARK INTER + INTRA:          -7.068
REMARK INTER:                  -6.580
REMARK INTRA:                  -0.488
REMARK UNBOUND:                -0.382
REMARK  Name = 
REMARK  5 active torsions:
REMARK  status: ('A' for Active; 'I' for Inactive)
REMARK    1  A    between atoms: N_1  and  C_2
REMARK    2  A    between atoms: C_2  and  C_3
REMARK    3  A    between atoms: C_7  and  C_8
REMARK    4  A    between atoms: C_8  and  C_9
REMARK    5  A    between atoms: C_9  and  C_10
REMARK                            x       y       z     vdW  Elec       q    Type
REMARK                         _______ _______ _______ _____ _____    ______ ____
ROOT
ATOM      1  C   UNL     1      47.045   8.490  12.407  0.00  0.00    +0.000 A 
ATOM      2  C   UNL     1      48.378   8.442  12.008  0.00  0.00    +0.000 A 
ATOM      3  C   UNL     1      49.114   7.309  12.313  0.00  0.00    +0.000 A 
ATOM      4  N   UNL     1      48.615   6.231  12.962  0.00  0.00    +0.000 NA
ATOM      5  C   UNL     1      47.317   6.273  13.344  0.00  0.00    +0.000 A 
ATOM      6  C   UNL     1      46.522   7.393  13.101  0.00  0.00    +0.000 A 
ENDROOT
BRANCH   1   7
ATOM      7  C   UNL     1      46.163   9.665  12.082  0.00  0.00    +0.000 C 
BRANCH   7   8
ATOM      8  N   UNL     1      44.896   9.599  12.798  0.00  0.00    +0.000 NA
ATOM      9  H   UNL     1      44.496  10.533  12.858  0.00  0.00    +0.000 HD
ATOM     10  H   UNL     1      45.074   9.299  13.755  0.00  0.00    +0.000 HD
ENDBRANCH   7   8
ENDBRANCH   1   7
BRANCH   5  11
ATOM     11  C   UNL     1      46.788   5.058  14.075  0.00  0.00    +0.000 C 
BRANCH  11  12
ATOM     12  C   UNL     1      46.246   3.962  13.149  0.00  0.00    +0.000 C 
BRANCH  12  13
ATOM     13  C   UNL     1      44.979   4.339  12.428  0.00  0.00    +0.000 A 
ATOM     14  C   UNL     1      43.860   4.785  13.139  0.00  0.00    +0.000 A 
ATOM     15  C   UNL     1      42.740   5.187  12.430  0.00  0.00    +0.000 A 
ATOM     16  N   UNL     1      42.655   5.165  11.083  0.00  0.00    +0.000 NA
ATOM     17  C   UNL     1      43.741   4.714  10.417  0.00  0.00    +0.000 A 
ATOM     18  C   UNL     1      44.907   4.291  11.035  0.00  0.00    +0.000 A 
ENDBRANCH  12  13
ENDBRANCH  11  12
ENDBRANCH   5  11
TORSDOF 5
ENDMDL
MODEL 9
REMARK VINA RESULT:    -5.279      3.159      5.324
REMARK INTER + INTRA:          -7.050
REMARK INTER:                  -6.614
REMARK INTRA:                  -0.436
REMARK UNBOUND:                -0.382
REMARK  Name = 
REMARK  5 active torsions:
REMARK  status: ('A' for Active; 'I' for Inactive)
REMARK    1  A    between atoms: N_1  and  C_2
REMARK    2  A    between atoms: C_2  and  C_3
REMARK    3  A    between atoms: C_7  and  C_8
REMARK    4  A    between atoms: C_8  and  C_9
REMARK    5  A    between atoms: C_9  and  C_10
REMARK                            x       y       z     vdW  Elec       q    Type
REMARK                         _______ _______ _______ _____ _____    ______ ____
ROOT
ATOM      1  C   UNL     1      47.675   4.774  15.937  0.00  0.00    +0.000 A 
ATOM      2  C   UNL     1      48.596   5.715  16.388  0.00  0.00    +0.000 A 
ATOM      3  C   UNL     1      48.960   6.741  15.533  0.00  0.00    +0.000 A 
ATOM      4  N   UNL     1      48.463   6.901  14.284  0.00  0.00    +0.000 NA
ATOM      5  C   UNL     1      47.562   5.990  13.845  0.00  0.00    +0.000 A 
ATOM      6  C   UNL     1      47.171   4.911  14.639  0.00  0.00    +0.000 A 
ENDROOT
BRANCH   1   7
ATOM      7  C   UNL     1      47.195   3.650  16.815  0.00  0.00    +0.000 C 
BRANCH   7   8
ATOM      8  N   UNL     1      46.852   4.120  18.150  0.00  0.00    +0.000 NA
ATOM      9  H   UNL     1      46.565   3.327  18.721  0.00  0.00    +0.000 HD
ATOM     10  H   UNL     1      46.042   4.735  18.084  0.00  0.00    +0.000 HD
ENDBRANCH   7   8
ENDBRANCH   1   7
BRANCH   5  11
ATOM     11  C   UNL     1      47.030   6.189  12.443  0.00  0.00    +0.000 C 
BRANCH  11  12
ATOM     12  C   UNL     1      45.501   6.277  12.364  0.00  0.00    +0.000 C 
BRANCH  12  13
ATOM     13  C   UNL     1      44.839   5.024  11.853  0.00  0.00    +0.000 A 
ATOM     14  C   UNL     1      44.120   4.194  12.719  0.00  0.00    +0.000 A 
ATOM     15  C   UNL     1      43.469   3.090  12.192  0.00  0.00    +0.000 A 
ATOM     16  N   UNL     1      43.494   2.756  10.885  0.00  0.00    +0.000 NA
ATOM     17  C   UNL     1      44.208   3.562  10.069  0.00  0.00    +0.000 A 
ATOM     18  C   UNL     1      44.892   4.688  10.500  0.00  0.00    +0.000 A 
ENDBRANCH  12  13
ENDBRANCH  11  12
ENDBRANCH   5  11
TORSDOF 5
ENDMDL
