MODEL 1
REMARK VINA RESULT:    -7.233      0.000      0.000
REMARK INTER + INTRA:         -10.140
REMARK INTER:                  -9.558
REMARK INTRA:                  -0.582
REMARK UNBOUND:                -0.582
REMARK  Name = 
REMARK  6 active torsions:
REMARK  status: ('A' for Active; 'I' for Inactive)
REMARK    1  A    between atoms: N_1  and  C_2
REMARK    2  A    between atoms: C_2  and  C_3
REMARK    3  A    between atoms: C_7  and  C_8
REMARK    4  A    between atoms: C_8  and  C_9
REMARK    5  A    between atoms: C_9  and  C_10
REMARK    6  A    between atoms: C_10  and  C_11
REMARK                            x       y       z     vdW  Elec       q    Type
REMARK                         _______ _______ _______ _____ _____    ______ ____
ROOT
ATOM      1  C   UNL     1      46.567   5.049  13.545  0.00  0.00    +0.000 A 
ATOM      2  C   UNL     1      47.153   6.148  12.915  0.00  0.00    +0.000 A 
ATOM      3  C   UNL     1      46.609   6.594  11.720  0.00  0.00    +0.000 A 
ATOM      4  N   UNL     1      45.537   6.033  11.124  0.00  0.00    +0.000 NA
ATOM      5  C   UNL     1      44.969   4.968  11.738  0.00  0.00    +0.000 A 
ATOM      6  C   UNL     1      45.458   4.449  12.935  0.00  0.00    +0.000 A 
ENDROOT
BRANCH   1   7
ATOM      7  C   UNL     1      47.093   4.534  14.858  0.00  0.00    +0.000 C 
BRANCH   7   8
ATOM      8  N   UNL     1      47.517   3.143  14.757  0.00  0.00    +0.000 NA
ATOM      9  H   UNL     1      46.920   2.659  14.090  0.00  0.00    +0.000 HD
ATOM     10  H   UNL     1      47.369   2.688  15.658  0.00  0.00    +0.000 HD
ENDBRANCH   7   8
ENDBRANCH   1   7
BRANCH   5  11
ATOM     11  C   UNL     1      43.775   4.340  11.062  0.00  0.00    +0.000 C 
BRANCH  11  12
ATOM     12  C   UNL     1      44.095   3.925   9.625  0.00  0.00    +0.000 C 
BRANCH  12  13
ATOM     13  C   UNL     1      44.829   2.582   9.583  0.00  0.00    +0.000 C 
BRANCH  13  14
ATOM     14  C   UNL     1      45.713   2.465   8.365  0.00  0.00    +0.000 A 
ATOM     15  C   UNL     1      46.384   1.269   8.081  0.00  0.00    +0.000 A 
ATOM     16  C   UNL     1      47.218   1.172   6.965  0.00  0.00    +0.000 A 
ATOM     17  C   UNL     1      47.392   2.270   6.126  0.00  0.00    +0.000 A 
ATOM     18  C   UNL     1      46.734   3.468   6.402  0.00  0.00    +0.000 A 
ATOM     19  C   UNL     1      45.899   3.566   7.518  0.00  0.00    +0.000 A 
ENDBRANCH  13  14
ENDBRANCH  12  13
ENDBRANCH  11  12
ENDBRANCH   5  11
TORSDOF 6
ENDMDL
MODEL 2
REMARK VINA RESULT:    -7.101      1.154      2.462
REMARK INTER + INTRA:          -9.966
REMARK INTER:                  -9.416
REMARK INTRA:                  -0.550
REMARK UNBOUND:                -0.582
REMARK  Name = 
REMARK  6 active torsions:
REMARK  status: ('A' for Active; 'I' for Inactive)
REMARK    1  A    between atoms: N_1  and  C_2
REMARK    2  A    between atoms: C_2  and  C_3
REMARK    3  A    between atoms: C_7  and  C_8
REMARK    4  A    between atoms: C_8  and  C_9
REMARK    5  A    between atoms: C_9  and  C_10
REMARK    6  A    between atoms: C_10  and  C_11
REMARK                            x       y       z     vdW  Elec       q    Type
REMARK                         _______ _______ _______ _____ _____    ______ ____
ROOT
ATOM      1  C   UNL     1      46.150   6.012  12.902  0.00  0.00    +0.000 A 
ATOM      2  C   UNL     1      47.021   5.212  13.645  0.00  0.00    +0.000 A 
ATOM      3  C   UNL     1      46.825   3.840  13.641  0.00  0.00    +0.000 A 
ATOM      4  N   UNL     1      45.842   3.220  12.955  0.00  0.00    +0.000 NA
ATOM      5  C   UNL     1      45.000   3.998  12.235  0.00  0.00    +0.000 A 
ATOM      6  C   UNL     1      45.118   5.386  12.192  0.00  0.00    +0.000 A 
ENDROOT
BRANCH   1   7
ATOM      7  C   UNL     1      46.326   7.505  12.843  0.00  0.00    +0.000 C 
BRANCH   7   8
ATOM      8  N   UNL     1      45.045   8.194  12.759  0.00  0.00    +0.000 NA
ATOM      9  H   UNL     1      45.113   8.945  12.074  0.00  0.00    +0.000 HD
ATOM     10  H   UNL     1      44.851   8.640  13.655  0.00  0.00    +0.000 HD
ENDBRANCH   7   8
ENDBRANCH   1   7
BRANCH   5  11
ATOM     11  C   UNL     1      43.897   3.300  11.477  0.00  0.00    +0.000 C 
BRANCH  11  12
ATOM     12  C   UNL     1      44.118   3.375   9.966  0.00  0.00    +0.000 C 
BRANCH  12  13
ATOM     13  C   UNL     1      44.608   2.035   9.407  0.00  0.00    +0.000 C 
BRANCH  13  14
ATOM     14  C   UNL     1      45.652   2.226   8.333  0.00  0.00    +0.000 A 
ATOM     15  C   UNL     1      45.777   3.453   7.668  0.00  0.00    +0.000 A 
ATOM     16  C   UNL     1      46.729   3.617   6.659  0.00  0.00    +0.000 A 
ATOM     17  C   UNL     1      47.561   2.558   6.304  0.00  0.00    +0.000 A 
ATOM     18  C   UNL     1      47.441   1.331   6.955  0.00  0.00    +0.000 A 
ATOM     19  C   UNL     1      46.489   1.165   7.964  0.00  0.00    +0.000 A 
ENDBRANCH  13  14
ENDBRANCH  12  13
ENDBRANCH  11  12
ENDBRANCH   5  11
TORSDOF 6
ENDMDL
MODEL 3
REMARK VINA RESULT:    -6.538      2.281      6.260
REMARK INTER + INTRA:          -9.223
REMARK INTER:                  -8.717
REMARK INTRA:                  -0.506
REMARK UNBOUND:                -0.582
REMARK  Name = 
REMARK  6 active torsions:
REMARK  status: ('A' for Active; 'I' for Inactive)
REMARK    1  A    between atoms: N_1  and  C_2
REMARK    2  A    between atoms: C_2  and  C_3
REMARK    3  A    between atoms: C_7  and  C_8
REMARK    4  A    between atoms: C_8  and  C_9
REMARK    5  A    between atoms: C_9  and  C_10
REMARK    6  A    between atoms: C_10  and  C_11
REMARK                            x       y       z     vdW  Elec       q    Type
REMARK                         _______ _______ _______ _____ _____    ______ ____
ROOT
ATOM      1  C   UNL     1      46.573   2.535   6.689  0.00  0.00    +0.000 A 
ATOM      2  C   UNL     1      46.643   1.283   7.303  0.00  0.00    +0.000 A 
ATOM      3  C   UNL     1      45.936   1.083   8.479  0.00  0.00    +0.000 A 
ATOM      4  N   UNL     1      45.173   2.026   9.071  0.00  0.00    +0.000 NA
ATOM      5  C   UNL     1      45.107   3.239   8.472  0.00  0.00    +0.000 A 
ATOM      6  C   UNL     1      45.794   3.528   7.294  0.00  0.00    +0.000 A 
ENDROOT
BRANCH   1   7
ATOM      7  C   UNL     1      47.295   2.807   5.396  0.00  0.00    +0.000 C 
BRANCH   7   8
ATOM      8  N   UNL     1      48.438   1.919   5.223  0.00  0.00    +0.000 NA
ATOM      9  H   UNL     1      48.450   1.574   4.265  0.00  0.00    +0.000 HD
ATOM     10  H   UNL     1      48.313   1.102   5.820  0.00  0.00    +0.000 HD
ENDBRANCH   7   8
ENDBRANCH   1   7
BRANCH   5  11
ATOM     11  C   UNL     1      44.259   4.292   9.142  0.00  0.00    +0.000 C 
BRANCH  11  12
ATOM     12  C   UNL     1      43.910   3.902  10.579  0.00  0.00    +0.000 C 
BRANCH  12  13
ATOM     13  C   UNL     1      43.877   5.127  11.497  0.00  0.00    +0.000 C 
BRANCH  13  14
ATOM     14  C   UNL     1      45.256   5.497  11.986  0.00  0.00    +0.000 A 
ATOM     15  C   UNL     1      45.794   4.894  13.131  0.00  0.00    +0.000 A 
ATOM     16  C   UNL     1      47.062   5.256  13.592  0.00  0.00    +0.000 A 
ATOM     17  C   UNL     1      47.801   6.224  12.917  0.00  0.00    +0.000 A 
ATOM     18  C   UNL     1      47.274   6.835  11.781  0.00  0.00    +0.000 A 
ATOM     19  C   UNL     1      46.005   6.475  11.318  0.00  0.00    +0.000 A 
ENDBRANCH  13  14
ENDBRANCH  12  13
ENDBRANCH  11  12
ENDBRANCH   5  11
TORSDOF 6
ENDMDL
MODEL 4
REMARK VINA RESULT:    -5.810      2.079      3.689
REMARK INTER + INTRA:          -8.260
REMARK INTER:                  -7.734
REMARK INTRA:                  -0.526
REMARK UNBOUND:                -0.582
REMARK  Name = 
REMARK  6 active torsions:
REMARK  status: ('A' for Active; 'I' for Inactive)
REMARK    1  A    between atoms: N_1  and  C_2
REMARK    2  A    between atoms: C_2  and  C_3
REMARK    3  A    between atoms: C_7  and  C_8
REMARK    4  A    between atoms: C_8  and  C_9
REMARK    5  A    between atoms: C_9  and  C_10
REMARK    6  A    between atoms: C_10  and  C_11
REMARK                            x       y       z     vdW  Elec       q    Type
REMARK                         _______ _______ _______ _____ _____    ______ ____
ROOT
ATOM      1  C   UNL     1      47.849   4.679  16.647  0.00  0.00    +0.000 A 
ATOM      2  C   UNL     1      48.657   5.817  16.658  0.00  0.00    +0.000 A 
ATOM      3  C   UNL     1      48.770   6.560  15.493  0.00  0.00    +0.000 A 
ATOM      4  N   UNL     1      48.140   6.254  14.339  0.00  0.00    +0.000 NA
ATOM      5  C   UNL     1      47.356   5.150  14.332  0.00  0.00    +0.000 A 
ATOM      6  C   UNL     1      47.195   4.342  15.456  0.00  0.00    +0.000 A 
ENDROOT
BRANCH   1   7
ATOM      7  C   UNL     1      47.663   3.846  17.887  0.00  0.00    +0.000 C 
BRANCH   7   8
ATOM      8  N   UNL     1      46.605   2.859  17.717  0.00  0.00    +0.000 NA
ATOM      9  H   UNL     1      45.804   3.301  17.269  0.00  0.00    +0.000 HD
ATOM     10  H   UNL     1      46.287   2.555  18.637  0.00  0.00    +0.000 HD
ENDBRANCH   7   8
ENDBRANCH   1   7
BRANCH   5  11
ATOM     11  C   UNL     1      46.661   4.809  13.037  0.00  0.00    +0.000 C 
BRANCH  11  12
ATOM     12  C   UNL     1      45.140   4.864  13.184  0.00  0.00    +0.000 C 
BRANCH  12  13
ATOM     13  C   UNL     1      44.482   5.462  11.937  0.00  0.00    +0.000 C 
BRANCH  13  14
ATOM     14  C   UNL     1      44.690   4.591  10.722  0.00  0.00    +0.000 A 
ATOM     15  C   UNL     1      45.362   5.084   9.595  0.00  0.00    +0.000 A 
ATOM     16  C   UNL     1      45.533   4.282   8.465  0.00  0.00    +0.000 A 
ATOM     17  C   UNL     1      45.031   2.983   8.448  0.00  0.00    +0.000 A 
ATOM     18  C   UNL     1      44.355   2.484   9.561  0.00  0.00    +0.000 A 
ATOM     19  C   UNL     1      44.183   3.285  10.692  0.00  0.00    +0.000 A 
ENDBRANCH  13  14
ENDBRANCH  12  13
ENDBRANCH  11  12
ENDBRANCH   5  11
TORSDOF 6
ENDMDL
MODEL 5
REMARK VINA RESULT:    -5.716      2.088      6.260
REMARK INTER + INTRA:          -8.136
REMARK INTER:                  -7.480
REMARK INTRA:                  -0.656
REMARK UNBOUND:                -0.582
REMARK  Name = 
REMARK  6 active torsions:
REMARK  status: ('A' for Active; 'I' for Inactive)
REMARK    1  A    between atoms: N_1  and  C_2
REMARK    2  A    between atoms: C_2  and  C_3
REMARK    3  A    between atoms: C_7  and  C_8
REMARK    4  A    between atoms: C_8  and  C_9
REMARK    5  A    between atoms: C_9  and  C_10
REMARK    6  A    between atoms: C_10  and  C_11
REMARK                            x       y       z     vdW  Elec       q    Type
REMARK                         _______ _______ _______ _____ _____    ______ ____
ROOT
ATOM      1  C   UNL     1      45.348   3.303   8.482  0.00  0.00    +0.000 A 
ATOM      2  C   UNL     1      44.800   2.160   9.066  0.00  0.00    +0.000 A 
ATOM      3  C   UNL     1      44.134   2.289  10.275  0.00  0.00    +0.000 A 
ATOM      4  N   UNL     1      43.975   3.459  10.928  0.00  0.00    +0.000 NA
ATOM      5  C   UNL     1      44.508   4.566  10.359  0.00  0.00    +0.000 A 
ATOM      6  C   UNL     1      45.201   4.524   9.151  0.00  0.00    +0.000 A 
ENDROOT
BRANCH   1   7
ATOM      7  C   UNL     1      46.058   3.234   7.157  0.00  0.00    +0.000 C 
BRANCH   7   8
ATOM      8  N   UNL     1      47.054   4.290   7.026  0.00  0.00    +0.000 NA
ATOM      9  H   UNL     1      47.099   4.588   6.053  0.00  0.00    +0.000 HD
ATOM     10  H   UNL     1      47.972   3.906   7.251  0.00  0.00    +0.000 HD
ENDBRANCH   7   8
ENDBRANCH   1   7
BRANCH   5  11
ATOM     11  C   UNL     1      44.334   5.870  11.097  0.00  0.00    +0.000 C 
BRANCH  11  12
ATOM     12  C   UNL     1      44.645   5.719  12.587  0.00  0.00    +0.000 C 
BRANCH  12  13
ATOM     13  C   UNL     1      46.153   5.631  12.836  0.00  0.00    +0.000 C 
BRANCH  13  14
ATOM     14  C   UNL     1      46.840   6.950  12.581  0.00  0.00    +0.000 A 
ATOM     15  C   UNL     1      46.235   8.156  12.959  0.00  0.00    +0.000 A 
ATOM     16  C   UNL     1      46.864   9.376  12.700  0.00  0.00    +0.000 A 
ATOM     17  C   UNL     1      48.101   9.402  12.059  0.00  0.00    +0.000 A 
ATOM     18  C   UNL     1      48.709   8.209  11.672  0.00  0.00    +0.000 A 
ATOM     19  C   UNL     1      48.080   6.988  11.930  0.00  0.00    +0.000 A 
ENDBRANCH  13  14
ENDBRANCH  12  13
ENDBRANCH  11  12
ENDBRANCH   5  11
TORSDOF 6
ENDMDL
MODEL 6
REMARK VINA RESULT:    -5.312      2.563      6.303
REMARK INTER + INTRA:          -7.603
REMARK INTER:                  -6.852
REMARK INTRA:                  -0.751
REMARK UNBOUND:                -0.582
REMARK  Name = 
REMARK  6 active torsions:
REMARK  status: ('A' for Active; 'I' for Inactive)
REMARK    1  A    between atoms: N_1  and  C_2
REMARK    2  A    between atoms: C_2  and  C_3
REMARK    3  A    between atoms: C_7  and  C_8
REMARK    4  A    between atoms: C_8  and  C_9
REMARK    5  A    between atoms: C_9  and  C_10
REMARK    6  A    between atoms: C_10  and  C_11
REMARK                            x       y       z     vdW  Elec       q    Type
REMARK                         _______ _______ _______ _____ _____    ______ ____
ROOT
ATOM      1  C   UNL     1      44.204   3.766  10.911  0.00  0.00    +0.000 A 
ATOM      2  C   UNL     1      43.060   4.379  11.425  0.00  0.00    +0.000 A 
ATOM      3  C   UNL     1      43.127   4.953  12.686  0.00  0.00    +0.000 A 
ATOM      4  N   UNL     1      44.238   4.962  13.452  0.00  0.00    +0.000 NA
ATOM      5  C   UNL     1      45.346   4.368  12.950  0.00  0.00    +0.000 A 
ATOM      6  C   UNL     1      45.362   3.758  11.697  0.00  0.00    +0.000 A 
ENDROOT
BRANCH   1   7
ATOM      7  C   UNL     1      44.203   3.150   9.538  0.00  0.00    +0.000 C 
BRANCH   7   8
ATOM      8  N   UNL     1      44.178   4.166   8.493  0.00  0.00    +0.000 NA
ATOM      9  H   UNL     1      44.159   5.088   8.925  0.00  0.00    +0.000 HD
ATOM     10  H   UNL     1      43.307   4.078   7.969  0.00  0.00    +0.000 HD
ENDBRANCH   7   8
ENDBRANCH   1   7
BRANCH   5  11
ATOM     11  C   UNL     1      46.582   4.374  13.815  0.00  0.00    +0.000 C 
BRANCH  11  12
ATOM     12  C   UNL     1      47.181   5.776  13.931  0.00  0.00    +0.000 C 
BRANCH  12  13
ATOM     13  C   UNL     1      47.583   6.326  12.560  0.00  0.00    +0.000 C 
BRANCH  13  14
ATOM     14  C   UNL     1      47.096   7.741  12.361  0.00  0.00    +0.000 A 
ATOM     15  C   UNL     1      48.003   8.782  12.121  0.00  0.00    +0.000 A 
ATOM     16  C   UNL     1      47.549  10.093  11.959  0.00  0.00    +0.000 A 
ATOM     17  C   UNL     1      46.188  10.377  12.041  0.00  0.00    +0.000 A 
ATOM     18  C   UNL     1      45.277   9.351  12.286  0.00  0.00    +0.000 A 
ATOM     19  C   UNL     1      45.729   8.038  12.448  0.00  0.00    +0.000 A 
ENDBRANCH  13  14
ENDBRANCH  12  13
ENDBRANCH  11  12
ENDBRANCH   5  11
TORSDOF 6
ENDMDL
MODEL 7
REMARK VINA RESULT:    -5.308      2.439      4.673
REMARK INTER + INTRA:          -7.597
REMARK INTER:                  -7.210
REMARK INTRA:                  -0.387
REMARK UNBOUND:                -0.582
REMARK  Name = 
REMARK  6 active torsions:
REMARK  status: ('A' for Active; 'I' for Inactive)
REMARK    1  A    between atoms: N_1  and  C_2
REMARK    2  A    between atoms: C_2  and  C_3
REMARK    3  A    between atoms: C_7  and  C_8
REMARK    4  A    between atoms: C_8  and  C_9
REMARK    5  A    between atoms: C_9  and  C_10
REMARK    6  A    between atoms: C_10  and  C_11
REMARK                            x       y       z     vdW  Elec       q    Type
REMARK                         _______ _______ _______ _____ _____    ______ ____
ROOT
ATOM      1  C   UNL     1      48.278   4.245  17.796  0.00  0.00    +0.000 A 
ATOM      2  C   UNL     1      48.702   2.926  17.623  0.00  0.00    +0.000 A 
ATOM      3  C   UNL     1      48.485   2.317  16.397  0.00  0.00    +0.000 A 
ATOM      4  N   UNL     1      47.891   2.923  15.347  0.00  0.00    +0.000 NA
ATOM      5  C   UNL     1      47.483   4.203  15.518  0.00  0.00    +0.000 A 
ATOM      6  C   UNL     1      47.651   4.886  16.721  0.00  0.00    +0.000 A 
ENDROOT
BRANCH   1   7
ATOM      7  C   UNL     1      48.508   4.971  19.094  0.00  0.00    +0.000 C 
BRANCH   7   8
ATOM      8  N   UNL     1      49.116   4.102  20.094  0.00  0.00    +0.000 NA
ATOM      9  H   UNL     1      48.793   3.147  19.948  0.00  0.00    +0.000 HD
ATOM     10  H   UNL     1      48.784   4.379  21.018  0.00  0.00    +0.000 HD
ENDBRANCH   7   8
ENDBRANCH   1   7
BRANCH   5  11
ATOM     11  C   UNL     1      46.812   4.873  14.345  0.00  0.00    +0.000 C 
BRANCH  11  12
ATOM     12  C   UNL     1      46.232   3.849  13.368  0.00  0.00    +0.000 C 
BRANCH  12  13
ATOM     13  C   UNL     1      44.961   4.376  12.696  0.00  0.00    +0.000 C 
BRANCH  13  14
ATOM     14  C   UNL     1      44.996   4.179  11.200  0.00  0.00    +0.000 A 
ATOM     15  C   UNL     1      45.446   5.201  10.354  0.00  0.00    +0.000 A 
ATOM     16  C   UNL     1      45.456   5.022   8.969  0.00  0.00    +0.000 A 
ATOM     17  C   UNL     1      45.012   3.823   8.417  0.00  0.00    +0.000 A 
ATOM     18  C   UNL     1      44.555   2.801   9.248  0.00  0.00    +0.000 A 
ATOM     19  C   UNL     1      44.545   2.979  10.634  0.00  0.00    +0.000 A 
ENDBRANCH  13  14
ENDBRANCH  12  13
ENDBRANCH  11  12
ENDBRANCH   5  11
TORSDOF 6
ENDMDL
MODEL 8
REMARK VINA RESULT:    -5.274      2.113      4.103
REMARK INTER + INTRA:          -7.551
REMARK INTER:                  -7.031
REMARK INTRA:                  -0.521
REMARK UNBOUND:                -0.582
REMARK  Name = 
REMARK  6 active torsions:
REMARK  status: ('A' for Active; 'I' for Inactive)
REMARK    1  A    between atoms: N_1  and  C_2
REMARK    2  A    between atoms: C_2  and  C_3
REMARK    3  A    between atoms: C_7  and  C_8
REMARK    4  A    between atoms: C_8  and  C_9
REMARK    5  A    between atoms: C_9  and  C_10
REMARK    6  A    between atoms: C_10  and  C_11
REMARK                            x       y       z     vdW  Elec       q    Type
REMARK                         _______ _______ _______ _____ _____    ______ ____
ROOT
ATOM      1  C   UNL     1      48.624   5.917  16.122  0.00  0.00    +0.000 A 
ATOM      2  C   UNL     1      48.288   5.152  17.241  0.00  0.00    +0.000 A 
ATOM      3  C   UNL     1      47.363   4.130  17.091  0.00  0.00    +0.000 A 
ATOM      4  N   UNL     1      46.765   3.819  15.922  0.00  0.00    +0.000 NA
ATOM      5  C   UNL     1      47.094   4.562  14.838  0.00  0.00    +0.000 A 
ATOM      6  C   UNL     1      48.006   5.614  14.903  0.00  0.00    +0.000 A 
ENDROOT
BRANCH   1   7
ATOM      7  C   UNL     1      49.641   7.022  16.213  0.00  0.00    +0.000 C 
BRANCH   7   8
ATOM      8  N   UNL     1      50.579   6.981  15.098  0.00  0.00    +0.000 NA
ATOM      9  H   UNL     1      50.893   6.022  14.960  0.00  0.00    +0.000 HD
ATOM     10  H   UNL     1      51.408   7.521  15.346  0.00  0.00    +0.000 HD
ENDBRANCH   7   8
ENDBRANCH   1   7
BRANCH   5  11
ATOM     11  C   UNL     1      46.416   4.215  13.535  0.00  0.00    +0.000 C 
BRANCH  11  12
ATOM     12  C   UNL     1      45.853   5.458  12.845  0.00  0.00    +0.000 C 
BRANCH  12  13
ATOM     13  C   UNL     1      44.544   5.145  12.115  0.00  0.00    +0.000 C 
BRANCH  13  14
ATOM     14  C   UNL     1      44.790   4.426  10.811  0.00  0.00    +0.000 A 
ATOM     15  C   UNL     1      45.456   5.064   9.756  0.00  0.00    +0.000 A 
ATOM     16  C   UNL     1      45.661   4.402   8.544  0.00  0.00    +0.000 A 
ATOM     17  C   UNL     1      45.200   3.100   8.372  0.00  0.00    +0.000 A 
ATOM     18  C   UNL     1      44.529   2.457   9.412  0.00  0.00    +0.000 A 
ATOM     19  C   UNL     1      44.323   3.118  10.626  0.00  0.00    +0.000 A 
ENDBRANCH  13  14
ENDBRANCH  12  13
ENDBRANCH  11  12
ENDBRANCH   5  11
TORSDOF 6
ENDMDL
MODEL 9
REMARK VINA RESULT:    -5.023      3.220      5.980
REMARK INTER + INTRA:          -7.220
REMARK INTER:                  -6.270
REMARK INTRA:                  -0.950
REMARK UNBOUND:                -0.582
REMARK  Name = 
REMARK  6 active torsions:
REMARK  status: ('A' for Active; 'I' for Inactive)
REMARK    1  A    between atoms: N_1  and  C_2
REMARK    2  A    between atoms: C_2  and  C_3
REMARK    3  A    between atoms: C_7  and  C_8
REMARK    4  A    between atoms: C_8  and  C_9
REMARK    5  A    between atoms: C_9  and  C_10
REMARK    6  A    between atoms: C_10  and  C_11
REMARK                            x       y       z     vdW  Elec       q    Type
REMARK                         _______ _______ _______ _____ _____    ______ ____
ROOT
ATOM      1  C   UNL     1      46.016   4.816  13.397  0.00  0.00    +0.000 A 
ATOM      2  C   UNL     1      45.476   3.815  12.588  0.00  0.00    +0.000 A 
ATOM      3  C   UNL     1      44.759   4.189  11.462  0.00  0.00    +0.000 A 
ATOM      4  N   UNL     1      44.551   5.470  11.090  0.00  0.00    +0.000 NA
ATOM      5  C   UNL     1      45.077   6.439  11.876  0.00  0.00    +0.000 A 
ATOM      6  C   UNL     1      45.802   6.151  13.032  0.00  0.00    +0.000 A 
ENDROOT
BRANCH   1   7
ATOM      7  C   UNL     1      46.828   4.475  14.618  0.00  0.00    +0.000 C 
BRANCH   7   8
ATOM      8  N   UNL     1      47.480   3.178  14.483  0.00  0.00    +0.000 NA
ATOM      9  H   UNL     1      47.804   2.871  15.398  0.00  0.00    +0.000 HD
ATOM     10  H   UNL     1      48.313   3.287  13.905  0.00  0.00    +0.000 HD
ENDBRANCH   7   8
ENDBRANCH   1   7
BRANCH   5  11
ATOM     11  C   UNL     1      44.835   7.868  11.461  0.00  0.00    +0.000 C 
BRANCH  11  12
ATOM     12  C   UNL     1      45.246   8.851  12.558  0.00  0.00    +0.000 C 
BRANCH  12  13
ATOM     13  C   UNL     1      46.483   9.656  12.151  0.00  0.00    +0.000 C 
BRANCH  13  14
ATOM     14  C   UNL     1      47.756   9.010  12.640  0.00  0.00    +0.000 A 
ATOM     15  C   UNL     1      48.585   8.305  11.757  0.00  0.00    +0.000 A 
ATOM     16  C   UNL     1      49.751   7.689  12.218  0.00  0.00    +0.000 A 
ATOM     17  C   UNL     1      50.097   7.769  13.565  0.00  0.00    +0.000 A 
ATOM     18  C   UNL     1      49.277   8.462  14.454  0.00  0.00    +0.000 A 
ATOM     19  C   UNL     1      48.110   9.078  13.994  0.00  0.00    +0.000 A 
ENDBRANCH  13  14
ENDBRANCH  12  13
ENDBRANCH  11  12
ENDBRANCH   5  11
TORSDOF 6
ENDMDL
