MODEL 1
REMARK VINA RESULT:    -8.794      0.000      0.000
REMARK INTER + INTRA:         -12.164
REMARK INTER:                 -11.364
REMARK INTRA:                  -0.800
REMARK UNBOUND:                -0.800
REMARK  Name = 
REMARK  6 active torsions:
REMARK  status: ('A' for Active; 'I' for Inactive)
REMARK    1  A    between atoms: C_1  and  C_2
REMARK    2  A    between atoms: N_6  and  C_7
REMARK    3  A    between atoms: C_7  and  C_8
REMARK    4  A    between atoms: C_8  and  C_11
REMARK    5  A    between atoms: C_15  and  O_16
REMARK    6  A    between atoms: O_16  and  C_17
REMARK                            x       y       z     vdW  Elec       q    Type
REMARK                         _______ _______ _______ _____ _____    ______ ____
ROOT
ATOM      1  C   UNL     1      43.527   5.556  11.950  0.00  0.00    +0.000 C 
ATOM      2  F   UNL     1      43.211   6.713  11.287  0.00  0.00    +0.000 F 
ATOM      3  F   UNL     1      42.544   5.412  12.892  0.00  0.00    +0.000 F 
ENDROOT
BRANCH   1   4
ATOM      4  C   UNL     1      44.898   5.627  12.593  0.00  0.00    +0.000 A 
ATOM      5  C   UNL     1      45.745   6.718  12.344  0.00  0.00    +0.000 A 
ATOM      6  C   UNL     1      47.007   6.785  12.938  0.00  0.00    +0.000 A 
ATOM      7  C   UNL     1      47.445   5.764  13.786  0.00  0.00    +0.000 A 
ATOM      8  C   UNL     1      46.618   4.672  14.036  0.00  0.00    +0.000 A 
ATOM      9  C   UNL     1      45.350   4.610  13.448  0.00  0.00    +0.000 A 
BRANCH   8  10
ATOM     10  O   UNL     1      46.921   3.626  14.870  0.00  0.00    +0.000 OA
BRANCH  10  11
ATOM     11  C   UNL     1      47.796   3.841  15.998  0.00  0.00    +0.000 C 
ATOM     12  C   UNL     1      48.498   2.597  16.601  0.00  0.00    +0.000 C 
ATOM     13  C   UNL     1      48.139   3.120  18.002  0.00  0.00    +0.000 C 
ATOM     14  C   UNL     1      47.044   3.974  17.349  0.00  0.00    +0.000 C 
ENDBRANCH  10  11
ENDBRANCH   8  10
ENDBRANCH   1   4
BRANCH   1  15
ATOM     15  C   UNL     1      43.427   4.386  10.936  0.00  0.00    +0.000 C 
BRANCH  15  21
ATOM     16  C   UNL     1      47.475   1.452   6.886  0.00  0.00    +0.000 C 
ATOM     17  C   UNL     1      46.541   2.325   7.649  0.00  0.00    +0.000 A 
ATOM     18  C   UNL     1      45.665   1.844   8.596  0.00  0.00    +0.000 A 
ATOM     19  N   UNL     1      44.796   2.618   9.276  0.00  0.00    +0.000 NA
ATOM     20  C   UNL     1      44.794   3.927   8.990  0.00  0.00    +0.000 A 
ATOM     21  N   UNL     1      43.887   4.772   9.598  0.00  0.00    +0.000 N 
ATOM     22  N   UNL     1      45.626   4.500   8.110  0.00  0.00    +0.000 NA
ATOM     23  C   UNL     1      46.476   3.684   7.452  0.00  0.00    +0.000 A 
ATOM     24  H   UNL     1      44.218   5.725   9.493  0.00  0.00    +0.000 HD
ENDBRANCH  15  21
ENDBRANCH   1  15
TORSDOF 5
ENDMDL
MODEL 2
REMARK VINA RESULT:    -7.952      1.919      3.621
REMARK INTER + INTRA:         -11.077
REMARK INTER:                 -10.192
REMARK INTRA:                  -0.885
REMARK UNBOUND:                -0.800
REMARK  Name = 
REMARK  6 active torsions:
REMARK  status: ('A' for Active; 'I' for Inactive)
REMARK    1  A    between atoms: C_1  and  C_2
REMARK    2  A    between atoms: N_6  and  C_7
REMARK    3  A    between atoms: C_7  and  C_8
REMARK    4  A    between atoms: C_8  and  C_11
REMARK    5  A    between atoms: C_15  and  O_16
REMARK    6  A    between atoms: O_16  and  C_17
REMARK                            x       y       z     vdW  Elec       q    Type
REMARK                         _______ _______ _______ _____ _____    ______ ____
ROOT
ATOM      1  C   UNL     1      43.510   5.526  11.915  0.00  0.00    +0.000 C 
ATOM      2  F   UNL     1      43.091   6.686  11.318  0.00  0.00    +0.000 F 
ATOM      3  F   UNL     1      42.633   5.325  12.946  0.00  0.00    +0.000 F 
ENDROOT
BRANCH   1   4
ATOM      4  C   UNL     1      44.937   5.631  12.419  0.00  0.00    +0.000 A 
ATOM      5  C   UNL     1      45.375   4.830  13.484  0.00  0.00    +0.000 A 
ATOM      6  C   UNL     1      46.689   4.924  13.947  0.00  0.00    +0.000 A 
ATOM      7  C   UNL     1      47.585   5.821  13.358  0.00  0.00    +0.000 A 
ATOM      8  C   UNL     1      47.161   6.627  12.304  0.00  0.00    +0.000 A 
ATOM      9  C   UNL     1      45.847   6.526  11.835  0.00  0.00    +0.000 A 
BRANCH   8  10
ATOM     10  O   UNL     1      47.951   7.520  11.627  0.00  0.00    +0.000 OA
BRANCH  10  11
ATOM     11  C   UNL     1      48.753   8.468  12.363  0.00  0.00    +0.000 C 
ATOM     12  C   UNL     1      48.004   9.514  13.228  0.00  0.00    +0.000 C 
ATOM     13  C   UNL     1      48.953  10.593  12.679  0.00  0.00    +0.000 C 
ATOM     14  C   UNL     1      49.256   9.656  11.501  0.00  0.00    +0.000 C 
ENDBRANCH  10  11
ENDBRANCH   8  10
ENDBRANCH   1   4
BRANCH   1  15
ATOM     15  C   UNL     1      43.348   4.377  10.886  0.00  0.00    +0.000 C 
BRANCH  15  21
ATOM     16  C   UNL     1      47.532   1.480   6.949  0.00  0.00    +0.000 C 
ATOM     17  C   UNL     1      46.566   2.342   7.684  0.00  0.00    +0.000 A 
ATOM     18  C   UNL     1      45.681   1.854   8.619  0.00  0.00    +0.000 A 
ATOM     19  N   UNL     1      44.783   2.618   9.273  0.00  0.00    +0.000 NA
ATOM     20  C   UNL     1      44.761   3.923   8.972  0.00  0.00    +0.000 A 
ATOM     21  N   UNL     1      43.824   4.756   9.552  0.00  0.00    +0.000 N 
ATOM     22  N   UNL     1      45.597   4.503   8.100  0.00  0.00    +0.000 NA
ATOM     23  C   UNL     1      46.476   3.697   7.468  0.00  0.00    +0.000 A 
ATOM     24  H   UNL     1      44.139   5.714   9.441  0.00  0.00    +0.000 HD
ENDBRANCH  15  21
ENDBRANCH   1  15
TORSDOF 5
ENDMDL
MODEL 3
REMARK VINA RESULT:    -7.800      3.202      7.568
REMARK INTER + INTRA:         -10.879
REMARK INTER:                 -10.393
REMARK INTRA:                  -0.486
REMARK UNBOUND:                -0.800
REMARK  Name = 
REMARK  6 active torsions:
REMARK  status: ('A' for Active; 'I' for Inactive)
REMARK    1  A    between atoms: C_1  and  C_2
REMARK    2  A    between atoms: N_6  and  C_7
REMARK    3  A    between atoms: C_7  and  C_8
REMARK    4  A    between atoms: C_8  and  C_11
REMARK    5  A    between atoms: C_15  and  O_16
REMARK    6  A    between atoms: O_16  and  C_17
REMARK                            x       y       z     vdW  Elec       q    Type
REMARK                         _______ _______ _______ _____ _____    ______ ____
ROOT
ATOM      1  C   UNL     1      45.977   6.099  12.128  0.00  0.00    +0.000 C 
ATOM      2  F   UNL     1      45.030   6.744  12.880  0.00  0.00    +0.000 F 
ATOM      3  F   UNL     1      46.593   7.090  11.413  0.00  0.00    +0.000 F 
ENDROOT
BRANCH   1   4
ATOM      4  C   UNL     1      45.361   5.061  11.210  0.00  0.00    +0.000 A 
ATOM      5  C   UNL     1      44.459   4.111  11.713  0.00  0.00    +0.000 A 
ATOM      6  C   UNL     1      43.890   3.156  10.868  0.00  0.00    +0.000 A 
ATOM      7  C   UNL     1      44.214   3.132   9.508  0.00  0.00    +0.000 A 
ATOM      8  C   UNL     1      45.113   4.064   8.997  0.00  0.00    +0.000 A 
ATOM      9  C   UNL     1      45.676   5.025   9.842  0.00  0.00    +0.000 A 
BRANCH   8  10
ATOM     10  O   UNL     1      45.486   4.161   7.681  0.00  0.00    +0.000 OA
BRANCH  10  11
ATOM     11  C   UNL     1      46.732   3.575   7.245  0.00  0.00    +0.000 C 
ATOM     12  C   UNL     1      46.841   3.164   5.754  0.00  0.00    +0.000 C 
ATOM     13  C   UNL     1      47.484   1.841   6.204  0.00  0.00    +0.000 C 
ATOM     14  C   UNL     1      46.861   2.067   7.589  0.00  0.00    +0.000 C 
ENDBRANCH  10  11
ENDBRANCH   8  10
ENDBRANCH   1   4
BRANCH   1  15
ATOM     15  C   UNL     1      47.006   5.466  13.101  0.00  0.00    +0.000 C 
BRANCH  15  21
ATOM     16  C   UNL     1      49.421   4.168  18.922  0.00  0.00    +0.000 C 
ATOM     17  C   UNL     1      48.646   4.354  17.664  0.00  0.00    +0.000 A 
ATOM     18  C   UNL     1      48.954   5.312  16.724  0.00  0.00    +0.000 A 
ATOM     19  N   UNL     1      48.246   5.508  15.594  0.00  0.00    +0.000 NA
ATOM     20  C   UNL     1      47.179   4.723  15.400  0.00  0.00    +0.000 A 
ATOM     21  N   UNL     1      46.368   4.910  14.298  0.00  0.00    +0.000 N 
ATOM     22  N   UNL     1      46.811   3.743  16.236  0.00  0.00    +0.000 NA
ATOM     23  C   UNL     1      47.549   3.585  17.355  0.00  0.00    +0.000 A 
ATOM     24  H   UNL     1      45.814   4.070  14.164  0.00  0.00    +0.000 HD
ENDBRANCH  15  21
ENDBRANCH   1  15
TORSDOF 5
ENDMDL
MODEL 4
REMARK VINA RESULT:    -7.394      2.888      4.968
REMARK INTER + INTRA:         -10.355
REMARK INTER:                  -9.623
REMARK INTRA:                  -0.732
REMARK UNBOUND:                -0.800
REMARK  Name = 
REMARK  6 active torsions:
REMARK  status: ('A' for Active; 'I' for Inactive)
REMARK    1  A    between atoms: C_1  and  C_2
REMARK    2  A    between atoms: N_6  and  C_7
REMARK    3  A    between atoms: C_7  and  C_8
REMARK    4  A    between atoms: C_8  and  C_11
REMARK    5  A    between atoms: C_15  and  O_16
REMARK    6  A    between atoms: O_16  and  C_17
REMARK                            x       y       z     vdW  Elec       q    Type
REMARK                         _______ _______ _______ _____ _____    ______ ____
ROOT
ATOM      1  C   UNL     1      43.465   4.881  12.359  0.00  0.00    +0.000 C 
ATOM      2  F   UNL     1      42.245   5.499  12.443  0.00  0.00    +0.000 F 
ATOM      3  F   UNL     1      43.580   4.173  13.526  0.00  0.00    +0.000 F 
ENDROOT
BRANCH   1   4
ATOM      4  C   UNL     1      44.597   5.877  12.206  0.00  0.00    +0.000 A 
ATOM      5  C   UNL     1      45.932   5.454  12.285  0.00  0.00    +0.000 A 
ATOM      6  C   UNL     1      46.976   6.371  12.142  0.00  0.00    +0.000 A 
ATOM      7  C   UNL     1      46.704   7.724  11.922  0.00  0.00    +0.000 A 
ATOM      8  C   UNL     1      45.383   8.159  11.849  0.00  0.00    +0.000 A 
ATOM      9  C   UNL     1      44.338   7.239  11.984  0.00  0.00    +0.000 A 
BRANCH   8  10
ATOM     10  O   UNL     1      44.989   9.451  11.608  0.00  0.00    +0.000 OA
BRANCH  10  11
ATOM     11  C   UNL     1      43.760   9.703  10.894  0.00  0.00    +0.000 C 
ATOM     12  C   UNL     1      43.868  10.418   9.523  0.00  0.00    +0.000 C 
ATOM     13  C   UNL     1      42.688  11.313   9.938  0.00  0.00    +0.000 C 
ATOM     14  C   UNL     1      42.996  10.956  11.399  0.00  0.00    +0.000 C 
ENDBRANCH  10  11
ENDBRANCH   8  10
ENDBRANCH   1   4
BRANCH   1  15
ATOM     15  C   UNL     1      43.411   3.885  11.171  0.00  0.00    +0.000 C 
BRANCH  15  21
ATOM     16  C   UNL     1      47.500   1.865   6.631  0.00  0.00    +0.000 C 
ATOM     17  C   UNL     1      46.543   2.552   7.542  0.00  0.00    +0.000 A 
ATOM     18  C   UNL     1      45.713   1.878   8.410  0.00  0.00    +0.000 A 
ATOM     19  N   UNL     1      44.824   2.485   9.221  0.00  0.00    +0.000 NA
ATOM     20  C   UNL     1      44.753   3.822   9.155  0.00  0.00    +0.000 A 
ATOM     21  N   UNL     1      43.820   4.507   9.907  0.00  0.00    +0.000 N 
ATOM     22  N   UNL     1      45.536   4.572   8.369  0.00  0.00    +0.000 NA
ATOM     23  C   UNL     1      46.408   3.920   7.572  0.00  0.00    +0.000 A 
ATOM     24  H   UNL     1      44.104   5.480   9.956  0.00  0.00    +0.000 HD
ENDBRANCH  15  21
ENDBRANCH   1  15
TORSDOF 5
ENDMDL
MODEL 5
REMARK VINA RESULT:    -7.352      3.175      7.322
REMARK INTER + INTRA:         -10.301
REMARK INTER:                  -9.700
REMARK INTRA:                  -0.600
REMARK UNBOUND:                -0.800
REMARK  Name = 
REMARK  6 active torsions:
REMARK  status: ('A' for Active; 'I' for Inactive)
REMARK    1  A    between atoms: C_1  and  C_2
REMARK    2  A    between atoms: N_6  and  C_7
REMARK    3  A    between atoms: C_7  and  C_8
REMARK    4  A    between atoms: C_8  and  C_11
REMARK    5  A    between atoms: C_15  and  O_16
REMARK    6  A    between atoms: O_16  and  C_17
REMARK                            x       y       z     vdW  Elec       q    Type
REMARK                         _______ _______ _______ _____ _____    ______ ____
ROOT
ATOM      1  C   UNL     1      46.503   6.449  12.414  0.00  0.00    +0.000 C 
ATOM      2  F   UNL     1      46.183   7.636  13.020  0.00  0.00    +0.000 F 
ATOM      3  F   UNL     1      47.207   6.806  11.295  0.00  0.00    +0.000 F 
ENDROOT
BRANCH   1   4
ATOM      4  C   UNL     1      45.269   5.645  12.054  0.00  0.00    +0.000 A 
ATOM      5  C   UNL     1      44.067   5.836  12.752  0.00  0.00    +0.000 A 
ATOM      6  C   UNL     1      42.930   5.097  12.419  0.00  0.00    +0.000 A 
ATOM      7  C   UNL     1      42.975   4.154  11.388  0.00  0.00    +0.000 A 
ATOM      8  C   UNL     1      44.163   3.949  10.692  0.00  0.00    +0.000 A 
ATOM      9  C   UNL     1      45.300   4.696  11.020  0.00  0.00    +0.000 A 
BRANCH   8  10
ATOM     10  O   UNL     1      44.325   3.078   9.645  0.00  0.00    +0.000 OA
BRANCH  10  11
ATOM     11  C   UNL     1      45.602   2.990   8.978  0.00  0.00    +0.000 C 
ATOM     12  C   UNL     1      45.680   3.511   7.520  0.00  0.00    +0.000 C 
ATOM     13  C   UNL     1      46.481   2.251   7.151  0.00  0.00    +0.000 C 
ATOM     14  C   UNL     1      45.907   1.580   8.407  0.00  0.00    +0.000 C 
ENDBRANCH  10  11
ENDBRANCH   8  10
ENDBRANCH   1   4
BRANCH   1  15
ATOM     15  C   UNL     1      47.441   5.666  13.369  0.00  0.00    +0.000 C 
BRANCH  15  21
ATOM     16  C   UNL     1      49.128   4.010  19.354  0.00  0.00    +0.000 C 
ATOM     17  C   UNL     1      48.523   4.253  18.015  0.00  0.00    +0.000 A 
ATOM     18  C   UNL     1      48.866   5.320  17.216  0.00  0.00    +0.000 A 
ATOM     19  N   UNL     1      48.308   5.567  16.014  0.00  0.00    +0.000 NA
ATOM     20  C   UNL     1      47.360   4.718  15.597  0.00  0.00    +0.000 A 
ATOM     21  N   UNL     1      46.698   4.943  14.406  0.00  0.00    +0.000 N 
ATOM     22  N   UNL     1      46.976   3.633  16.282  0.00  0.00    +0.000 NA
ATOM     23  C   UNL     1      47.560   3.429  17.482  0.00  0.00    +0.000 A 
ATOM     24  H   UNL     1      46.252   4.078  14.121  0.00  0.00    +0.000 HD
ENDBRANCH  15  21
ENDBRANCH   1  15
TORSDOF 5
ENDMDL
MODEL 6
REMARK VINA RESULT:    -6.980      3.543      7.612
REMARK INTER + INTRA:          -9.821
REMARK INTER:                  -9.325
REMARK INTRA:                  -0.495
REMARK UNBOUND:                -0.800
REMARK  Name = 
REMARK  6 active torsions:
REMARK  status: ('A' for Active; 'I' for Inactive)
REMARK    1  A    between atoms: C_1  and  C_2
REMARK    2  A    between atoms: N_6  and  C_7
REMARK    3  A    between atoms: C_7  and  C_8
REMARK    4  A    between atoms: C_8  and  C_11
REMARK    5  A    between atoms: C_15  and  O_16
REMARK    6  A    between atoms: O_16  and  C_17
REMARK                            x       y       z     vdW  Elec       q    Type
REMARK                         _______ _______ _______ _____ _____    ______ ____
ROOT
ATOM      1  C   UNL     1      46.270   6.648  12.424  0.00  0.00    +0.000 C 
ATOM      2  F   UNL     1      45.525   7.662  12.966  0.00  0.00    +0.000 F 
ATOM      3  F   UNL     1      47.296   7.276  11.770  0.00  0.00    +0.000 F 
ENDROOT
BRANCH   1   4
ATOM      4  C   UNL     1      45.456   5.791  11.473  0.00  0.00    +0.000 A 
ATOM      5  C   UNL     1      44.233   5.239  11.883  0.00  0.00    +0.000 A 
ATOM      6  C   UNL     1      43.482   4.453  11.007  0.00  0.00    +0.000 A 
ATOM      7  C   UNL     1      43.940   4.201   9.711  0.00  0.00    +0.000 A 
ATOM      8  C   UNL     1      45.156   4.737   9.294  0.00  0.00    +0.000 A 
ATOM      9  C   UNL     1      45.904   5.532  10.168  0.00  0.00    +0.000 A 
BRANCH   8  10
ATOM     10  O   UNL     1      45.696   4.587   8.042  0.00  0.00    +0.000 OA
BRANCH  10  11
ATOM     11  C   UNL     1      45.750   3.277   7.437  0.00  0.00    +0.000 C 
ATOM     12  C   UNL     1      46.057   2.077   8.368  0.00  0.00    +0.000 C 
ATOM     13  C   UNL     1      47.040   1.553   7.307  0.00  0.00    +0.000 C 
ATOM     14  C   UNL     1      47.098   2.975   6.732  0.00  0.00    +0.000 C 
ENDBRANCH  10  11
ENDBRANCH   8  10
ENDBRANCH   1   4
BRANCH   1  15
ATOM     15  C   UNL     1      46.856   5.812  13.592  0.00  0.00    +0.000 C 
BRANCH  15  21
ATOM     16  C   UNL     1      49.567   4.640  19.308  0.00  0.00    +0.000 C 
ATOM     17  C   UNL     1      49.080   5.130  17.989  0.00  0.00    +0.000 A 
ATOM     18  C   UNL     1      48.548   4.301  17.027  0.00  0.00    +0.000 A 
ATOM     19  N   UNL     1      48.127   4.727  15.819  0.00  0.00    +0.000 NA
ATOM     20  C   UNL     1      48.254   6.035  15.557  0.00  0.00    +0.000 A 
ATOM     21  N   UNL     1      47.907   6.533  14.317  0.00  0.00    +0.000 N 
ATOM     22  N   UNL     1      48.730   6.929  16.433  0.00  0.00    +0.000 NA
ATOM     23  C   UNL     1      49.142   6.456  17.628  0.00  0.00    +0.000 A 
ATOM     24  H   UNL     1      47.789   7.538  14.399  0.00  0.00    +0.000 HD
ENDBRANCH  15  21
ENDBRANCH   1  15
TORSDOF 5
ENDMDL
MODEL 7
REMARK VINA RESULT:    -6.864      1.781      2.282
REMARK INTER + INTRA:          -9.670
REMARK INTER:                  -8.852
REMARK INTRA:                  -0.818
REMARK UNBOUND:                -0.800
REMARK  Name = 
REMARK  6 active torsions:
REMARK  status: ('A' for Active; 'I' for Inactive)
REMARK    1  A    between atoms: C_1  and  C_2
REMARK    2  A    between atoms: N_6  and  C_7
REMARK    3  A    between atoms: C_7  and  C_8
REMARK    4  A    between atoms: C_8  and  C_11
REMARK    5  A    between atoms: C_15  and  O_16
REMARK    6  A    between atoms: O_16  and  C_17
REMARK                            x       y       z     vdW  Elec       q    Type
REMARK                         _______ _______ _______ _____ _____    ______ ____
ROOT
ATOM      1  C   UNL     1      44.442   5.831  11.573  0.00  0.00    +0.000 C 
ATOM      2  F   UNL     1      44.933   6.788  10.725  0.00  0.00    +0.000 F 
ATOM      3  F   UNL     1      43.463   6.465  12.290  0.00  0.00    +0.000 F 
ENDROOT
BRANCH   1   4
ATOM      4  C   UNL     1      45.518   5.275  12.485  0.00  0.00    +0.000 A 
ATOM      5  C   UNL     1      45.616   3.894  12.711  0.00  0.00    +0.000 A 
ATOM      6  C   UNL     1      46.609   3.381  13.549  0.00  0.00    +0.000 A 
ATOM      7  C   UNL     1      47.516   4.239  14.178  0.00  0.00    +0.000 A 
ATOM      8  C   UNL     1      47.426   5.613  13.969  0.00  0.00    +0.000 A 
ATOM      9  C   UNL     1      46.437   6.124  13.122  0.00  0.00    +0.000 A 
BRANCH   8  10
ATOM     10  O   UNL     1      48.272   6.550  14.503  0.00  0.00    +0.000 OA
BRANCH  10  11
ATOM     11  C   UNL     1      48.551   6.538  15.920  0.00  0.00    +0.000 C 
ATOM     12  C   UNL     1      48.727   7.909  16.621  0.00  0.00    +0.000 C 
ATOM     13  C   UNL     1      49.955   7.337  17.349  0.00  0.00    +0.000 C 
ATOM     14  C   UNL     1      50.040   6.262  16.256  0.00  0.00    +0.000 C 
ENDBRANCH  10  11
ENDBRANCH   8  10
ENDBRANCH   1   4
BRANCH   1  15
ATOM     15  C   UNL     1      43.791   4.719  10.709  0.00  0.00    +0.000 C 
BRANCH  15  21
ATOM     16  C   UNL     1      47.461   1.096   6.861  0.00  0.00    +0.000 C 
ATOM     17  C   UNL     1      46.596   2.095   7.547  0.00  0.00    +0.000 A 
ATOM     18  C   UNL     1      45.819   1.792   8.643  0.00  0.00    +0.000 A 
ATOM     19  N   UNL     1      45.012   2.679   9.258  0.00  0.00    +0.000 NA
ATOM     20  C   UNL     1      44.970   3.919   8.750  0.00  0.00    +0.000 A 
ATOM     21  N   UNL     1      44.116   4.862   9.286  0.00  0.00    +0.000 N 
ATOM     22  N   UNL     1      45.707   4.323   7.708  0.00  0.00    +0.000 NA
ATOM     23  C   UNL     1      46.498   3.399   7.123  0.00  0.00    +0.000 A 
ATOM     24  H   UNL     1      44.427   5.780   8.985  0.00  0.00    +0.000 HD
ENDBRANCH  15  21
ENDBRANCH   1  15
TORSDOF 5
ENDMDL
MODEL 8
REMARK VINA RESULT:    -6.605      3.456      7.024
REMARK INTER + INTRA:          -9.335
REMARK INTER:                  -8.479
REMARK INTRA:                  -0.856
REMARK UNBOUND:                -0.800
REMARK  Name = 
REMARK  6 active torsions:
REMARK  status: ('A' for Active; 'I' for Inactive)
REMARK    1  A    between atoms: C_1  and  C_2
REMARK    2  A    between atoms: N_6  and  C_7
REMARK    3  A    between atoms: C_7  and  C_8
REMARK    4  A    between atoms: C_8  and  C_11
REMARK    5  A    between atoms: C_15  and  O_16
REMARK    6  A    between atoms: O_16  and  C_17
REMARK                            x       y       z     vdW  Elec       q    Type
REMARK                         _______ _______ _______ _____ _____    ______ ____
ROOT
ATOM      1  C   UNL     1      46.052   5.489  12.696  0.00  0.00    +0.000 C 
ATOM      2  F   UNL     1      47.008   4.837  13.429  0.00  0.00    +0.000 F 
ATOM      3  F   UNL     1      45.215   6.045  13.626  0.00  0.00    +0.000 F 
ENDROOT
BRANCH   1   4
ATOM      4  C   UNL     1      45.301   4.546  11.775  0.00  0.00    +0.000 A 
ATOM      5  C   UNL     1      44.375   3.631  12.297  0.00  0.00    +0.000 A 
ATOM      6  C   UNL     1      43.682   2.764  11.449  0.00  0.00    +0.000 A 
ATOM      7  C   UNL     1      43.905   2.793  10.070  0.00  0.00    +0.000 A 
ATOM      8  C   UNL     1      44.828   3.692   9.540  0.00  0.00    +0.000 A 
ATOM      9  C   UNL     1      45.515   4.566  10.388  0.00  0.00    +0.000 A 
BRANCH   8  10
ATOM     10  O   UNL     1      45.112   3.837   8.206  0.00  0.00    +0.000 OA
BRANCH  10  11
ATOM     11  C   UNL     1      46.399   3.425   7.699  0.00  0.00    +0.000 C 
ATOM     12  C   UNL     1      46.574   3.371   6.160  0.00  0.00    +0.000 C 
ATOM     13  C   UNL     1      47.275   2.012   6.324  0.00  0.00    +0.000 C 
ATOM     14  C   UNL     1      46.601   1.886   7.697  0.00  0.00    +0.000 C 
ENDBRANCH  10  11
ENDBRANCH   8  10
ENDBRANCH   1   4
BRANCH   1  15
ATOM     15  C   UNL     1      46.752   6.627  11.906  0.00  0.00    +0.000 C 
BRANCH  15  21
ATOM     16  C   UNL     1      42.826  11.516  10.463  0.00  0.00    +0.000 C 
ATOM     17  C   UNL     1      43.834  10.547  10.974  0.00  0.00    +0.000 A 
ATOM     18  C   UNL     1      43.711   9.184  10.828  0.00  0.00    +0.000 A 
ATOM     19  N   UNL     1      44.603   8.294  11.308  0.00  0.00    +0.000 NA
ATOM     20  C   UNL     1      45.658   8.787  11.971  0.00  0.00    +0.000 A 
ATOM     21  N   UNL     1      46.578   7.934  12.548  0.00  0.00    +0.000 N 
ATOM     22  N   UNL     1      45.887  10.095  12.142  0.00  0.00    +0.000 NA
ATOM     23  C   UNL     1      44.965  10.948  11.647  0.00  0.00    +0.000 A 
ATOM     24  H   UNL     1      47.425   8.460  12.735  0.00  0.00    +0.000 HD
ENDBRANCH  15  21
ENDBRANCH   1  15
TORSDOF 5
ENDMDL
MODEL 9
REMARK VINA RESULT:    -6.548      2.726      3.846
REMARK INTER + INTRA:          -9.262
REMARK INTER:                  -8.542
REMARK INTRA:                  -0.720
REMARK UNBOUND:                -0.800
REMARK  Name = 
REMARK  6 active torsions:
REMARK  status: ('A' for Active; 'I' for Inactive)
REMARK    1  A    between atoms: C_1  and  C_2
REMARK    2  A    between atoms: N_6  and  C_7
REMARK    3  A    between atoms: C_7  and  C_8
REMARK    4  A    between atoms: C_8  and  C_11
REMARK    5  A    between atoms: C_15  and  O_16
REMARK    6  A    between atoms: O_16  and  C_17
REMARK                            x       y       z     vdW  Elec       q    Type
REMARK                         _______ _______ _______ _____ _____    ______ ____
ROOT
ATOM      1  C   UNL     1      44.706   5.271  12.791  0.00  0.00    +0.000 C 
ATOM      2  F   UNL     1      43.393   5.652  12.880  0.00  0.00    +0.000 F 
ATOM      3  F   UNL     1      44.973   4.651  13.983  0.00  0.00    +0.000 F 
ENDROOT
BRANCH   1   4
ATOM      4  C   UNL     1      45.628   6.455  12.570  0.00  0.00    +0.000 A 
ATOM      5  C   UNL     1      45.108   7.756  12.498  0.00  0.00    +0.000 A 
ATOM      6  C   UNL     1      45.956   8.847  12.296  0.00  0.00    +0.000 A 
ATOM      7  C   UNL     1      47.334   8.657  12.159  0.00  0.00    +0.000 A 
ATOM      8  C   UNL     1      47.862   7.370  12.220  0.00  0.00    +0.000 A 
ATOM      9  C   UNL     1      47.013   6.278  12.431  0.00  0.00    +0.000 A 
BRANCH   8  10
ATOM     10  O   UNL     1      49.194   7.058  12.130  0.00  0.00    +0.000 OA
BRANCH  10  11
ATOM     11  C   UNL     1      50.118   8.018  11.574  0.00  0.00    +0.000 C 
ATOM     12  C   UNL     1      51.296   7.467  10.731  0.00  0.00    +0.000 C 
ATOM     13  C   UNL     1      52.233   8.433  11.475  0.00  0.00    +0.000 C 
ATOM     14  C   UNL     1      51.181   8.516  12.590  0.00  0.00    +0.000 C 
ENDBRANCH  10  11
ENDBRANCH   8  10
ENDBRANCH   1   4
BRANCH   1  15
ATOM     15  C   UNL     1      44.822   4.230  11.647  0.00  0.00    +0.000 C 
BRANCH  15  21
ATOM     16  C   UNL     1      47.044   2.082   6.003  0.00  0.00    +0.000 C 
ATOM     17  C   UNL     1      46.490   2.803   7.182  0.00  0.00    +0.000 A 
ATOM     18  C   UNL     1      45.943   2.160   8.270  0.00  0.00    +0.000 A 
ATOM     19  N   UNL     1      45.415   2.800   9.332  0.00  0.00    +0.000 NA
ATOM     20  C   UNL     1      45.422   4.139   9.302  0.00  0.00    +0.000 A 
ATOM     21  N   UNL     1      44.839   4.862  10.323  0.00  0.00    +0.000 N 
ATOM     22  N   UNL     1      45.956   4.860   8.307  0.00  0.00    +0.000 NA
ATOM     23  C   UNL     1      46.471   4.176   7.264  0.00  0.00    +0.000 A 
ATOM     24  H   UNL     1      45.192   5.812  10.283  0.00  0.00    +0.000 HD
ENDBRANCH  15  21
ENDBRANCH   1  15
TORSDOF 5
ENDMDL
