MODEL 1
REMARK VINA RESULT:    -7.578      0.000      0.000
REMARK INTER + INTRA:          -9.830
REMARK INTER:                  -9.350
REMARK INTRA:                  -0.480
REMARK UNBOUND:                -0.480
REMARK  Name = 
REMARK  4 active torsions:
REMARK  status: ('A' for Active; 'I' for Inactive)
REMARK    1  A    between atoms: C_2  and  C_5
REMARK    2  A    between atoms: C_7  and  N_8
REMARK    3  A    between atoms: N_8  and  C_9
REMARK    4  A    between atoms: C_9  and  C_10
REMARK                            x       y       z     vdW  Elec       q    Type
REMARK                         _______ _______ _______ _____ _____    ______ ____
ROOT
ATOM      1  C   UNL     1      46.993   6.341  12.830  0.00  0.00    +0.000 A 
ATOM      2  C   UNL     1      46.067   5.462  12.278  0.00  0.00    +0.000 A 
ATOM      3  C   UNL     1      45.709   4.317  12.978  0.00  0.00    +0.000 A 
ATOM      4  N   UNL     1      46.264   4.019  14.172  0.00  0.00    +0.000 NA
ATOM      5  C   UNL     1      47.191   4.844  14.716  0.00  0.00    +0.000 A 
ATOM      6  N   UNL     1      47.780   4.495  15.910  0.00  0.00    +0.000 N 
ATOM      7  C   UNL     1      47.918   3.082  16.278  0.00  0.00    +0.000 C 
ATOM      8  C   UNL     1      47.335   2.815  17.681  0.00  0.00    +0.000 C 
ATOM      9  N   UNL     1      47.841   3.736  18.725  0.00  0.00    +0.000 NA
ATOM     10  C   UNL     1      47.563   5.122  18.295  0.00  0.00    +0.000 C 
ATOM     11  C   UNL     1      48.170   5.481  16.919  0.00  0.00    +0.000 C 
ATOM     12  C   UNL     1      47.558   6.014  14.062  0.00  0.00    +0.000 A 
ATOM     13  H   UNL     1      48.852   3.620  18.783  0.00  0.00    +0.000 HD
ENDROOT
BRANCH   1  15
ATOM     14  F   UNL     1      46.325   8.362  11.726  0.00  0.00    +0.000 F 
ATOM     15  C   UNL     1      47.385   7.616  12.146  0.00  0.00    +0.000 C 
ATOM     16  F   UNL     1      48.150   7.400  11.040  0.00  0.00    +0.000 F 
ATOM     17  F   UNL     1      48.120   8.433  12.951  0.00  0.00    +0.000 F 
ENDBRANCH   1  15
BRANCH   3  18
ATOM     18  N   UNL     1      44.712   3.518  12.423  0.00  0.00    +0.000 N 
ATOM     19  H   UNL     1      44.096   3.107  13.109  0.00  0.00    +0.000 HD
BRANCH  18  20
ATOM     20  C   UNL     1      44.096   3.918  11.172  0.00  0.00    +0.000 C 
BRANCH  20  21
ATOM     21  C   UNL     1      44.755   3.441   9.901  0.00  0.00    +0.000 A 
ATOM     22  C   UNL     1      45.250   4.407   9.012  0.00  0.00    +0.000 A 
ATOM     23  C   UNL     1      45.936   4.000   7.878  0.00  0.00    +0.000 A 
ATOM     24  N   UNL     1      46.168   2.709   7.572  0.00  0.00    +0.000 NA
ATOM     25  C   UNL     1      45.694   1.789   8.442  0.00  0.00    +0.000 A 
ATOM     26  C   UNL     1      44.999   2.100   9.603  0.00  0.00    +0.000 A 
ENDBRANCH  20  21
ENDBRANCH  18  20
ENDBRANCH   3  18
TORSDOF 4
ENDMDL
MODEL 2
REMARK VINA RESULT:    -7.493      3.425      5.292
REMARK INTER + INTRA:          -9.726
REMARK INTER:                  -9.098
REMARK INTRA:                  -0.627
REMARK UNBOUND:                -0.480
REMARK  Name = 
REMARK  4 active torsions:
REMARK  status: ('A' for Active; 'I' for Inactive)
REMARK    1  A    between atoms: C_2  and  C_5
REMARK    2  A    between atoms: C_7  and  N_8
REMARK    3  A    between atoms: N_8  and  C_9
REMARK    4  A    between atoms: C_9  and  C_10
REMARK                            x       y       z     vdW  Elec       q    Type
REMARK                         _______ _______ _______ _____ _____    ______ ____
ROOT
ATOM      1  C   UNL     1      45.969   5.300  12.700  0.00  0.00    +0.000 A 
ATOM      2  C   UNL     1      45.397   4.623  11.627  0.00  0.00    +0.000 A 
ATOM      3  C   UNL     1      44.744   5.343  10.634  0.00  0.00    +0.000 A 
ATOM      4  N   UNL     1      44.623   6.685  10.701  0.00  0.00    +0.000 NA
ATOM      5  C   UNL     1      45.145   7.364  11.751  0.00  0.00    +0.000 A 
ATOM      6  N   UNL     1      44.966   8.727  11.825  0.00  0.00    +0.000 N 
ATOM      7  C   UNL     1      43.789   9.349  11.210  0.00  0.00    +0.000 C 
ATOM      8  C   UNL     1      44.197  10.499  10.267  0.00  0.00    +0.000 C 
ATOM      9  N   UNL     1      45.115  11.483  10.885  0.00  0.00    +0.000 NA
ATOM     10  C   UNL     1      46.304  10.761  11.381  0.00  0.00    +0.000 C 
ATOM     11  C   UNL     1      45.974   9.630  12.381  0.00  0.00    +0.000 C 
ATOM     12  C   UNL     1      45.830   6.687  12.753  0.00  0.00    +0.000 A 
ATOM     13  H   UNL     1      44.639  11.895  11.687  0.00  0.00    +0.000 HD
ENDROOT
BRANCH   1  15
ATOM     14  F   UNL     1      47.071   3.308  13.452  0.00  0.00    +0.000 F 
ATOM     15  C   UNL     1      46.727   4.585  13.778  0.00  0.00    +0.000 C 
ATOM     16  F   UNL     1      46.023   4.497  14.939  0.00  0.00    +0.000 F 
ATOM     17  F   UNL     1      47.892   5.215  14.098  0.00  0.00    +0.000 F 
ENDBRANCH   1  15
BRANCH   3  18
ATOM     18  N   UNL     1      44.268   4.626   9.538  0.00  0.00    +0.000 N 
ATOM     19  H   UNL     1      44.343   5.128   8.665  0.00  0.00    +0.000 HD
BRANCH  18  20
ATOM     20  C   UNL     1      44.498   3.195   9.472  0.00  0.00    +0.000 C 
BRANCH  20  21
ATOM     21  C   UNL     1      45.501   2.709   8.456  0.00  0.00    +0.000 A 
ATOM     22  C   UNL     1      46.075   3.652   7.592  0.00  0.00    +0.000 A 
ATOM     23  C   UNL     1      47.062   3.250   6.705  0.00  0.00    +0.000 A 
ATOM     24  N   UNL     1      47.519   1.986   6.623  0.00  0.00    +0.000 NA
ATOM     25  C   UNL     1      46.965   1.089   7.468  0.00  0.00    +0.000 A 
ATOM     26  C   UNL     1      45.974   1.397   8.391  0.00  0.00    +0.000 A 
ENDBRANCH  20  21
ENDBRANCH  18  20
ENDBRANCH   3  18
TORSDOF 4
ENDMDL
MODEL 3
REMARK VINA RESULT:    -7.106      1.597      6.858
REMARK INTER + INTRA:          -9.248
REMARK INTER:                  -8.659
REMARK INTRA:                  -0.589
REMARK UNBOUND:                -0.480
REMARK  Name = 
REMARK  4 active torsions:
REMARK  status: ('A' for Active; 'I' for Inactive)
REMARK    1  A    between atoms: C_2  and  C_5
REMARK    2  A    between atoms: C_7  and  N_8
REMARK    3  A    between atoms: N_8  and  C_9
REMARK    4  A    between atoms: C_9  and  C_10
REMARK                            x       y       z     vdW  Elec       q    Type
REMARK                         _______ _______ _______ _____ _____    ______ ____
ROOT
ATOM      1  C   UNL     1      47.095   6.659  13.138  0.00  0.00    +0.000 A 
ATOM      2  C   UNL     1      47.288   5.710  14.137  0.00  0.00    +0.000 A 
ATOM      3  C   UNL     1      46.795   4.423  13.962  0.00  0.00    +0.000 A 
ATOM      4  N   UNL     1      46.102   4.078  12.857  0.00  0.00    +0.000 NA
ATOM      5  C   UNL     1      45.874   4.993  11.884  0.00  0.00    +0.000 A 
ATOM      6  N   UNL     1      45.122   4.633  10.788  0.00  0.00    +0.000 N 
ATOM      7  C   UNL     1      44.098   3.590  10.908  0.00  0.00    +0.000 C 
ATOM      8  C   UNL     1      44.289   2.499   9.835  0.00  0.00    +0.000 C 
ATOM      9  N   UNL     1      44.415   3.029   8.458  0.00  0.00    +0.000 NA
ATOM     10  C   UNL     1      45.534   3.994   8.433  0.00  0.00    +0.000 C 
ATOM     11  C   UNL     1      45.381   5.152   9.444  0.00  0.00    +0.000 C 
ATOM     12  C   UNL     1      46.373   6.284  12.005  0.00  0.00    +0.000 A 
ATOM     13  H   UNL     1      43.558   3.535   8.236  0.00  0.00    +0.000 HD
ENDROOT
BRANCH   1  15
ATOM     14  F   UNL     1      49.004   8.104  13.250  0.00  0.00    +0.000 F 
ATOM     15  C   UNL     1      47.643   8.050  13.245  0.00  0.00    +0.000 C 
ATOM     16  F   UNL     1      47.241   8.681  14.383  0.00  0.00    +0.000 F 
ATOM     17  F   UNL     1      47.242   8.847  12.217  0.00  0.00    +0.000 F 
ENDBRANCH   1  15
BRANCH   3  18
ATOM     18  N   UNL     1      47.094   3.488  14.952  0.00  0.00    +0.000 N 
ATOM     19  H   UNL     1      47.683   2.734  14.628  0.00  0.00    +0.000 HD
BRANCH  18  20
ATOM     20  C   UNL     1      47.327   3.942  16.309  0.00  0.00    +0.000 C 
BRANCH  20  21
ATOM     21  C   UNL     1      48.698   3.694  16.889  0.00  0.00    +0.000 A 
ATOM     22  C   UNL     1      49.198   2.385  16.863  0.00  0.00    +0.000 A 
ATOM     23  C   UNL     1      50.488   2.141  17.310  0.00  0.00    +0.000 A 
ATOM     24  N   UNL     1      51.311   3.102  17.770  0.00  0.00    +0.000 NA
ATOM     25  C   UNL     1      50.820   4.362  17.780  0.00  0.00    +0.000 A 
ATOM     26  C   UNL     1      49.544   4.704  17.351  0.00  0.00    +0.000 A 
ENDBRANCH  20  21
ENDBRANCH  18  20
ENDBRANCH   3  18
TORSDOF 4
ENDMDL
MODEL 4
REMARK VINA RESULT:    -6.996      3.130      6.840
REMARK INTER + INTRA:          -9.113
REMARK INTER:                  -8.652
REMARK INTRA:                  -0.461
REMARK UNBOUND:                -0.480
REMARK  Name = 
REMARK  4 active torsions:
REMARK  status: ('A' for Active; 'I' for Inactive)
REMARK    1  A    between atoms: C_2  and  C_5
REMARK    2  A    between atoms: C_7  and  N_8
REMARK    3  A    between atoms: N_8  and  C_9
REMARK    4  A    between atoms: C_9  and  C_10
REMARK                            x       y       z     vdW  Elec       q    Type
REMARK                         _______ _______ _______ _____ _____    ______ ____
ROOT
ATOM      1  C   UNL     1      45.013   3.897  11.625  0.00  0.00    +0.000 A 
ATOM      2  C   UNL     1      45.712   3.235  12.630  0.00  0.00    +0.000 A 
ATOM      3  C   UNL     1      46.583   3.950  13.443  0.00  0.00    +0.000 A 
ATOM      4  N   UNL     1      46.792   5.271  13.261  0.00  0.00    +0.000 NA
ATOM      5  C   UNL     1      46.147   5.931  12.270  0.00  0.00    +0.000 A 
ATOM      6  N   UNL     1      46.414   7.267  12.070  0.00  0.00    +0.000 N 
ATOM      7  C   UNL     1      47.725   7.817  12.428  0.00  0.00    +0.000 C 
ATOM      8  C   UNL     1      47.577   9.051  13.342  0.00  0.00    +0.000 C 
ATOM      9  N   UNL     1      46.643  10.075  12.821  0.00  0.00    +0.000 NA
ATOM     10  C   UNL     1      45.334   9.433  12.589  0.00  0.00    +0.000 C 
ATOM     11  C   UNL     1      45.395   8.222  11.630  0.00  0.00    +0.000 C 
ATOM     12  C   UNL     1      45.247   5.261  11.450  0.00  0.00    +0.000 A 
ATOM     13  H   UNL     1      47.001  10.397  11.922  0.00  0.00    +0.000 HD
ENDROOT
BRANCH   1  15
ATOM     14  F   UNL     1      43.056   2.525  11.435  0.00  0.00    +0.000 F 
ATOM     15  C   UNL     1      44.025   3.191  10.747  0.00  0.00    +0.000 C 
ATOM     16  F   UNL     1      44.613   2.265   9.941  0.00  0.00    +0.000 F 
ATOM     17  F   UNL     1      43.369   4.045   9.912  0.00  0.00    +0.000 F 
ENDBRANCH   1  15
BRANCH   3  18
ATOM     18  N   UNL     1      47.187   3.258  14.490  0.00  0.00    +0.000 N 
ATOM     19  H   UNL     1      48.000   2.728  14.207  0.00  0.00    +0.000 HD
BRANCH  18  20
ATOM     20  C   UNL     1      47.252   3.870  15.803  0.00  0.00    +0.000 C 
BRANCH  20  21
ATOM     21  C   UNL     1      48.520   3.662  16.595  0.00  0.00    +0.000 A 
ATOM     22  C   UNL     1      49.079   2.376  16.619  0.00  0.00    +0.000 A 
ATOM     23  C   UNL     1      50.288   2.172  17.267  0.00  0.00    +0.000 A 
ATOM     24  N   UNL     1      50.978   3.152  17.880  0.00  0.00    +0.000 NA
ATOM     25  C   UNL     1      50.434   4.388  17.841  0.00  0.00    +0.000 A 
ATOM     26  C   UNL     1      49.231   4.691  17.215  0.00  0.00    +0.000 A 
ENDBRANCH  20  21
ENDBRANCH  18  20
ENDBRANCH   3  18
TORSDOF 4
ENDMDL
MODEL 5
REMARK VINA RESULT:    -6.607      1.874      7.086
REMARK INTER + INTRA:          -8.633
REMARK INTER:                  -8.073
REMARK INTRA:                  -0.559
REMARK UNBOUND:                -0.480
REMARK  Name = 
REMARK  4 active torsions:
REMARK  status: ('A' for Active; 'I' for Inactive)
REMARK    1  A    between atoms: C_2  and  C_5
REMARK    2  A    between atoms: C_7  and  N_8
REMARK    3  A    between atoms: N_8  and  C_9
REMARK    4  A    between atoms: C_9  and  C_10
REMARK                            x       y       z     vdW  Elec       q    Type
REMARK                         _______ _______ _______ _____ _____    ______ ____
ROOT
ATOM      1  C   UNL     1      47.942   6.232  13.930  0.00  0.00    +0.000 A 
ATOM      2  C   UNL     1      47.949   5.481  15.102  0.00  0.00    +0.000 A 
ATOM      3  C   UNL     1      47.018   4.463  15.267  0.00  0.00    +0.000 A 
ATOM      4  N   UNL     1      46.083   4.204  14.328  0.00  0.00    +0.000 NA
ATOM      5  C   UNL     1      46.037   4.942  13.193  0.00  0.00    +0.000 A 
ATOM      6  N   UNL     1      45.043   4.694  12.272  0.00  0.00    +0.000 N 
ATOM      7  C   UNL     1      43.754   4.151  12.710  0.00  0.00    +0.000 C 
ATOM      8  C   UNL     1      43.381   2.890  11.903  0.00  0.00    +0.000 C 
ATOM      9  N   UNL     1      43.464   3.071  10.435  0.00  0.00    +0.000 NA
ATOM     10  C   UNL     1      44.830   3.525  10.102  0.00  0.00    +0.000 C 
ATOM     11  C   UNL     1      45.251   4.822  10.829  0.00  0.00    +0.000 C 
ATOM     12  C   UNL     1      46.966   5.952  12.975  0.00  0.00    +0.000 A 
ATOM     13  H   UNL     1      42.813   3.810  10.173  0.00  0.00    +0.000 HD
ENDROOT
BRANCH   1  15
ATOM     14  F   UNL     1      50.111   7.156  14.368  0.00  0.00    +0.000 F 
ATOM     15  C   UNL     1      48.950   7.312  13.672  0.00  0.00    +0.000 C 
ATOM     16  F   UNL     1      48.483   8.548  13.998  0.00  0.00    +0.000 F 
ATOM     17  F   UNL     1      49.308   7.385  12.360  0.00  0.00    +0.000 F 
ENDBRANCH   1  15
BRANCH   3  18
ATOM     18  N   UNL     1      47.126   3.684  16.417  0.00  0.00    +0.000 N 
ATOM     19  H   UNL     1      46.275   3.192  16.652  0.00  0.00    +0.000 HD
BRANCH  18  20
ATOM     20  C   UNL     1      48.365   2.978  16.682  0.00  0.00    +0.000 C 
BRANCH  20  21
ATOM     21  C   UNL     1      49.331   3.627  17.644  0.00  0.00    +0.000 A 
ATOM     22  C   UNL     1      48.803   4.306  18.751  0.00  0.00    +0.000 A 
ATOM     23  C   UNL     1      49.666   4.839  19.696  0.00  0.00    +0.000 A 
ATOM     24  N   UNL     1      51.006   4.739  19.621  0.00  0.00    +0.000 NA
ATOM     25  C   UNL     1      51.502   4.074  18.553  0.00  0.00    +0.000 A 
ATOM     26  C   UNL     1      50.718   3.504  17.558  0.00  0.00    +0.000 A 
ENDBRANCH  20  21
ENDBRANCH  18  20
ENDBRANCH   3  18
TORSDOF 4
ENDMDL
MODEL 6
REMARK VINA RESULT:    -6.297      1.751      7.185
REMARK INTER + INTRA:          -8.250
REMARK INTER:                  -7.690
REMARK INTRA:                  -0.559
REMARK UNBOUND:                -0.480
REMARK  Name = 
REMARK  4 active torsions:
REMARK  status: ('A' for Active; 'I' for Inactive)
REMARK    1  A    between atoms: C_2  and  C_5
REMARK    2  A    between atoms: C_7  and  N_8
REMARK    3  A    between atoms: N_8  and  C_9
REMARK    4  A    between atoms: C_9  and  C_10
REMARK                            x       y       z     vdW  Elec       q    Type
REMARK                         _______ _______ _______ _____ _____    ______ ____
ROOT
ATOM      1  C   UNL     1      47.871   6.767  12.859  0.00  0.00    +0.000 A 
ATOM      2  C   UNL     1      48.076   6.311  14.157  0.00  0.00    +0.000 A 
ATOM      3  C   UNL     1      47.272   5.295  14.660  0.00  0.00    +0.000 A 
ATOM      4  N   UNL     1      46.273   4.759  13.927  0.00  0.00    +0.000 NA
ATOM      5  C   UNL     1      46.035   5.208  12.672  0.00  0.00    +0.000 A 
ATOM      6  N   UNL     1      44.979   4.682  11.961  0.00  0.00    +0.000 N 
ATOM      7  C   UNL     1      43.803   4.164  12.667  0.00  0.00    +0.000 C 
ATOM      8  C   UNL     1      43.473   2.727  12.213  0.00  0.00    +0.000 C 
ATOM      9  N   UNL     1      43.382   2.568  10.743  0.00  0.00    +0.000 NA
ATOM     10  C   UNL     1      44.653   3.029  10.148  0.00  0.00    +0.000 C 
ATOM     11  C   UNL     1      45.019   4.487  10.511  0.00  0.00    +0.000 C 
ATOM     12  C   UNL     1      46.832   6.204  12.120  0.00  0.00    +0.000 A 
ATOM     13  H   UNL     1      42.637   3.178  10.407  0.00  0.00    +0.000 HD
ENDROOT
BRANCH   1  15
ATOM     14  F   UNL     1      50.000   7.865  12.748  0.00  0.00    +0.000 F 
ATOM     15  C   UNL     1      48.735   7.827  12.243  0.00  0.00    +0.000 C 
ATOM     16  F   UNL     1      48.226   9.078  12.416  0.00  0.00    +0.000 F 
ATOM     17  F   UNL     1      48.874   7.666  10.898  0.00  0.00    +0.000 F 
ENDBRANCH   1  15
BRANCH   3  18
ATOM     18  N   UNL     1      47.578   4.814  15.932  0.00  0.00    +0.000 N 
ATOM     19  H   UNL     1      47.465   3.814  16.022  0.00  0.00    +0.000 HD
BRANCH  18  20
ATOM     20  C   UNL     1      48.683   5.399  16.666  0.00  0.00    +0.000 C 
BRANCH  20  21
ATOM     21  C   UNL     1      48.356   6.063  17.981  0.00  0.00    +0.000 A 
ATOM     22  C   UNL     1      48.652   7.427  18.122  0.00  0.00    +0.000 A 
ATOM     23  C   UNL     1      48.286   8.085  19.287  0.00  0.00    +0.000 A 
ATOM     24  N   UNL     1      47.646   7.487  20.309  0.00  0.00    +0.000 NA
ATOM     25  C   UNL     1      47.358   6.175  20.156  0.00  0.00    +0.000 A 
ATOM     26  C   UNL     1      47.682   5.433  19.027  0.00  0.00    +0.000 A 
ENDBRANCH  20  21
ENDBRANCH  18  20
ENDBRANCH   3  18
TORSDOF 4
ENDMDL
MODEL 7
REMARK VINA RESULT:    -6.256      3.119      4.722
REMARK INTER + INTRA:          -8.200
REMARK INTER:                  -7.654
REMARK INTRA:                  -0.546
REMARK UNBOUND:                -0.480
REMARK  Name = 
REMARK  4 active torsions:
REMARK  status: ('A' for Active; 'I' for Inactive)
REMARK    1  A    between atoms: C_2  and  C_5
REMARK    2  A    between atoms: C_7  and  N_8
REMARK    3  A    between atoms: N_8  and  C_9
REMARK    4  A    between atoms: C_9  and  C_10
REMARK                            x       y       z     vdW  Elec       q    Type
REMARK                         _______ _______ _______ _____ _____    ______ ____
ROOT
ATOM      1  C   UNL     1      47.472   4.605  15.431  0.00  0.00    +0.000 A 
ATOM      2  C   UNL     1      46.372   4.278  14.644  0.00  0.00    +0.000 A 
ATOM      3  C   UNL     1      46.057   5.067  13.545  0.00  0.00    +0.000 A 
ATOM      4  N   UNL     1      46.776   6.168  13.239  0.00  0.00    +0.000 NA
ATOM      5  C   UNL     1      47.832   6.525  14.008  0.00  0.00    +0.000 A 
ATOM      6  N   UNL     1      48.521   7.679  13.707  0.00  0.00    +0.000 N 
ATOM      7  C   UNL     1      47.836   8.792  13.042  0.00  0.00    +0.000 C 
ATOM      8  C   UNL     1      48.604   9.241  11.781  0.00  0.00    +0.000 C 
ATOM      9  N   UNL     1      50.042   9.505  12.018  0.00  0.00    +0.000 NA
ATOM     10  C   UNL     1      50.647   8.289  12.598  0.00  0.00    +0.000 C 
ATOM     11  C   UNL     1      49.965   7.814  13.901  0.00  0.00    +0.000 C 
ATOM     12  C   UNL     1      48.200   5.748  15.101  0.00  0.00    +0.000 A 
ATOM     13  H   UNL     1      50.114  10.253  12.707  0.00  0.00    +0.000 HD
ENDROOT
BRANCH   1  15
ATOM     14  F   UNL     1      48.244   2.495  16.265  0.00  0.00    +0.000 F 
ATOM     15  C   UNL     1      47.891   3.767  16.600  0.00  0.00    +0.000 C 
ATOM     16  F   UNL     1      46.908   3.647  17.534  0.00  0.00    +0.000 F 
ATOM     17  F   UNL     1      48.963   4.291  17.257  0.00  0.00    +0.000 F 
ENDBRANCH   1  15
BRANCH   3  18
ATOM     18  N   UNL     1      45.001   4.644  12.740  0.00  0.00    +0.000 N 
ATOM     19  H   UNL     1      44.160   4.431  13.257  0.00  0.00    +0.000 HD
BRANCH  18  20
ATOM     20  C   UNL     1      44.812   5.254  11.438  0.00  0.00    +0.000 C 
BRANCH  20  21
ATOM     21  C   UNL     1      45.083   4.390  10.231  0.00  0.00    +0.000 A 
ATOM     22  C   UNL     1      44.652   3.056  10.265  0.00  0.00    +0.000 A 
ATOM     23  C   UNL     1      44.811   2.262   9.139  0.00  0.00    +0.000 A 
ATOM     24  N   UNL     1      45.357   2.701   7.989  0.00  0.00    +0.000 NA
ATOM     25  C   UNL     1      45.758   3.991   7.967  0.00  0.00    +0.000 A 
ATOM     26  C   UNL     1      45.639   4.863   9.041  0.00  0.00    +0.000 A 
ENDBRANCH  20  21
ENDBRANCH  18  20
ENDBRANCH   3  18
TORSDOF 4
ENDMDL
MODEL 8
REMARK VINA RESULT:    -6.109      3.559      5.049
REMARK INTER + INTRA:          -8.018
REMARK INTER:                  -7.580
REMARK INTRA:                  -0.437
REMARK UNBOUND:                -0.480
REMARK  Name = 
REMARK  4 active torsions:
REMARK  status: ('A' for Active; 'I' for Inactive)
REMARK    1  A    between atoms: C_2  and  C_5
REMARK    2  A    between atoms: C_7  and  N_8
REMARK    3  A    between atoms: N_8  and  C_9
REMARK    4  A    between atoms: C_9  and  C_10
REMARK                            x       y       z     vdW  Elec       q    Type
REMARK                         _______ _______ _______ _____ _____    ______ ____
ROOT
ATOM      1  C   UNL     1      48.388   4.402  16.963  0.00  0.00    +0.000 A 
ATOM      2  C   UNL     1      47.419   3.922  16.087  0.00  0.00    +0.000 A 
ATOM      3  C   UNL     1      47.142   4.625  14.922  0.00  0.00    +0.000 A 
ATOM      4  N   UNL     1      47.769   5.784  14.632  0.00  0.00    +0.000 NA
ATOM      5  C   UNL     1      48.694   6.288  15.484  0.00  0.00    +0.000 A 
ATOM      6  N   UNL     1      49.285   7.498  15.193  0.00  0.00    +0.000 N 
ATOM      7  C   UNL     1      48.562   8.499  14.403  0.00  0.00    +0.000 C 
ATOM      8  C   UNL     1      49.408   8.976  13.205  0.00  0.00    +0.000 C 
ATOM      9  N   UNL     1      50.777   9.407  13.571  0.00  0.00    +0.000 NA
ATOM     10  C   UNL     1      51.442   8.291  14.274  0.00  0.00    +0.000 C 
ATOM     11  C   UNL     1      50.679   7.798  15.525  0.00  0.00    +0.000 C 
ATOM     12  C   UNL     1      49.023   5.604  16.648  0.00  0.00    +0.000 A 
ATOM     13  H   UNL     1      50.696  10.187  14.223  0.00  0.00    +0.000 HD
ENDROOT
BRANCH   1  15
ATOM     14  F   UNL     1      49.989   3.066  18.147  0.00  0.00    +0.000 F 
ATOM     15  C   UNL     1      48.767   3.665  18.212  0.00  0.00    +0.000 C 
ATOM     16  F   UNL     1      47.883   2.676  18.521  0.00  0.00    +0.000 F 
ATOM     17  F   UNL     1      48.808   4.479  19.303  0.00  0.00    +0.000 F 
ENDBRANCH   1  15
BRANCH   3  18
ATOM     18  N   UNL     1      46.229   4.054  14.038  0.00  0.00    +0.000 N 
ATOM     19  H   UNL     1      45.813   3.201  14.383  0.00  0.00    +0.000 HD
BRANCH  18  20
ATOM     20  C   UNL     1      45.361   4.916  13.259  0.00  0.00    +0.000 C 
BRANCH  20  21
ATOM     21  C   UNL     1      44.993   4.445  11.872  0.00  0.00    +0.000 A 
ATOM     22  C   UNL     1      45.416   5.216  10.780  0.00  0.00    +0.000 A 
ATOM     23  C   UNL     1      45.167   4.766   9.493  0.00  0.00    +0.000 A 
ATOM     24  N   UNL     1      44.539   3.607   9.218  0.00  0.00    +0.000 NA
ATOM     25  C   UNL     1      44.146   2.868  10.280  0.00  0.00    +0.000 A 
ATOM     26  C   UNL     1      44.352   3.235  11.604  0.00  0.00    +0.000 A 
ENDBRANCH  20  21
ENDBRANCH  18  20
ENDBRANCH   3  18
TORSDOF 4
ENDMDL
MODEL 9
REMARK VINA RESULT:    -6.094      3.147      5.182
REMARK INTER + INTRA:          -7.999
REMARK INTER:                  -7.429
REMARK INTRA:                  -0.570
REMARK UNBOUND:                -0.480
REMARK  Name = 
REMARK  4 active torsions:
REMARK  status: ('A' for Active; 'I' for Inactive)
REMARK    1  A    between atoms: C_2  and  C_5
REMARK    2  A    between atoms: C_7  and  N_8
REMARK    3  A    between atoms: N_8  and  C_9
REMARK    4  A    between atoms: C_9  and  C_10
REMARK                            x       y       z     vdW  Elec       q    Type
REMARK                         _______ _______ _______ _____ _____    ______ ____
ROOT
ATOM      1  C   UNL     1      46.092   4.804  13.129  0.00  0.00    +0.000 A 
ATOM      2  C   UNL     1      46.753   5.901  12.585  0.00  0.00    +0.000 A 
ATOM      3  C   UNL     1      47.806   6.480  13.282  0.00  0.00    +0.000 A 
ATOM      4  N   UNL     1      48.186   6.021  14.493  0.00  0.00    +0.000 NA
ATOM      5  C   UNL     1      47.538   4.974  15.058  0.00  0.00    +0.000 A 
ATOM      6  N   UNL     1      47.909   4.555  16.316  0.00  0.00    +0.000 N 
ATOM      7  C   UNL     1      48.490   5.507  17.267  0.00  0.00    +0.000 C 
ATOM      8  C   UNL     1      49.826   4.983  17.831  0.00  0.00    +0.000 C 
ATOM      9  N   UNL     1      49.751   3.604  18.367  0.00  0.00    +0.000 NA
ATOM     10  C   UNL     1      49.247   2.718  17.298  0.00  0.00    +0.000 C 
ATOM     11  C   UNL     1      47.878   3.150  16.725  0.00  0.00    +0.000 C 
ATOM     12  C   UNL     1      46.497   4.347  14.383  0.00  0.00    +0.000 A 
ATOM     13  H   UNL     1      49.071   3.600  19.127  0.00  0.00    +0.000 HD
ENDROOT
BRANCH   1  15
ATOM     14  F   UNL     1      45.320   2.872  11.937  0.00  0.00    +0.000 F 
ATOM     15  C   UNL     1      44.980   4.106  12.405  0.00  0.00    +0.000 C 
ATOM     16  F   UNL     1      44.543   4.808  11.324  0.00  0.00    +0.000 F 
ATOM     17  F   UNL     1      43.886   3.918  13.193  0.00  0.00    +0.000 F 
ENDBRANCH   1  15
BRANCH   3  18
ATOM     18  N   UNL     1      48.491   7.518  12.652  0.00  0.00    +0.000 N 
ATOM     19  H   UNL     1      48.570   7.399  11.652  0.00  0.00    +0.000 HD
BRANCH  18  20
ATOM     20  C   UNL     1      48.305   8.877  13.121  0.00  0.00    +0.000 C 
BRANCH  20  21
ATOM     21  C   UNL     1      47.210   9.684  12.466  0.00  0.00    +0.000 A 
ATOM     22  C   UNL     1      47.583  10.756  11.643  0.00  0.00    +0.000 A 
ATOM     23  C   UNL     1      46.604  11.462  10.960  0.00  0.00    +0.000 A 
ATOM     24  N   UNL     1      45.291  11.174  11.033  0.00  0.00    +0.000 NA
ATOM     25  C   UNL     1      44.946  10.132  11.822  0.00  0.00    +0.000 A 
ATOM     26  C   UNL     1      45.854   9.365  12.542  0.00  0.00    +0.000 A 
ENDBRANCH  20  21
ENDBRANCH  18  20
ENDBRANCH   3  18
TORSDOF 4
ENDMDL
