MODEL 1
REMARK VINA RESULT:    -7.391      0.000      0.000
REMARK INTER + INTRA:         -10.911
REMARK INTER:                  -9.983
REMARK INTRA:                  -0.928
REMARK UNBOUND:                -0.928
REMARK  Name = 
REMARK  8 active torsions:
REMARK  status: ('A' for Active; 'I' for Inactive)
REMARK    1  A    between atoms: C_1  and  O_2
REMARK    2  A    between atoms: O_2  and  C_3
REMARK    3  A    between atoms: C_7  and  N_8
REMARK    4  A    between atoms: N_8  and  C_9
REMARK    5  A    between atoms: C_9  and  C_10
REMARK    6  A    between atoms: C_13  and  C_14
REMARK    7  A    between atoms: C_15  and  C_16
REMARK    8  A    between atoms: C_20  and  C_21
REMARK                            x       y       z     vdW  Elec       q    Type
REMARK                         _______ _______ _______ _____ _____    ______ ____
ROOT
ATOM      1  C   UNL     1      44.620   5.169  11.464  0.00  0.00    +0.000 A 
ATOM      2  C   UNL     1      44.497   4.521  12.692  0.00  0.00    +0.000 A 
ATOM      3  C   UNL     1      45.450   4.726  13.688  0.00  0.00    +0.000 A 
ATOM      4  C   UNL     1      46.536   5.604  13.494  0.00  0.00    +0.000 A 
ATOM      5  C   UNL     1      47.648   5.550  14.513  0.00  0.00    +0.000 C 
ATOM      6  C   UNL     1      46.564   6.437  12.347  0.00  0.00    +0.000 A 
ATOM      7  C   UNL     1      45.601   6.167  11.338  0.00  0.00    +0.000 A 
ENDROOT
BRANCH   6   8
ATOM      8  C   UNL     1      47.520   7.570  12.158  0.00  0.00    +0.000 A 
ATOM      9  C   UNL     1      47.100   8.915  12.200  0.00  0.00    +0.000 A 
ATOM     10  C   UNL     1      47.974   9.978  11.950  0.00  0.00    +0.000 A 
ATOM     11  C   UNL     1      49.291   9.726  11.591  0.00  0.00    +0.000 A 
ATOM     12  C   UNL     1      49.738   8.407  11.515  0.00  0.00    +0.000 A 
ATOM     13  C   UNL     1      48.869   7.348  11.823  0.00  0.00    +0.000 A 
BRANCH  12  14
ATOM     14  C   UNL     1      51.075   8.130  11.087  0.00  0.00    +0.000 C 
ATOM     15  N   UNL     1      52.162   7.891  10.745  0.00  0.00    +0.000 NA
ENDBRANCH  12  14
ENDBRANCH   6   8
BRANCH   1  16
ATOM     16  C   UNL     1      43.779   4.746  10.277  0.00  0.00    +0.000 C 
BRANCH  16  17
ATOM     17  N   UNL     1      44.098   3.402   9.826  0.00  0.00    +0.000 N 
ATOM     18  H   UNL     1      44.126   2.715  10.575  0.00  0.00    +0.000 HD
BRANCH  17  23
ATOM     19  C   UNL     1      46.681   1.854   7.594  0.00  0.00    +0.000 A 
ATOM     20  C   UNL     1      47.108   3.018   6.974  0.00  0.00    +0.000 A 
ATOM     21  N   UNL     1      46.617   4.249   7.252  0.00  0.00    +0.000 NA
ATOM     22  C   UNL     1      45.640   4.301   8.185  0.00  0.00    +0.000 A 
ATOM     23  C   UNL     1      45.084   3.200   8.849  0.00  0.00    +0.000 A 
ATOM     24  C   UNL     1      45.674   1.963   8.557  0.00  0.00    +0.000 A 
BRANCH  19  26
ATOM     25  C   UNL     1      46.677  -0.523   7.526  0.00  0.00    +0.000 C 
ATOM     26  O   UNL     1      47.305   0.705   7.187  0.00  0.00    +0.000 OA
ENDBRANCH  19  26
ENDBRANCH  17  23
ENDBRANCH  16  17
ENDBRANCH   1  16
TORSDOF 6
ENDMDL
MODEL 2
REMARK VINA RESULT:    -7.070      2.928      4.740
REMARK INTER + INTRA:         -10.479
REMARK INTER:                  -9.571
REMARK INTRA:                  -0.907
REMARK UNBOUND:                -0.928
REMARK  Name = 
REMARK  8 active torsions:
REMARK  status: ('A' for Active; 'I' for Inactive)
REMARK    1  A    between atoms: C_1  and  O_2
REMARK    2  A    between atoms: O_2  and  C_3
REMARK    3  A    between atoms: C_7  and  N_8
REMARK    4  A    between atoms: N_8  and  C_9
REMARK    5  A    between atoms: C_9  and  C_10
REMARK    6  A    between atoms: C_13  and  C_14
REMARK    7  A    between atoms: C_15  and  C_16
REMARK    8  A    between atoms: C_20  and  C_21
REMARK                            x       y       z     vdW  Elec       q    Type
REMARK                         _______ _______ _______ _____ _____    ______ ____
ROOT
ATOM      1  C   UNL     1      45.783   4.871  12.781  0.00  0.00    +0.000 A 
ATOM      2  C   UNL     1      46.514   5.905  12.200  0.00  0.00    +0.000 A 
ATOM      3  C   UNL     1      47.516   6.546  12.928  0.00  0.00    +0.000 A 
ATOM      4  C   UNL     1      47.832   6.152  14.244  0.00  0.00    +0.000 A 
ATOM      5  C   UNL     1      48.730   7.072  15.035  0.00  0.00    +0.000 C 
ATOM      6  C   UNL     1      47.259   4.969  14.775  0.00  0.00    +0.000 A 
ATOM      7  C   UNL     1      46.214   4.372  14.022  0.00  0.00    +0.000 A 
ENDROOT
BRANCH   6   8
ATOM      8  C   UNL     1      47.703   4.323  16.048  0.00  0.00    +0.000 A 
ATOM      9  C   UNL     1      47.214   4.734  17.304  0.00  0.00    +0.000 A 
ATOM     10  C   UNL     1      47.679   4.186  18.503  0.00  0.00    +0.000 A 
ATOM     11  C   UNL     1      48.698   3.242  18.487  0.00  0.00    +0.000 A 
ATOM     12  C   UNL     1      49.225   2.827  17.265  0.00  0.00    +0.000 A 
ATOM     13  C   UNL     1      48.713   3.341  16.063  0.00  0.00    +0.000 A 
BRANCH  12  14
ATOM     14  C   UNL     1      50.316   1.902  17.235  0.00  0.00    +0.000 C 
ATOM     15  N   UNL     1      51.214   1.161  17.208  0.00  0.00    +0.000 NA
ENDBRANCH  12  14
ENDBRANCH   6   8
BRANCH   1  16
ATOM     16  C   UNL     1      44.512   4.362  12.134  0.00  0.00    +0.000 C 
BRANCH  16  17
ATOM     17  N   UNL     1      44.367   4.826  10.764  0.00  0.00    +0.000 N 
ATOM     18  H   UNL     1      43.437   5.171  10.545  0.00  0.00    +0.000 HD
BRANCH  17  23
ATOM     19  C   UNL     1      45.701   2.083   8.583  0.00  0.00    +0.000 A 
ATOM     20  C   UNL     1      46.276   2.886   7.611  0.00  0.00    +0.000 A 
ATOM     21  N   UNL     1      46.261   4.240   7.639  0.00  0.00    +0.000 NA
ATOM     22  C   UNL     1      45.622   4.805   8.689  0.00  0.00    +0.000 A 
ATOM     23  C   UNL     1      44.959   4.112   9.710  0.00  0.00    +0.000 A 
ATOM     24  C   UNL     1      45.058   2.716   9.652  0.00  0.00    +0.000 A 
BRANCH  19  26
ATOM     25  C   UNL     1      46.905   0.300   7.567  0.00  0.00    +0.000 C 
ATOM     26  O   UNL     1      45.828   0.734   8.387  0.00  0.00    +0.000 OA
ENDBRANCH  19  26
ENDBRANCH  17  23
ENDBRANCH  16  17
ENDBRANCH   1  16
TORSDOF 6
ENDMDL
MODEL 3
REMARK VINA RESULT:    -7.054      1.778      2.418
REMARK INTER + INTRA:         -10.457
REMARK INTER:                  -9.623
REMARK INTRA:                  -0.834
REMARK UNBOUND:                -0.928
REMARK  Name = 
REMARK  8 active torsions:
REMARK  status: ('A' for Active; 'I' for Inactive)
REMARK    1  A    between atoms: C_1  and  O_2
REMARK    2  A    between atoms: O_2  and  C_3
REMARK    3  A    between atoms: C_7  and  N_8
REMARK    4  A    between atoms: N_8  and  C_9
REMARK    5  A    between atoms: C_9  and  C_10
REMARK    6  A    between atoms: C_13  and  C_14
REMARK    7  A    between atoms: C_15  and  C_16
REMARK    8  A    between atoms: C_20  and  C_21
REMARK                            x       y       z     vdW  Elec       q    Type
REMARK                         _______ _______ _______ _____ _____    ______ ____
ROOT
ATOM      1  C   UNL     1      44.975   5.059  11.542  0.00  0.00    +0.000 A 
ATOM      2  C   UNL     1      43.981   5.983  11.228  0.00  0.00    +0.000 A 
ATOM      3  C   UNL     1      44.158   7.331  11.536  0.00  0.00    +0.000 A 
ATOM      4  C   UNL     1      45.343   7.795  12.141  0.00  0.00    +0.000 A 
ATOM      5  C   UNL     1      45.329   9.206  12.678  0.00  0.00    +0.000 C 
ATOM      6  C   UNL     1      46.451   6.919  12.269  0.00  0.00    +0.000 A 
ATOM      7  C   UNL     1      46.216   5.547  11.984  0.00  0.00    +0.000 A 
ENDROOT
BRANCH   6   8
ATOM      8  C   UNL     1      47.825   7.359  12.660  0.00  0.00    +0.000 A 
ATOM      9  C   UNL     1      48.710   7.948  11.736  0.00  0.00    +0.000 A 
ATOM     10  C   UNL     1      50.023   8.294  12.075  0.00  0.00    +0.000 A 
ATOM     11  C   UNL     1      50.513   8.004  13.341  0.00  0.00    +0.000 A 
ATOM     12  C   UNL     1      49.675   7.398  14.276  0.00  0.00    +0.000 A 
ATOM     13  C   UNL     1      48.341   7.107  13.946  0.00  0.00    +0.000 A 
BRANCH  12  14
ATOM     14  C   UNL     1      50.183   7.038  15.564  0.00  0.00    +0.000 C 
ATOM     15  N   UNL     1      50.594   6.731  16.609  0.00  0.00    +0.000 NA
ENDBRANCH  12  14
ENDBRANCH   6   8
BRANCH   1  16
ATOM     16  C   UNL     1      44.695   3.571  11.490  0.00  0.00    +0.000 C 
BRANCH  16  17
ATOM     17  N   UNL     1      44.193   3.150  10.194  0.00  0.00    +0.000 N 
ATOM     18  H   UNL     1      43.499   2.409  10.245  0.00  0.00    +0.000 HD
BRANCH  17  23
ATOM     19  C   UNL     1      46.579   1.785   7.645  0.00  0.00    +0.000 A 
ATOM     20  C   UNL     1      46.869   2.980   7.007  0.00  0.00    +0.000 A 
ATOM     21  N   UNL     1      46.349   4.178   7.367  0.00  0.00    +0.000 NA
ATOM     22  C   UNL     1      45.485   4.160   8.407  0.00  0.00    +0.000 A 
ATOM     23  C   UNL     1      45.069   3.019   9.105  0.00  0.00    +0.000 A 
ATOM     24  C   UNL     1      45.685   1.821   8.720  0.00  0.00    +0.000 A 
BRANCH  19  26
ATOM     25  C   UNL     1      46.661  -0.587   7.480  0.00  0.00    +0.000 C 
ATOM     26  O   UNL     1      47.212   0.678   7.144  0.00  0.00    +0.000 OA
ENDBRANCH  19  26
ENDBRANCH  17  23
ENDBRANCH  16  17
ENDBRANCH   1  16
TORSDOF 6
ENDMDL
MODEL 4
REMARK VINA RESULT:    -6.997      1.170      1.882
REMARK INTER + INTRA:         -10.380
REMARK INTER:                  -9.509
REMARK INTRA:                  -0.871
REMARK UNBOUND:                -0.928
REMARK  Name = 
REMARK  8 active torsions:
REMARK  status: ('A' for Active; 'I' for Inactive)
REMARK    1  A    between atoms: C_1  and  O_2
REMARK    2  A    between atoms: O_2  and  C_3
REMARK    3  A    between atoms: C_7  and  N_8
REMARK    4  A    between atoms: N_8  and  C_9
REMARK    5  A    between atoms: C_9  and  C_10
REMARK    6  A    between atoms: C_13  and  C_14
REMARK    7  A    between atoms: C_15  and  C_16
REMARK    8  A    between atoms: C_20  and  C_21
REMARK                            x       y       z     vdW  Elec       q    Type
REMARK                         _______ _______ _______ _____ _____    ______ ____
ROOT
ATOM      1  C   UNL     1      45.000   5.123  11.530  0.00  0.00    +0.000 A 
ATOM      2  C   UNL     1      44.075   6.122  11.233  0.00  0.00    +0.000 A 
ATOM      3  C   UNL     1      44.346   7.447  11.570  0.00  0.00    +0.000 A 
ATOM      4  C   UNL     1      45.560   7.812  12.187  0.00  0.00    +0.000 A 
ATOM      5  C   UNL     1      45.643   9.209  12.754  0.00  0.00    +0.000 C 
ATOM      6  C   UNL     1      46.601   6.858  12.300  0.00  0.00    +0.000 A 
ATOM      7  C   UNL     1      46.271   5.512  11.985  0.00  0.00    +0.000 A 
ENDROOT
BRANCH   6   8
ATOM      8  C   UNL     1      48.001   7.190  12.703  0.00  0.00    +0.000 A 
ATOM      9  C   UNL     1      48.446   7.057  14.033  0.00  0.00    +0.000 A 
ATOM     10  C   UNL     1      49.732   7.437  14.433  0.00  0.00    +0.000 A 
ATOM     11  C   UNL     1      50.600   8.019  13.519  0.00  0.00    +0.000 A 
ATOM     12  C   UNL     1      50.188   8.189  12.198  0.00  0.00    +0.000 A 
ATOM     13  C   UNL     1      48.916   7.754  11.792  0.00  0.00    +0.000 A 
BRANCH  12  14
ATOM     14  C   UNL     1      51.049   8.843  11.260  0.00  0.00    +0.000 C 
ATOM     15  N   UNL     1      51.756   9.381  10.508  0.00  0.00    +0.000 NA
ENDBRANCH  12  14
ENDBRANCH   6   8
BRANCH   1  16
ATOM     16  C   UNL     1      44.615   3.660  11.446  0.00  0.00    +0.000 C 
BRANCH  16  17
ATOM     17  N   UNL     1      44.126   3.294  10.127  0.00  0.00    +0.000 N 
ATOM     18  H   UNL     1      43.398   2.585  10.143  0.00  0.00    +0.000 HD
BRANCH  17  23
ATOM     19  C   UNL     1      46.559   1.896   7.641  0.00  0.00    +0.000 A 
ATOM     20  C   UNL     1      46.861   3.083   6.993  0.00  0.00    +0.000 A 
ATOM     21  N   UNL     1      46.335   4.285   7.329  0.00  0.00    +0.000 NA
ATOM     22  C   UNL     1      45.452   4.281   8.353  0.00  0.00    +0.000 A 
ATOM     23  C   UNL     1      45.022   3.149   9.057  0.00  0.00    +0.000 A 
ATOM     24  C   UNL     1      45.645   1.946   8.698  0.00  0.00    +0.000 A 
BRANCH  19  26
ATOM     25  C   UNL     1      46.684  -0.479   7.567  0.00  0.00    +0.000 C 
ATOM     26  O   UNL     1      47.200   0.783   7.165  0.00  0.00    +0.000 OA
ENDBRANCH  19  26
ENDBRANCH  17  23
ENDBRANCH  16  17
ENDBRANCH   1  16
TORSDOF 6
ENDMDL
MODEL 5
REMARK VINA RESULT:    -6.952      2.905      4.827
REMARK INTER + INTRA:         -10.319
REMARK INTER:                  -9.575
REMARK INTRA:                  -0.744
REMARK UNBOUND:                -0.928
REMARK  Name = 
REMARK  8 active torsions:
REMARK  status: ('A' for Active; 'I' for Inactive)
REMARK    1  A    between atoms: C_1  and  O_2
REMARK    2  A    between atoms: O_2  and  C_3
REMARK    3  A    between atoms: C_7  and  N_8
REMARK    4  A    between atoms: N_8  and  C_9
REMARK    5  A    between atoms: C_9  and  C_10
REMARK    6  A    between atoms: C_13  and  C_14
REMARK    7  A    between atoms: C_15  and  C_16
REMARK    8  A    between atoms: C_20  and  C_21
REMARK                            x       y       z     vdW  Elec       q    Type
REMARK                         _______ _______ _______ _____ _____    ______ ____
ROOT
ATOM      1  C   UNL     1      45.398   5.295  12.110  0.00  0.00    +0.000 A 
ATOM      2  C   UNL     1      46.222   6.209  11.455  0.00  0.00    +0.000 A 
ATOM      3  C   UNL     1      47.350   6.717  12.098  0.00  0.00    +0.000 A 
ATOM      4  C   UNL     1      47.699   6.305  13.400  0.00  0.00    +0.000 A 
ATOM      5  C   UNL     1      48.767   7.105  14.105  0.00  0.00    +0.000 C 
ATOM      6  C   UNL     1      47.009   5.222  13.998  0.00  0.00    +0.000 A 
ATOM      7  C   UNL     1      45.841   4.762  13.331  0.00  0.00    +0.000 A 
ENDROOT
BRANCH   6   8
ATOM      8  C   UNL     1      47.446   4.541  15.255  0.00  0.00    +0.000 A 
ATOM      9  C   UNL     1      47.752   3.166  15.291  0.00  0.00    +0.000 A 
ATOM     10  C   UNL     1      48.090   2.506  16.477  0.00  0.00    +0.000 A 
ATOM     11  C   UNL     1      48.075   3.194  17.683  0.00  0.00    +0.000 A 
ATOM     12  C   UNL     1      47.754   4.551  17.692  0.00  0.00    +0.000 A 
ATOM     13  C   UNL     1      47.472   5.218  16.489  0.00  0.00    +0.000 A 
BRANCH  12  14
ATOM     14  C   UNL     1      47.675   5.258  18.933  0.00  0.00    +0.000 C 
ATOM     15  N   UNL     1      47.619   5.823  19.950  0.00  0.00    +0.000 NA
ENDBRANCH  12  14
ENDBRANCH   6   8
BRANCH   1  16
ATOM     16  C   UNL     1      44.027   4.956  11.561  0.00  0.00    +0.000 C 
BRANCH  16  17
ATOM     17  N   UNL     1      44.007   4.929  10.108  0.00  0.00    +0.000 N 
ATOM     18  H   UNL     1      43.091   5.115   9.708  0.00  0.00    +0.000 HD
BRANCH  17  23
ATOM     19  C   UNL     1      46.285   3.182   7.697  0.00  0.00    +0.000 A 
ATOM     20  C   UNL     1      45.972   1.881   8.060  0.00  0.00    +0.000 A 
ATOM     21  N   UNL     1      45.070   1.557   9.016  0.00  0.00    +0.000 NA
ATOM     22  C   UNL     1      44.471   2.595   9.643  0.00  0.00    +0.000 A 
ATOM     23  C   UNL     1      44.731   3.951   9.409  0.00  0.00    +0.000 A 
ATOM     24  C   UNL     1      45.633   4.219   8.371  0.00  0.00    +0.000 A 
BRANCH  19  26
ATOM     25  C   UNL     1      47.892   2.129   6.294  0.00  0.00    +0.000 C 
ATOM     26  O   UNL     1      47.215   3.310   6.700  0.00  0.00    +0.000 OA
ENDBRANCH  19  26
ENDBRANCH  17  23
ENDBRANCH  16  17
ENDBRANCH   1  16
TORSDOF 6
ENDMDL
MODEL 6
REMARK VINA RESULT:    -6.515      4.993      8.503
REMARK INTER + INTRA:          -9.728
REMARK INTER:                  -8.875
REMARK INTRA:                  -0.853
REMARK UNBOUND:                -0.928
REMARK  Name = 
REMARK  8 active torsions:
REMARK  status: ('A' for Active; 'I' for Inactive)
REMARK    1  A    between atoms: C_1  and  O_2
REMARK    2  A    between atoms: O_2  and  C_3
REMARK    3  A    between atoms: C_7  and  N_8
REMARK    4  A    between atoms: N_8  and  C_9
REMARK    5  A    between atoms: C_9  and  C_10
REMARK    6  A    between atoms: C_13  and  C_14
REMARK    7  A    between atoms: C_15  and  C_16
REMARK    8  A    between atoms: C_20  and  C_21
REMARK                            x       y       z     vdW  Elec       q    Type
REMARK                         _______ _______ _______ _____ _____    ______ ____
ROOT
ATOM      1  C   UNL     1      47.806   4.925  15.665  0.00  0.00    +0.000 A 
ATOM      2  C   UNL     1      48.524   6.102  15.466  0.00  0.00    +0.000 A 
ATOM      3  C   UNL     1      48.337   6.845  14.301  0.00  0.00    +0.000 A 
ATOM      4  C   UNL     1      47.410   6.445  13.317  0.00  0.00    +0.000 A 
ATOM      5  C   UNL     1      47.479   7.155  11.987  0.00  0.00    +0.000 C 
ATOM      6  C   UNL     1      46.516   5.380  13.592  0.00  0.00    +0.000 A 
ATOM      7  C   UNL     1      46.766   4.624  14.769  0.00  0.00    +0.000 A 
ENDROOT
BRANCH   6   8
ATOM      8  C   UNL     1      45.339   5.034  12.739  0.00  0.00    +0.000 A 
ATOM      9  C   UNL     1      44.044   5.507  13.027  0.00  0.00    +0.000 A 
ATOM     10  C   UNL     1      42.925   5.127  12.277  0.00  0.00    +0.000 A 
ATOM     11  C   UNL     1      43.061   4.208  11.244  0.00  0.00    +0.000 A 
ATOM     12  C   UNL     1      44.323   3.698  10.944  0.00  0.00    +0.000 A 
ATOM     13  C   UNL     1      45.449   4.129  11.665  0.00  0.00    +0.000 A 
BRANCH  12  14
ATOM     14  C   UNL     1      44.468   2.706   9.924  0.00  0.00    +0.000 C 
ATOM     15  N   UNL     1      44.589   1.888   9.105  0.00  0.00    +0.000 NA
ENDBRANCH  12  14
ENDBRANCH   6   8
BRANCH   1  16
ATOM     16  C   UNL     1      48.194   3.957  16.764  0.00  0.00    +0.000 C 
BRANCH  16  17
ATOM     17  N   UNL     1      49.430   4.340  17.424  0.00  0.00    +0.000 N 
ATOM     18  H   UNL     1      49.756   5.270  17.175  0.00  0.00    +0.000 HD
BRANCH  17  23
ATOM     19  C   UNL     1      52.753   2.739  18.094  0.00  0.00    +0.000 A 
ATOM     20  C   UNL     1      52.423   1.455  17.689  0.00  0.00    +0.000 A 
ATOM     21  N   UNL     1      51.207   1.101  17.209  0.00  0.00    +0.000 NA
ATOM     22  C   UNL     1      50.282   2.085  17.153  0.00  0.00    +0.000 A 
ATOM     23  C   UNL     1      50.468   3.408  17.576  0.00  0.00    +0.000 A 
ATOM     24  C   UNL     1      51.763   3.723  18.010  0.00  0.00    +0.000 A 
BRANCH  19  26
ATOM     25  C   UNL     1      54.265   2.722  19.931  0.00  0.00    +0.000 C 
ATOM     26  O   UNL     1      54.037   2.907  18.540  0.00  0.00    +0.000 OA
ENDBRANCH  19  26
ENDBRANCH  17  23
ENDBRANCH  16  17
ENDBRANCH   1  16
TORSDOF 6
ENDMDL
MODEL 7
REMARK VINA RESULT:    -6.480      3.578      7.611
REMARK INTER + INTRA:          -9.682
REMARK INTER:                  -8.654
REMARK INTRA:                  -1.028
REMARK UNBOUND:                -0.928
REMARK  Name = 
REMARK  8 active torsions:
REMARK  status: ('A' for Active; 'I' for Inactive)
REMARK    1  A    between atoms: C_1  and  O_2
REMARK    2  A    between atoms: O_2  and  C_3
REMARK    3  A    between atoms: C_7  and  N_8
REMARK    4  A    between atoms: N_8  and  C_9
REMARK    5  A    between atoms: C_9  and  C_10
REMARK    6  A    between atoms: C_13  and  C_14
REMARK    7  A    between atoms: C_15  and  C_16
REMARK    8  A    between atoms: C_20  and  C_21
REMARK                            x       y       z     vdW  Elec       q    Type
REMARK                         _______ _______ _______ _____ _____    ______ ____
ROOT
ATOM      1  C   UNL     1      47.646   7.297  13.393  0.00  0.00    +0.000 A 
ATOM      2  C   UNL     1      46.909   8.446  13.677  0.00  0.00    +0.000 A 
ATOM      3  C   UNL     1      45.750   8.727  12.956  0.00  0.00    +0.000 A 
ATOM      4  C   UNL     1      45.281   7.855  11.952  0.00  0.00    +0.000 A 
ATOM      5  C   UNL     1      44.186   8.376  11.053  0.00  0.00    +0.000 C 
ATOM      6  C   UNL     1      45.884   6.582  11.796  0.00  0.00    +0.000 A 
ATOM      7  C   UNL     1      47.086   6.352  12.517  0.00  0.00    +0.000 A 
ENDROOT
BRANCH   6   8
ATOM      8  C   UNL     1      45.322   5.488  10.947  0.00  0.00    +0.000 A 
ATOM      9  C   UNL     1      44.366   4.577  11.439  0.00  0.00    +0.000 A 
ATOM     10  C   UNL     1      43.891   3.506  10.676  0.00  0.00    +0.000 A 
ATOM     11  C   UNL     1      44.405   3.276   9.406  0.00  0.00    +0.000 A 
ATOM     12  C   UNL     1      45.370   4.141   8.892  0.00  0.00    +0.000 A 
ATOM     13  C   UNL     1      45.800   5.247   9.644  0.00  0.00    +0.000 A 
BRANCH  12  14
ATOM     14  C   UNL     1      45.952   3.882   7.612  0.00  0.00    +0.000 C 
ATOM     15  N   UNL     1      46.423   3.685   6.565  0.00  0.00    +0.000 NA
ENDBRANCH  12  14
ENDBRANCH   6   8
BRANCH   1  16
ATOM     16  C   UNL     1      49.045   7.117  13.945  0.00  0.00    +0.000 C 
BRANCH  16  17
ATOM     17  N   UNL     1      49.169   7.616  15.305  0.00  0.00    +0.000 N 
ATOM     18  H   UNL     1      50.026   8.136  15.473  0.00  0.00    +0.000 HD
BRANCH  17  23
ATOM     19  C   UNL     1      47.984   4.755  17.417  0.00  0.00    +0.000 A 
ATOM     20  C   UNL     1      47.920   5.433  18.624  0.00  0.00    +0.000 A 
ATOM     21  N   UNL     1      48.223   6.745  18.774  0.00  0.00    +0.000 NA
ATOM     22  C   UNL     1      48.624   7.392  17.657  0.00  0.00    +0.000 A 
ATOM     23  C   UNL     1      48.780   6.816  16.389  0.00  0.00    +0.000 A 
ATOM     24  C   UNL     1      48.398   5.471  16.290  0.00  0.00    +0.000 A 
BRANCH  19  26
ATOM     25  C   UNL     1      48.411   2.529  16.696  0.00  0.00    +0.000 C 
ATOM     26  O   UNL     1      47.628   3.433  17.462  0.00  0.00    +0.000 OA
ENDBRANCH  19  26
ENDBRANCH  17  23
ENDBRANCH  16  17
ENDBRANCH   1  16
TORSDOF 6
ENDMDL
MODEL 8
REMARK VINA RESULT:    -6.330      1.618      2.028
REMARK INTER + INTRA:          -9.478
REMARK INTER:                  -8.685
REMARK INTRA:                  -0.793
REMARK UNBOUND:                -0.928
REMARK  Name = 
REMARK  8 active torsions:
REMARK  status: ('A' for Active; 'I' for Inactive)
REMARK    1  A    between atoms: C_1  and  O_2
REMARK    2  A    between atoms: O_2  and  C_3
REMARK    3  A    between atoms: C_7  and  N_8
REMARK    4  A    between atoms: N_8  and  C_9
REMARK    5  A    between atoms: C_9  and  C_10
REMARK    6  A    between atoms: C_13  and  C_14
REMARK    7  A    between atoms: C_15  and  C_16
REMARK    8  A    between atoms: C_20  and  C_21
REMARK                            x       y       z     vdW  Elec       q    Type
REMARK                         _______ _______ _______ _____ _____    ______ ____
ROOT
ATOM      1  C   UNL     1      45.041   5.739  11.691  0.00  0.00    +0.000 A 
ATOM      2  C   UNL     1      44.479   4.864  12.618  0.00  0.00    +0.000 A 
ATOM      3  C   UNL     1      45.223   4.443  13.719  0.00  0.00    +0.000 A 
ATOM      4  C   UNL     1      46.536   4.907  13.938  0.00  0.00    +0.000 A 
ATOM      5  C   UNL     1      47.345   4.192  14.993  0.00  0.00    +0.000 C 
ATOM      6  C   UNL     1      47.047   5.958  13.137  0.00  0.00    +0.000 A 
ATOM      7  C   UNL     1      46.278   6.328  12.001  0.00  0.00    +0.000 A 
ENDROOT
BRANCH   6   8
ATOM      8  C   UNL     1      48.314   6.695  13.431  0.00  0.00    +0.000 A 
ATOM      9  C   UNL     1      48.648   7.115  14.734  0.00  0.00    +0.000 A 
ATOM     10  C   UNL     1      49.794   7.869  15.005  0.00  0.00    +0.000 A 
ATOM     11  C   UNL     1      50.619   8.279  13.966  0.00  0.00    +0.000 A 
ATOM     12  C   UNL     1      50.309   7.904  12.659  0.00  0.00    +0.000 A 
ATOM     13  C   UNL     1      49.187   7.099  12.402  0.00  0.00    +0.000 A 
BRANCH  12  14
ATOM     14  C   UNL     1      51.114   8.370  11.573  0.00  0.00    +0.000 C 
ATOM     15  N   UNL     1      51.758   8.758  10.683  0.00  0.00    +0.000 NA
ENDBRANCH  12  14
ENDBRANCH   6   8
BRANCH   1  16
ATOM     16  C   UNL     1      44.377   5.979  10.350  0.00  0.00    +0.000 C 
BRANCH  16  17
ATOM     17  N   UNL     1      43.799   4.765   9.797  0.00  0.00    +0.000 N 
ATOM     18  H   UNL     1      43.069   4.359  10.375  0.00  0.00    +0.000 HD
BRANCH  17  23
ATOM     19  C   UNL     1      46.227   3.041   7.520  0.00  0.00    +0.000 A 
ATOM     20  C   UNL     1      46.071   1.759   8.023  0.00  0.00    +0.000 A 
ATOM     21  N   UNL     1      45.226   1.438   9.031  0.00  0.00    +0.000 NA
ATOM     22  C   UNL     1      44.522   2.462   9.564  0.00  0.00    +0.000 A 
ATOM     23  C   UNL     1      44.621   3.807   9.184  0.00  0.00    +0.000 A 
ATOM     24  C   UNL     1      45.471   4.064   8.100  0.00  0.00    +0.000 A 
BRANCH  19  26
ATOM     25  C   UNL     1      48.202   2.246   6.458  0.00  0.00    +0.000 C 
ATOM     26  O   UNL     1      47.121   3.167   6.490  0.00  0.00    +0.000 OA
ENDBRANCH  19  26
ENDBRANCH  17  23
ENDBRANCH  16  17
ENDBRANCH   1  16
TORSDOF 6
ENDMDL
MODEL 9
REMARK VINA RESULT:    -6.280      1.874      3.600
REMARK INTER + INTRA:          -9.411
REMARK INTER:                  -8.450
REMARK INTRA:                  -0.961
REMARK UNBOUND:                -0.928
REMARK  Name = 
REMARK  8 active torsions:
REMARK  status: ('A' for Active; 'I' for Inactive)
REMARK    1  A    between atoms: C_1  and  O_2
REMARK    2  A    between atoms: O_2  and  C_3
REMARK    3  A    between atoms: C_7  and  N_8
REMARK    4  A    between atoms: N_8  and  C_9
REMARK    5  A    between atoms: C_9  and  C_10
REMARK    6  A    between atoms: C_13  and  C_14
REMARK    7  A    between atoms: C_15  and  C_16
REMARK    8  A    between atoms: C_20  and  C_21
REMARK                            x       y       z     vdW  Elec       q    Type
REMARK                         _______ _______ _______ _____ _____    ______ ____
ROOT
ATOM      1  C   UNL     1      46.441   6.967  12.717  0.00  0.00    +0.000 A 
ATOM      2  C   UNL     1      45.724   8.126  12.428  0.00  0.00    +0.000 A 
ATOM      3  C   UNL     1      46.397   9.330  12.221  0.00  0.00    +0.000 A 
ATOM      4  C   UNL     1      47.804   9.401  12.271  0.00  0.00    +0.000 A 
ATOM      5  C   UNL     1      48.417  10.780  12.306  0.00  0.00    +0.000 C 
ATOM      6  C   UNL     1      48.561   8.205  12.344  0.00  0.00    +0.000 A 
ATOM      7  C   UNL     1      47.840   7.007  12.596  0.00  0.00    +0.000 A 
ENDROOT
BRANCH   6   8
ATOM      8  C   UNL     1      50.042   8.138  12.153  0.00  0.00    +0.000 A 
ATOM      9  C   UNL     1      50.942   8.598  13.135  0.00  0.00    +0.000 A 
ATOM     10  C   UNL     1      52.326   8.609  12.934  0.00  0.00    +0.000 A 
ATOM     11  C   UNL     1      52.854   8.211  11.713  0.00  0.00    +0.000 A 
ATOM     12  C   UNL     1      51.994   7.773  10.707  0.00  0.00    +0.000 A 
ATOM     13  C   UNL     1      50.610   7.712  10.937  0.00  0.00    +0.000 A 
BRANCH  12  14
ATOM     14  C   UNL     1      52.518   7.419   9.424  0.00  0.00    +0.000 C 
ATOM     15  N   UNL     1      52.946   7.117   8.384  0.00  0.00    +0.000 NA
ENDBRANCH  12  14
ENDBRANCH   6   8
BRANCH   1  16
ATOM     16  C   UNL     1      45.737   5.728  13.230  0.00  0.00    +0.000 C 
BRANCH  16  17
ATOM     17  N   UNL     1      44.539   5.419  12.467  0.00  0.00    +0.000 N 
ATOM     18  H   UNL     1      43.734   5.189  13.044  0.00  0.00    +0.000 HD
BRANCH  17  23
ATOM     19  C   UNL     1      45.227   4.259   8.970  0.00  0.00    +0.000 A 
ATOM     20  C   UNL     1      44.584   3.033   9.054  0.00  0.00    +0.000 A 
ATOM     21  N   UNL     1      43.944   2.587  10.161  0.00  0.00    +0.000 NA
ATOM     22  C   UNL     1      43.971   3.410  11.234  0.00  0.00    +0.000 A 
ATOM     23  C   UNL     1      44.625   4.648  11.298  0.00  0.00    +0.000 A 
ATOM     24  C   UNL     1      45.220   5.076  10.104  0.00  0.00    +0.000 A 
BRANCH  19  26
ATOM     25  C   UNL     1      46.597   3.515   7.173  0.00  0.00    +0.000 C 
ATOM     26  O   UNL     1      45.808   4.540   7.762  0.00  0.00    +0.000 OA
ENDBRANCH  19  26
ENDBRANCH  17  23
ENDBRANCH  16  17
ENDBRANCH   1  16
TORSDOF 6
ENDMDL
