MODEL 1
REMARK VINA RESULT:    -6.828      0.000      0.000
REMARK INTER + INTRA:         -11.486
REMARK INTER:                 -10.021
REMARK INTRA:                  -1.464
REMARK UNBOUND:                -1.464
REMARK  Name = 
REMARK  9 active torsions:
REMARK  status: ('A' for Active; 'I' for Inactive)
REMARK    1  A    between atoms: C_1  and  O_2
REMARK    2  A    between atoms: O_2  and  C_3
REMARK    3  A    between atoms: C_3  and  C_4
REMARK    4  A    between atoms: C_4  and  N_5
REMARK    5  A    between atoms: N_5  and  C_6
REMARK    6  A    between atoms: C_6  and  C_7
REMARK    7  A    between atoms: C_10  and  C_11
REMARK    8  A    between atoms: C_11  and  C_12
REMARK    9  A    between atoms: C_20  and  C_22
REMARK                            x       y       z     vdW  Elec       q    Type
REMARK                         _______ _______ _______ _____ _____    ______ ____
ROOT
ATOM      1  N   UNL     1      46.852   7.024  12.116  0.00  0.00    +0.000 N 
ATOM      2  C   UNL     1      45.572   6.706  11.586  0.00  0.00    +0.000 C 
ATOM      3  O   UNL     1      44.820   7.592  11.174  0.00  0.00    +0.000 OA
ENDROOT
BRANCH   2   4
ATOM      4  C   UNL     1      45.055   5.310  11.572  0.00  0.00    +0.000 A 
ATOM      5  C   UNL     1      44.356   4.673  12.586  0.00  0.00    +0.000 A 
ATOM      6  S   UNL     1      43.796   3.110  12.186  0.00  0.00    +0.000 S 
ATOM      7  C   UNL     1      44.332   3.279  10.587  0.00  0.00    +0.000 A 
ATOM      8  N   UNL     1      44.040   2.332   9.656  0.00  0.00    +0.000 NA
ATOM      9  C   UNL     1      44.444   2.629   8.465  0.00  0.00    +0.000 A 
ATOM     10  N   UNL     1      45.150   3.758   8.133  0.00  0.00    +0.000 N 
ATOM     11  C   UNL     1      45.594   4.667   9.068  0.00  0.00    +0.000 A 
ATOM     12  O   UNL     1      46.432   5.512   8.779  0.00  0.00    +0.000 OA
ATOM     13  C   UNL     1      45.037   4.456  10.400  0.00  0.00    +0.000 A 
ATOM     14  H   UNL     1      45.506   3.886   7.199  0.00  0.00    +0.000 HD
ENDBRANCH   2   4
BRANCH   1  15
ATOM     15  C   UNL     1      47.217   8.450  12.149  0.00  0.00    +0.000 C 
BRANCH  15  16
ATOM     16  C   UNL     1      48.665   8.793  11.771  0.00  0.00    +0.000 C 
BRANCH  16  18
ATOM     17  C   UNL     1      50.753   8.428  12.790  0.00  0.00    +0.000 C 
ATOM     18  O   UNL     1      49.471   9.028  12.927  0.00  0.00    +0.000 OA
ENDBRANCH  16  18
ENDBRANCH  15  16
ENDBRANCH   1  15
BRANCH   1  19
ATOM     19  C   UNL     1      47.620   6.039  12.860  0.00  0.00    +0.000 C 
BRANCH  19  20
ATOM     20  C   UNL     1      47.562   5.829  14.355  0.00  0.00    +0.000 A 
ATOM     21  C   UNL     1      46.877   4.718  14.880  0.00  0.00    +0.000 A 
ATOM     22  C   UNL     1      47.147   4.244  16.172  0.00  0.00    +0.000 A 
ATOM     23  C   UNL     1      48.103   4.875  16.970  0.00  0.00    +0.000 A 
ATOM     24  C   UNL     1      48.673   6.070  16.496  0.00  0.00    +0.000 A 
ATOM     25  C   UNL     1      48.415   6.540  15.204  0.00  0.00    +0.000 A 
BRANCH  23  26
ATOM     26  C   UNL     1      48.523   4.362  18.332  0.00  0.00    +0.000 C 
BRANCH  26  27
ATOM     27  C   UNL     1      49.697   3.352  18.463  0.00  0.00    +0.000 C 
ATOM     28  C   UNL     1      49.895   2.472  17.214  0.00  0.00    +0.000 C 
ATOM     29  C   UNL     1      51.219   1.701  17.254  0.00  0.00    +0.000 C 
ATOM     30  C   UNL     1      52.404   2.603  17.585  0.00  0.00    +0.000 C 
ATOM     31  N   UNL     1      52.172   3.312  18.841  0.00  0.00    +0.000 NA
ATOM     32  C   UNL     1      50.985   4.159  18.745  0.00  0.00    +0.000 C 
ATOM     33  H   UNL     1      52.983   3.893  19.050  0.00  0.00    +0.000 HD
ENDBRANCH  26  27
ENDBRANCH  23  26
ENDBRANCH  19  20
ENDBRANCH   1  19
TORSDOF 8
ENDMDL
MODEL 2
REMARK VINA RESULT:    -6.577      2.945      7.746
REMARK INTER + INTRA:         -11.117
REMARK INTER:                  -9.634
REMARK INTRA:                  -1.484
REMARK UNBOUND:                -1.464
REMARK  Name = 
REMARK  9 active torsions:
REMARK  status: ('A' for Active; 'I' for Inactive)
REMARK    1  A    between atoms: C_1  and  O_2
REMARK    2  A    between atoms: O_2  and  C_3
REMARK    3  A    between atoms: C_3  and  C_4
REMARK    4  A    between atoms: C_4  and  N_5
REMARK    5  A    between atoms: N_5  and  C_6
REMARK    6  A    between atoms: C_6  and  C_7
REMARK    7  A    between atoms: C_10  and  C_11
REMARK    8  A    between atoms: C_11  and  C_12
REMARK    9  A    between atoms: C_20  and  C_22
REMARK                            x       y       z     vdW  Elec       q    Type
REMARK                         _______ _______ _______ _____ _____    ______ ____
ROOT
ATOM      1  N   UNL     1      48.574   7.478  15.919  0.00  0.00    +0.000 N 
ATOM      2  C   UNL     1      48.404   6.912  17.212  0.00  0.00    +0.000 C 
ATOM      3  O   UNL     1      48.335   7.630  18.212  0.00  0.00    +0.000 OA
ENDROOT
BRANCH   2   4
ATOM      4  C   UNL     1      48.376   5.439  17.427  0.00  0.00    +0.000 A 
ATOM      5  C   UNL     1      47.267   4.610  17.353  0.00  0.00    +0.000 A 
ATOM      6  S   UNL     1      47.613   2.947  17.526  0.00  0.00    +0.000 S 
ATOM      7  C   UNL     1      49.281   3.253  17.554  0.00  0.00    +0.000 A 
ATOM      8  N   UNL     1      50.172   2.225  17.549  0.00  0.00    +0.000 NA
ATOM      9  C   UNL     1      51.406   2.606  17.493  0.00  0.00    +0.000 A 
ATOM     10  N   UNL     1      51.826   3.912  17.490  0.00  0.00    +0.000 N 
ATOM     11  C   UNL     1      50.967   4.977  17.644  0.00  0.00    +0.000 A 
ATOM     12  O   UNL     1      51.390   6.098  17.897  0.00  0.00    +0.000 OA
ATOM     13  C   UNL     1      49.558   4.609  17.559  0.00  0.00    +0.000 A 
ATOM     14  H   UNL     1      52.808   4.136  17.529  0.00  0.00    +0.000 HD
ENDBRANCH   2   4
BRANCH   1  15
ATOM     15  C   UNL     1      48.667   8.945  15.847  0.00  0.00    +0.000 C 
BRANCH  15  16
ATOM     16  C   UNL     1      49.985   9.520  15.311  0.00  0.00    +0.000 C 
BRANCH  16  18
ATOM     17  C   UNL     1      51.143   9.681  17.352  0.00  0.00    +0.000 C 
ATOM     18  O   UNL     1      51.106   9.066  16.071  0.00  0.00    +0.000 OA
ENDBRANCH  16  18
ENDBRANCH  15  16
ENDBRANCH   1  15
BRANCH   1  19
ATOM     19  C   UNL     1      48.942   6.649  14.783  0.00  0.00    +0.000 C 
BRANCH  19  20
ATOM     20  C   UNL     1      48.002   6.187  13.694  0.00  0.00    +0.000 A 
ATOM     21  C   UNL     1      47.128   5.111  13.933  0.00  0.00    +0.000 A 
ATOM     22  C   UNL     1      45.976   4.924  13.156  0.00  0.00    +0.000 A 
ATOM     23  C   UNL     1      45.675   5.808  12.117  0.00  0.00    +0.000 A 
ATOM     24  C   UNL     1      46.627   6.790  11.790  0.00  0.00    +0.000 A 
ATOM     25  C   UNL     1      47.773   6.986  12.570  0.00  0.00    +0.000 A 
BRANCH  23  26
ATOM     26  C   UNL     1      44.401   5.735  11.303  0.00  0.00    +0.000 C 
BRANCH  26  27
ATOM     27  C   UNL     1      44.226   4.642  10.212  0.00  0.00    +0.000 C 
ATOM     28  C   UNL     1      45.341   4.651   9.147  0.00  0.00    +0.000 C 
ATOM     29  C   UNL     1      45.306   3.398   8.264  0.00  0.00    +0.000 C 
ATOM     30  C   UNL     1      45.227   2.114   9.085  0.00  0.00    +0.000 C 
ATOM     31  N   UNL     1      44.076   2.153   9.985  0.00  0.00    +0.000 NA
ATOM     32  C   UNL     1      44.190   3.269  10.921  0.00  0.00    +0.000 C 
ATOM     33  H   UNL     1      44.033   1.278  10.508  0.00  0.00    +0.000 HD
ENDBRANCH  26  27
ENDBRANCH  23  26
ENDBRANCH  19  20
ENDBRANCH   1  19
TORSDOF 8
ENDMDL
MODEL 3
REMARK VINA RESULT:    -6.542      2.917      7.993
REMARK INTER + INTRA:         -11.066
REMARK INTER:                  -9.535
REMARK INTRA:                  -1.531
REMARK UNBOUND:                -1.464
REMARK  Name = 
REMARK  9 active torsions:
REMARK  status: ('A' for Active; 'I' for Inactive)
REMARK    1  A    between atoms: C_1  and  O_2
REMARK    2  A    between atoms: O_2  and  C_3
REMARK    3  A    between atoms: C_3  and  C_4
REMARK    4  A    between atoms: C_4  and  N_5
REMARK    5  A    between atoms: N_5  and  C_6
REMARK    6  A    between atoms: C_6  and  C_7
REMARK    7  A    between atoms: C_10  and  C_11
REMARK    8  A    between atoms: C_11  and  C_12
REMARK    9  A    between atoms: C_20  and  C_22
REMARK                            x       y       z     vdW  Elec       q    Type
REMARK                         _______ _______ _______ _____ _____    ______ ____
ROOT
ATOM      1  N   UNL     1      49.260   7.822  14.523  0.00  0.00    +0.000 N 
ATOM      2  C   UNL     1      49.727   6.940  15.536  0.00  0.00    +0.000 C 
ATOM      3  O   UNL     1      50.921   6.644  15.614  0.00  0.00    +0.000 OA
ENDROOT
BRANCH   2   4
ATOM      4  C   UNL     1      48.796   6.281  16.493  0.00  0.00    +0.000 A 
ATOM      5  C   UNL     1      48.311   4.984  16.420  0.00  0.00    +0.000 A 
ATOM      6  S   UNL     1      47.363   4.506  17.757  0.00  0.00    +0.000 S 
ATOM      7  C   UNL     1      47.687   5.963  18.563  0.00  0.00    +0.000 A 
ATOM      8  N   UNL     1      47.276   6.149  19.846  0.00  0.00    +0.000 NA
ATOM      9  C   UNL     1      47.660   7.272  20.358  0.00  0.00    +0.000 A 
ATOM     10  N   UNL     1      48.372   8.237  19.692  0.00  0.00    +0.000 N 
ATOM     11  C   UNL     1      48.679   8.153  18.352  0.00  0.00    +0.000 A 
ATOM     12  O   UNL     1      49.078   9.131  17.733  0.00  0.00    +0.000 OA
ATOM     13  C   UNL     1      48.401   6.845  17.769  0.00  0.00    +0.000 A 
ATOM     14  H   UNL     1      48.566   9.125  20.127  0.00  0.00    +0.000 HD
ENDBRANCH   2   4
BRANCH   1  15
ATOM     15  C   UNL     1      50.268   8.346  13.587  0.00  0.00    +0.000 C 
BRANCH  15  16
ATOM     16  C   UNL     1      50.218   7.801  12.154  0.00  0.00    +0.000 C 
BRANCH  16  18
ATOM     17  C   UNL     1      49.477   9.960  11.585  0.00  0.00    +0.000 C 
ATOM     18  O   UNL     1      50.274   8.851  11.188  0.00  0.00    +0.000 OA
ENDBRANCH  16  18
ENDBRANCH  15  16
ENDBRANCH   1  15
BRANCH   1  19
ATOM     19  C   UNL     1      47.840   7.951  14.241  0.00  0.00    +0.000 C 
BRANCH  19  20
ATOM     20  C   UNL     1      47.092   7.218  13.151  0.00  0.00    +0.000 A 
ATOM     21  C   UNL     1      47.019   5.814  13.175  0.00  0.00    +0.000 A 
ATOM     22  C   UNL     1      46.017   5.127  12.474  0.00  0.00    +0.000 A 
ATOM     23  C   UNL     1      45.069   5.831  11.729  0.00  0.00    +0.000 A 
ATOM     24  C   UNL     1      45.237   7.221  11.590  0.00  0.00    +0.000 A 
ATOM     25  C   UNL     1      46.230   7.910  12.296  0.00  0.00    +0.000 A 
BRANCH  23  26
ATOM     26  C   UNL     1      43.898   5.171  11.031  0.00  0.00    +0.000 C 
BRANCH  26  27
ATOM     27  C   UNL     1      44.132   4.258   9.796  0.00  0.00    +0.000 C 
ATOM     28  C   UNL     1      45.358   4.663   8.955  0.00  0.00    +0.000 C 
ATOM     29  C   UNL     1      45.732   3.590   7.926  0.00  0.00    +0.000 C 
ATOM     30  C   UNL     1      45.824   2.199   8.547  0.00  0.00    +0.000 C 
ATOM     31  N   UNL     1      44.576   1.860   9.227  0.00  0.00    +0.000 NA
ATOM     32  C   UNL     1      44.301   2.808  10.305  0.00  0.00    +0.000 C 
ATOM     33  H   UNL     1      44.654   0.921   9.618  0.00  0.00    +0.000 HD
ENDBRANCH  26  27
ENDBRANCH  23  26
ENDBRANCH  19  20
ENDBRANCH   1  19
TORSDOF 8
ENDMDL
MODEL 4
REMARK VINA RESULT:    -6.463      3.402      7.894
REMARK INTER + INTRA:         -10.949
REMARK INTER:                  -9.331
REMARK INTRA:                  -1.618
REMARK UNBOUND:                -1.464
REMARK  Name = 
REMARK  9 active torsions:
REMARK  status: ('A' for Active; 'I' for Inactive)
REMARK    1  A    between atoms: C_1  and  O_2
REMARK    2  A    between atoms: O_2  and  C_3
REMARK    3  A    between atoms: C_3  and  C_4
REMARK    4  A    between atoms: C_4  and  N_5
REMARK    5  A    between atoms: N_5  and  C_6
REMARK    6  A    between atoms: C_6  and  C_7
REMARK    7  A    between atoms: C_10  and  C_11
REMARK    8  A    between atoms: C_11  and  C_12
REMARK    9  A    between atoms: C_20  and  C_22
REMARK                            x       y       z     vdW  Elec       q    Type
REMARK                         _______ _______ _______ _____ _____    ______ ____
ROOT
ATOM      1  N   UNL     1      48.902   7.785  14.461  0.00  0.00    +0.000 N 
ATOM      2  C   UNL     1      49.041   9.191  14.308  0.00  0.00    +0.000 C 
ATOM      3  O   UNL     1      49.100   9.932  15.292  0.00  0.00    +0.000 OA
ENDROOT
BRANCH   2   4
ATOM      4  C   UNL     1      49.045   9.838  12.967  0.00  0.00    +0.000 A 
ATOM      5  C   UNL     1      48.025  10.589  12.403  0.00  0.00    +0.000 A 
ATOM      6  S   UNL     1      48.414  11.295  10.898  0.00  0.00    +0.000 S 
ATOM      7  C   UNL     1      50.016  10.752  11.008  0.00  0.00    +0.000 A 
ATOM      8  N   UNL     1      50.940  11.136  10.087  0.00  0.00    +0.000 NA
ATOM      9  C   UNL     1      52.135  10.711  10.340  0.00  0.00    +0.000 A 
ATOM     10  N   UNL     1      52.476   9.905  11.395  0.00  0.00    +0.000 N 
ATOM     11  C   UNL     1      51.548   9.373  12.263  0.00  0.00    +0.000 A 
ATOM     12  O   UNL     1      51.845   8.461  13.024  0.00  0.00    +0.000 OA
ATOM     13  C   UNL     1      50.213   9.941  12.113  0.00  0.00    +0.000 A 
ATOM     14  H   UNL     1      53.412   9.542  11.485  0.00  0.00    +0.000 HD
ENDBRANCH   2   4
BRANCH   1  15
ATOM     15  C   UNL     1      48.829   7.275  15.840  0.00  0.00    +0.000 C 
BRANCH  15  16
ATOM     16  C   UNL     1      50.027   6.448  16.325  0.00  0.00    +0.000 C 
BRANCH  16  18
ATOM     17  C   UNL     1      48.232   4.961  16.646  0.00  0.00    +0.000 C 
ATOM     18  O   UNL     1      49.647   5.112  16.657  0.00  0.00    +0.000 OA
ENDBRANCH  16  18
ENDBRANCH  15  16
ENDBRANCH   1  15
BRANCH   1  19
ATOM     19  C   UNL     1      48.544   6.942  13.332  0.00  0.00    +0.000 C 
BRANCH  19  20
ATOM     20  C   UNL     1      47.138   6.553  12.940  0.00  0.00    +0.000 A 
ATOM     21  C   UNL     1      46.408   7.365  12.053  0.00  0.00    +0.000 A 
ATOM     22  C   UNL     1      45.315   6.857  11.336  0.00  0.00    +0.000 A 
ATOM     23  C   UNL     1      44.925   5.525  11.494  0.00  0.00    +0.000 A 
ATOM     24  C   UNL     1      45.564   4.764  12.489  0.00  0.00    +0.000 A 
ATOM     25  C   UNL     1      46.661   5.264  13.200  0.00  0.00    +0.000 A 
BRANCH  23  26
ATOM     26  C   UNL     1      43.825   4.876  10.680  0.00  0.00    +0.000 C 
BRANCH  26  27
ATOM     27  C   UNL     1      44.175   3.952   9.481  0.00  0.00    +0.000 C 
ATOM     28  C   UNL     1      45.426   4.401   8.702  0.00  0.00    +0.000 C 
ATOM     29  C   UNL     1      45.912   3.328   7.721  0.00  0.00    +0.000 C 
ATOM     30  C   UNL     1      46.036   1.957   8.378  0.00  0.00    +0.000 C 
ATOM     31  N   UNL     1      44.770   1.569   8.994  0.00  0.00    +0.000 NA
ATOM     32  C   UNL     1      44.386   2.523  10.032  0.00  0.00    +0.000 C 
ATOM     33  H   UNL     1      44.872   0.643   9.410  0.00  0.00    +0.000 HD
ENDBRANCH  26  27
ENDBRANCH  23  26
ENDBRANCH  19  20
ENDBRANCH   1  19
TORSDOF 8
ENDMDL
MODEL 5
REMARK VINA RESULT:    -6.101      3.065      7.883
REMARK INTER + INTRA:         -10.419
REMARK INTER:                  -9.250
REMARK INTRA:                  -1.170
REMARK UNBOUND:                -1.464
REMARK  Name = 
REMARK  9 active torsions:
REMARK  status: ('A' for Active; 'I' for Inactive)
REMARK    1  A    between atoms: C_1  and  O_2
REMARK    2  A    between atoms: O_2  and  C_3
REMARK    3  A    between atoms: C_3  and  C_4
REMARK    4  A    between atoms: C_4  and  N_5
REMARK    5  A    between atoms: N_5  and  C_6
REMARK    6  A    between atoms: C_6  and  C_7
REMARK    7  A    between atoms: C_10  and  C_11
REMARK    8  A    between atoms: C_11  and  C_12
REMARK    9  A    between atoms: C_20  and  C_22
REMARK                            x       y       z     vdW  Elec       q    Type
REMARK                         _______ _______ _______ _____ _____    ______ ____
ROOT
ATOM      1  N   UNL     1      48.073   5.856  15.076  0.00  0.00    +0.000 N 
ATOM      2  C   UNL     1      49.007   6.877  15.399  0.00  0.00    +0.000 C 
ATOM      3  O   UNL     1      49.864   6.699  16.267  0.00  0.00    +0.000 OA
ENDROOT
BRANCH   2   4
ATOM      4  C   UNL     1      48.950   8.222  14.763  0.00  0.00    +0.000 A 
ATOM      5  C   UNL     1      48.619   9.419  15.380  0.00  0.00    +0.000 A 
ATOM      6  S   UNL     1      48.779  10.797  14.384  0.00  0.00    +0.000 S 
ATOM      7  C   UNL     1      49.443   9.868  13.131  0.00  0.00    +0.000 A 
ATOM      8  N   UNL     1      49.934  10.467  12.013  0.00  0.00    +0.000 NA
ATOM      9  C   UNL     1      50.479   9.644  11.178  0.00  0.00    +0.000 A 
ATOM     10  N   UNL     1      50.535   8.283  11.339  0.00  0.00    +0.000 N 
ATOM     11  C   UNL     1      49.919   7.625  12.381  0.00  0.00    +0.000 A 
ATOM     12  O   UNL     1      49.764   6.410  12.356  0.00  0.00    +0.000 OA
ATOM     13  C   UNL     1      49.424   8.515  13.424  0.00  0.00    +0.000 A 
ATOM     14  H   UNL     1      50.901   7.693  10.608  0.00  0.00    +0.000 HD
ENDBRANCH   2   4
BRANCH   1  15
ATOM     15  C   UNL     1      48.184   4.597  15.831  0.00  0.00    +0.000 C 
BRANCH  15  16
ATOM     16  C   UNL     1      46.892   4.067  16.468  0.00  0.00    +0.000 C 
BRANCH  16  18
ATOM     17  C   UNL     1      48.328   3.104  18.062  0.00  0.00    +0.000 C 
ATOM     18  O   UNL     1      47.140   2.933  17.299  0.00  0.00    +0.000 OA
ENDBRANCH  16  18
ENDBRANCH  15  16
ENDBRANCH   1  15
BRANCH   1  19
ATOM     19  C   UNL     1      46.896   6.145  14.274  0.00  0.00    +0.000 C 
BRANCH  19  20
ATOM     20  C   UNL     1      46.541   5.480  12.965  0.00  0.00    +0.000 A 
ATOM     21  C   UNL     1      45.959   4.200  12.964  0.00  0.00    +0.000 A 
ATOM     22  C   UNL     1      45.233   3.732  11.858  0.00  0.00    +0.000 A 
ATOM     23  C   UNL     1      45.080   4.534  10.726  0.00  0.00    +0.000 A 
ATOM     24  C   UNL     1      45.789   5.748  10.675  0.00  0.00    +0.000 A 
ATOM     25  C   UNL     1      46.505   6.222  11.781  0.00  0.00    +0.000 A 
BRANCH  23  26
ATOM     26  C   UNL     1      44.227   4.144   9.536  0.00  0.00    +0.000 C 
BRANCH  26  27
ATOM     27  C   UNL     1      44.800   3.215   8.430  0.00  0.00    +0.000 C 
ATOM     28  C   UNL     1      45.899   3.877   7.577  0.00  0.00    +0.000 C 
ATOM     29  C   UNL     1      46.640   2.862   6.699  0.00  0.00    +0.000 C 
ATOM     30  C   UNL     1      47.103   1.642   7.490  0.00  0.00    +0.000 C 
ATOM     31  N   UNL     1      45.973   1.018   8.175  0.00  0.00    +0.000 NA
ATOM     32  C   UNL     1      45.361   1.950   9.119  0.00  0.00    +0.000 C 
ATOM     33  H   UNL     1      46.303   0.196   8.681  0.00  0.00    +0.000 HD
ENDBRANCH  26  27
ENDBRANCH  23  26
ENDBRANCH  19  20
ENDBRANCH   1  19
TORSDOF 8
ENDMDL
MODEL 6
REMARK VINA RESULT:    -5.938      3.401      7.878
REMARK INTER + INTRA:         -10.179
REMARK INTER:                  -8.535
REMARK INTRA:                  -1.644
REMARK UNBOUND:                -1.464
REMARK  Name = 
REMARK  9 active torsions:
REMARK  status: ('A' for Active; 'I' for Inactive)
REMARK    1  A    between atoms: C_1  and  O_2
REMARK    2  A    between atoms: O_2  and  C_3
REMARK    3  A    between atoms: C_3  and  C_4
REMARK    4  A    between atoms: C_4  and  N_5
REMARK    5  A    between atoms: N_5  and  C_6
REMARK    6  A    between atoms: C_6  and  C_7
REMARK    7  A    between atoms: C_10  and  C_11
REMARK    8  A    between atoms: C_11  and  C_12
REMARK    9  A    between atoms: C_20  and  C_22
REMARK                            x       y       z     vdW  Elec       q    Type
REMARK                         _______ _______ _______ _____ _____    ______ ____
ROOT
ATOM      1  N   UNL     1      50.103   8.250  13.341  0.00  0.00    +0.000 N 
ATOM      2  C   UNL     1      50.697   8.443  14.618  0.00  0.00    +0.000 C 
ATOM      3  O   UNL     1      51.482   9.372  14.817  0.00  0.00    +0.000 OA
ENDROOT
BRANCH   2   4
ATOM      4  C   UNL     1      50.459   7.498  15.744  0.00  0.00    +0.000 A 
ATOM      5  C   UNL     1      51.309   6.492  16.178  0.00  0.00    +0.000 A 
ATOM      6  S   UNL     1      50.783   5.677  17.583  0.00  0.00    +0.000 S 
ATOM      7  C   UNL     1      49.470   6.736  17.758  0.00  0.00    +0.000 A 
ATOM      8  N   UNL     1      48.675   6.674  18.860  0.00  0.00    +0.000 NA
ATOM      9  C   UNL     1      47.764   7.590  18.897  0.00  0.00    +0.000 A 
ATOM     10  N   UNL     1      47.549   8.525  17.916  0.00  0.00    +0.000 N 
ATOM     11  C   UNL     1      48.232   8.528  16.720  0.00  0.00    +0.000 A 
ATOM     12  O   UNL     1      47.844   9.200  15.773  0.00  0.00    +0.000 OA
ATOM     13  C   UNL     1      49.368   7.614  16.693  0.00  0.00    +0.000 A 
ATOM     14  H   UNL     1      46.767   9.158  17.971  0.00  0.00    +0.000 HD
ENDBRANCH   2   4
BRANCH   1  15
ATOM     15  C   UNL     1      50.480   9.206  12.287  0.00  0.00    +0.000 C 
BRANCH  15  16
ATOM     16  C   UNL     1      51.424   8.682  11.196  0.00  0.00    +0.000 C 
BRANCH  16  18
ATOM     17  C   UNL     1      53.580   8.869  10.275  0.00  0.00    +0.000 C 
ATOM     18  O   UNL     1      52.773   9.088  11.426  0.00  0.00    +0.000 OA
ENDBRANCH  16  18
ENDBRANCH  15  16
ENDBRANCH   1  15
BRANCH   1  19
ATOM     19  C   UNL     1      49.414   7.012  13.016  0.00  0.00    +0.000 C 
BRANCH  19  20
ATOM     20  C   UNL     1      47.915   6.836  12.945  0.00  0.00    +0.000 A 
ATOM     21  C   UNL     1      47.148   7.682  12.123  0.00  0.00    +0.000 A 
ATOM     22  C   UNL     1      45.868   7.308  11.691  0.00  0.00    +0.000 A 
ATOM     23  C   UNL     1      45.323   6.082  12.076  0.00  0.00    +0.000 A 
ATOM     24  C   UNL     1      46.032   5.310  13.015  0.00  0.00    +0.000 A 
ATOM     25  C   UNL     1      47.314   5.676  13.440  0.00  0.00    +0.000 A 
BRANCH  23  26
ATOM     26  C   UNL     1      43.994   5.562  11.567  0.00  0.00    +0.000 C 
BRANCH  26  27
ATOM     27  C   UNL     1      43.945   4.539  10.399  0.00  0.00    +0.000 C 
ATOM     28  C   UNL     1      45.085   4.716   9.377  0.00  0.00    +0.000 C 
ATOM     29  C   UNL     1      45.183   3.530   8.410  0.00  0.00    +0.000 C 
ATOM     30  C   UNL     1      45.190   2.189   9.137  0.00  0.00    +0.000 C 
ATOM     31  N   UNL     1      44.015   2.068   9.997  0.00  0.00    +0.000 NA
ATOM     32  C   UNL     1      44.006   3.120  11.011  0.00  0.00    +0.000 C 
ATOM     33  H   UNL     1      44.031   1.158  10.458  0.00  0.00    +0.000 HD
ENDBRANCH  26  27
ENDBRANCH  23  26
ENDBRANCH  19  20
ENDBRANCH   1  19
TORSDOF 8
ENDMDL
MODEL 7
REMARK VINA RESULT:    -5.850      3.807      7.899
REMARK INTER + INTRA:         -10.050
REMARK INTER:                  -8.041
REMARK INTRA:                  -2.009
REMARK UNBOUND:                -1.464
REMARK  Name = 
REMARK  9 active torsions:
REMARK  status: ('A' for Active; 'I' for Inactive)
REMARK    1  A    between atoms: C_1  and  O_2
REMARK    2  A    between atoms: O_2  and  C_3
REMARK    3  A    between atoms: C_3  and  C_4
REMARK    4  A    between atoms: C_4  and  N_5
REMARK    5  A    between atoms: N_5  and  C_6
REMARK    6  A    between atoms: C_6  and  C_7
REMARK    7  A    between atoms: C_10  and  C_11
REMARK    8  A    between atoms: C_11  and  C_12
REMARK    9  A    between atoms: C_20  and  C_22
REMARK                            x       y       z     vdW  Elec       q    Type
REMARK                         _______ _______ _______ _____ _____    ______ ____
ROOT
ATOM      1  N   UNL     1      48.444   7.781  18.403  0.00  0.00    +0.000 N 
ATOM      2  C   UNL     1      48.681   6.553  19.079  0.00  0.00    +0.000 C 
ATOM      3  O   UNL     1      48.075   6.275  20.116  0.00  0.00    +0.000 OA
ENDROOT
BRANCH   2   4
ATOM      4  C   UNL     1      49.714   5.588  18.612  0.00  0.00    +0.000 A 
ATOM      5  C   UNL     1      51.031   5.509  19.041  0.00  0.00    +0.000 A 
ATOM      6  S   UNL     1      51.909   4.196  18.392  0.00  0.00    +0.000 S 
ATOM      7  C   UNL     1      50.522   3.589  17.629  0.00  0.00    +0.000 A 
ATOM      8  N   UNL     1      50.552   2.384  16.999  0.00  0.00    +0.000 NA
ATOM      9  C   UNL     1      49.406   2.012  16.531  0.00  0.00    +0.000 A 
ATOM     10  N   UNL     1      48.253   2.753  16.595  0.00  0.00    +0.000 N 
ATOM     11  C   UNL     1      48.213   4.038  17.091  0.00  0.00    +0.000 A 
ATOM     12  O   UNL     1      47.243   4.759  16.897  0.00  0.00    +0.000 OA
ATOM     13  C   UNL     1      49.441   4.443  17.765  0.00  0.00    +0.000 A 
ATOM     14  H   UNL     1      47.413   2.438  16.136  0.00  0.00    +0.000 HD
ENDBRANCH   2   4
BRANCH   1  15
ATOM     15  C   UNL     1      47.454   8.688  19.007  0.00  0.00    +0.000 C 
BRANCH  15  16
ATOM     16  C   UNL     1      48.008   9.805  19.901  0.00  0.00    +0.000 C 
BRANCH  16  18
ATOM     17  C   UNL     1      47.492  11.394  18.246  0.00  0.00    +0.000 C 
ATOM     18  O   UNL     1      47.386  11.060  19.624  0.00  0.00    +0.000 OA
ENDBRANCH  16  18
ENDBRANCH  15  16
ENDBRANCH   1  15
BRANCH   1  19
ATOM     19  C   UNL     1      49.343   8.245  17.359  0.00  0.00    +0.000 C 
BRANCH  19  20
ATOM     20  C   UNL     1      49.073   8.172  15.874  0.00  0.00    +0.000 A 
ATOM     21  C   UNL     1      49.487   7.045  15.141  0.00  0.00    +0.000 A 
ATOM     22  C   UNL     1      48.905   6.729  13.905  0.00  0.00    +0.000 A 
ATOM     23  C   UNL     1      47.900   7.538  13.371  0.00  0.00    +0.000 A 
ATOM     24  C   UNL     1      47.597   8.741  14.036  0.00  0.00    +0.000 A 
ATOM     25  C   UNL     1      48.169   9.054  15.275  0.00  0.00    +0.000 A 
BRANCH  23  26
ATOM     26  C   UNL     1      47.152   7.208  12.096  0.00  0.00    +0.000 C 
BRANCH  26  27
ATOM     27  C   UNL     1      46.305   5.909  11.996  0.00  0.00    +0.000 C 
ATOM     28  C   UNL     1      45.302   5.738  13.153  0.00  0.00    +0.000 C 
ATOM     29  C   UNL     1      44.291   4.617  12.880  0.00  0.00    +0.000 C 
ATOM     30  C   UNL     1      43.650   4.739  11.502  0.00  0.00    +0.000 C 
ATOM     31  N   UNL     1      44.676   4.784  10.462  0.00  0.00    +0.000 NA
ATOM     32  C   UNL     1      45.549   5.941  10.648  0.00  0.00    +0.000 C 
ATOM     33  H   UNL     1      44.224   4.847   9.550  0.00  0.00    +0.000 HD
ENDBRANCH  26  27
ENDBRANCH  23  26
ENDBRANCH  19  20
ENDBRANCH   1  19
TORSDOF 8
ENDMDL
MODEL 8
REMARK VINA RESULT:    -5.745      1.972      2.996
REMARK INTER + INTRA:          -9.896
REMARK INTER:                  -8.636
REMARK INTRA:                  -1.260
REMARK UNBOUND:                -1.464
REMARK  Name = 
REMARK  9 active torsions:
REMARK  status: ('A' for Active; 'I' for Inactive)
REMARK    1  A    between atoms: C_1  and  O_2
REMARK    2  A    between atoms: O_2  and  C_3
REMARK    3  A    between atoms: C_3  and  C_4
REMARK    4  A    between atoms: C_4  and  N_5
REMARK    5  A    between atoms: N_5  and  C_6
REMARK    6  A    between atoms: C_6  and  C_7
REMARK    7  A    between atoms: C_10  and  C_11
REMARK    8  A    between atoms: C_11  and  C_12
REMARK    9  A    between atoms: C_20  and  C_22
REMARK                            x       y       z     vdW  Elec       q    Type
REMARK                         _______ _______ _______ _____ _____    ______ ____
ROOT
ATOM      1  N   UNL     1      46.316   7.429  12.336  0.00  0.00    +0.000 N 
ATOM      2  C   UNL     1      45.271   7.258  11.387  0.00  0.00    +0.000 C 
ATOM      3  O   UNL     1      44.491   8.178  11.134  0.00  0.00    +0.000 OA
ENDROOT
BRANCH   2   4
ATOM      4  C   UNL     1      45.027   5.951  10.717  0.00  0.00    +0.000 A 
ATOM      5  C   UNL     1      45.566   5.520   9.515  0.00  0.00    +0.000 A 
ATOM      6  S   UNL     1      45.177   3.910   9.100  0.00  0.00    +0.000 S 
ATOM      7  C   UNL     1      44.395   3.671  10.586  0.00  0.00    +0.000 A 
ATOM      8  N   UNL     1      43.941   2.438  10.936  0.00  0.00    +0.000 NA
ATOM      9  C   UNL     1      43.438   2.387  12.126  0.00  0.00    +0.000 A 
ATOM     10  N   UNL     1      43.307   3.460  12.970  0.00  0.00    +0.000 N 
ATOM     11  C   UNL     1      43.616   4.750  12.599  0.00  0.00    +0.000 A 
ATOM     12  O   UNL     1      43.248   5.706  13.270  0.00  0.00    +0.000 OA
ATOM     13  C   UNL     1      44.326   4.838  11.327  0.00  0.00    +0.000 A 
ATOM     14  H   UNL     1      42.828   3.365  13.852  0.00  0.00    +0.000 HD
ENDBRANCH   2   4
BRANCH   1  15
ATOM     15  C   UNL     1      46.405   8.745  12.990  0.00  0.00    +0.000 C 
BRANCH  15  16
ATOM     16  C   UNL     1      47.474   9.705  12.450  0.00  0.00    +0.000 C 
BRANCH  16  18
ATOM     17  C   UNL     1      49.787   9.446  12.113  0.00  0.00    +0.000 C 
ATOM     18  O   UNL     1      48.490   9.010  11.726  0.00  0.00    +0.000 OA
ENDBRANCH  16  18
ENDBRANCH  15  16
ENDBRANCH   1  15
BRANCH   1  19
ATOM     19  C   UNL     1      47.053   6.287  12.852  0.00  0.00    +0.000 C 
BRANCH  19  20
ATOM     20  C   UNL     1      47.552   6.134  14.270  0.00  0.00    +0.000 A 
ATOM     21  C   UNL     1      47.147   5.030  15.040  0.00  0.00    +0.000 A 
ATOM     22  C   UNL     1      47.886   4.612  16.157  0.00  0.00    +0.000 A 
ATOM     23  C   UNL     1      49.045   5.296  16.530  0.00  0.00    +0.000 A 
ATOM     24  C   UNL     1      49.361   6.484  15.847  0.00  0.00    +0.000 A 
ATOM     25  C   UNL     1      48.631   6.897  14.726  0.00  0.00    +0.000 A 
BRANCH  23  26
ATOM     26  C   UNL     1      49.952   4.846  17.657  0.00  0.00    +0.000 C 
BRANCH  26  27
ATOM     27  C   UNL     1      49.612   5.204  19.130  0.00  0.00    +0.000 C 
ATOM     28  C   UNL     1      48.931   6.577  19.289  0.00  0.00    +0.000 C 
ATOM     29  C   UNL     1      48.350   6.775  20.694  0.00  0.00    +0.000 C 
ATOM     30  C   UNL     1      47.496   5.591  21.139  0.00  0.00    +0.000 C 
ATOM     31  N   UNL     1      48.262   4.349  21.058  0.00  0.00    +0.000 NA
ATOM     32  C   UNL     1      48.689   4.094  19.684  0.00  0.00    +0.000 C 
ATOM     33  H   UNL     1      47.678   3.576  21.377  0.00  0.00    +0.000 HD
ENDBRANCH  26  27
ENDBRANCH  23  26
ENDBRANCH  19  20
ENDBRANCH   1  19
TORSDOF 8
ENDMDL
MODEL 9
REMARK VINA RESULT:    -5.679      2.527      7.846
REMARK INTER + INTRA:          -9.800
REMARK INTER:                  -8.491
REMARK INTRA:                  -1.308
REMARK UNBOUND:                -1.464
REMARK  Name = 
REMARK  9 active torsions:
REMARK  status: ('A' for Active; 'I' for Inactive)
REMARK    1  A    between atoms: C_1  and  O_2
REMARK    2  A    between atoms: O_2  and  C_3
REMARK    3  A    between atoms: C_3  and  C_4
REMARK    4  A    between atoms: C_4  and  N_5
REMARK    5  A    between atoms: N_5  and  C_6
REMARK    6  A    between atoms: C_6  and  C_7
REMARK    7  A    between atoms: C_10  and  C_11
REMARK    8  A    between atoms: C_11  and  C_12
REMARK    9  A    between atoms: C_20  and  C_22
REMARK                            x       y       z     vdW  Elec       q    Type
REMARK                         _______ _______ _______ _____ _____    ______ ____
ROOT
ATOM      1  N   UNL     1      49.779   8.254  13.858  0.00  0.00    +0.000 N 
ATOM      2  C   UNL     1      50.094   8.389  15.237  0.00  0.00    +0.000 C 
ATOM      3  O   UNL     1      50.772   9.336  15.641  0.00  0.00    +0.000 OA
ENDROOT
BRANCH   2   4
ATOM      4  C   UNL     1      49.689   7.363  16.238  0.00  0.00    +0.000 A 
ATOM      5  C   UNL     1      48.399   7.082  16.662  0.00  0.00    +0.000 A 
ATOM      6  S   UNL     1      48.279   5.752  17.727  0.00  0.00    +0.000 S 
ATOM      7  C   UNL     1      49.928   5.402  17.546  0.00  0.00    +0.000 A 
ATOM      8  N   UNL     1      50.460   4.279  18.097  0.00  0.00    +0.000 NA
ATOM      9  C   UNL     1      51.708   4.100  17.813  0.00  0.00    +0.000 A 
ATOM     10  N   UNL     1      52.477   4.961  17.073  0.00  0.00    +0.000 N 
ATOM     11  C   UNL     1      52.018   6.180  16.623  0.00  0.00    +0.000 A 
ATOM     12  O   UNL     1      52.791   7.029  16.198  0.00  0.00    +0.000 OA
ATOM     13  C   UNL     1      50.579   6.359  16.787  0.00  0.00    +0.000 A 
ATOM     14  H   UNL     1      53.466   4.802  16.960  0.00  0.00    +0.000 HD
ENDBRANCH   2   4
BRANCH   1  15
ATOM     15  C   UNL     1      50.305   9.292  12.955  0.00  0.00    +0.000 C 
BRANCH  15  16
ATOM     16  C   UNL     1      49.986   9.124  11.464  0.00  0.00    +0.000 C 
BRANCH  16  18
ATOM     17  C   UNL     1      48.711  11.012  12.049  0.00  0.00    +0.000 C 
ATOM     18  O   UNL     1      49.035  10.091  11.016  0.00  0.00    +0.000 OA
ENDBRANCH  16  18
ENDBRANCH  15  16
ENDBRANCH   1  15
BRANCH   1  19
ATOM     19  C   UNL     1      49.237   7.012  13.332  0.00  0.00    +0.000 C 
BRANCH  19  20
ATOM     20  C   UNL     1      47.770   6.710  13.131  0.00  0.00    +0.000 A 
ATOM     21  C   UNL     1      46.983   7.560  12.333  0.00  0.00    +0.000 A 
ATOM     22  C   UNL     1      45.776   7.117  11.772  0.00  0.00    +0.000 A 
ATOM     23  C   UNL     1      45.327   5.815  12.002  0.00  0.00    +0.000 A 
ATOM     24  C   UNL     1      46.041   5.023  12.920  0.00  0.00    +0.000 A 
ATOM     25  C   UNL     1      47.251   5.458  13.473  0.00  0.00    +0.000 A 
BRANCH  23  26
ATOM     26  C   UNL     1      44.092   5.231  11.349  0.00  0.00    +0.000 C 
BRANCH  26  27
ATOM     27  C   UNL     1      44.217   4.356  10.072  0.00  0.00    +0.000 C 
ATOM     28  C   UNL     1      45.428   4.722   9.191  0.00  0.00    +0.000 C 
ATOM     29  C   UNL     1      45.693   3.671   8.107  0.00  0.00    +0.000 C 
ATOM     30  C   UNL     1      45.728   2.254   8.672  0.00  0.00    +0.000 C 
ATOM     31  N   UNL     1      44.493   1.961   9.396  0.00  0.00    +0.000 NA
ATOM     32  C   UNL     1      44.322   2.880  10.519  0.00  0.00    +0.000 C 
ATOM     33  H   UNL     1      44.532   1.004   9.748  0.00  0.00    +0.000 HD
ENDBRANCH  26  27
ENDBRANCH  23  26
ENDBRANCH  19  20
ENDBRANCH   1  19
TORSDOF 8
ENDMDL
