MODEL 1
REMARK VINA RESULT:    -8.125      0.000      0.000
REMARK INTER + INTRA:         -11.315
REMARK INTER:                 -10.500
REMARK INTRA:                  -0.815
REMARK UNBOUND:                -0.815
REMARK  Name = 
REMARK  6 active torsions:
REMARK  status: ('A' for Active; 'I' for Inactive)
REMARK    1  A    between atoms: C_1  and  C_2
REMARK    2  A    between atoms: C_2  and  O_3
REMARK    3  A    between atoms: C_2  and  C_12
REMARK    4  A    between atoms: O_3  and  C_4
REMARK    5  A    between atoms: C_7  and  C_8
REMARK    6  A    between atoms: C_15  and  C_16
REMARK                            x       y       z     vdW  Elec       q    Type
REMARK                         _______ _______ _______ _____ _____    ______ ____
ROOT
ATOM      1  C   UNL     1      42.468   5.219  11.745  0.00  0.00    +0.000 C 
ATOM      2  C   UNL     1      43.760   5.078  10.932  0.00  0.00    +0.000 C 
ENDROOT
BRANCH   2   3
ATOM      3  C   UNL     1      44.985   5.355  11.803  0.00  0.00    +0.000 A 
ATOM      4  C   UNL     1      45.885   6.392  11.516  0.00  0.00    +0.000 A 
ATOM      5  C   UNL     1      46.947   6.684  12.380  0.00  0.00    +0.000 A 
ATOM      6  C   UNL     1      47.145   5.932  13.539  0.00  0.00    +0.000 A 
ATOM      7  C   UNL     1      46.285   4.866  13.819  0.00  0.00    +0.000 A 
ATOM      8  C   UNL     1      45.211   4.587  12.962  0.00  0.00    +0.000 A 
BRANCH   6   9
ATOM      9  C   UNL     1      48.291   6.296  14.419  0.00  0.00    +0.000 C 
ATOM     10  N   UNL     1      48.110   6.202  15.772  0.00  0.00    +0.000 N 
ATOM     11  O   UNL     1      49.348   6.707  13.961  0.00  0.00    +0.000 OA
ATOM     12  H   UNL     1      47.202   6.113  16.200  0.00  0.00    +0.000 HD
ATOM     13  H   UNL     1      48.864   6.569  16.341  0.00  0.00    +0.000 HD
ENDBRANCH   6   9
ENDBRANCH   2   3
BRANCH   2  14
ATOM     14  O   UNL     1      43.703   3.747  10.392  0.00  0.00    +0.000 OA
BRANCH  14  15
ATOM     15  C   UNL     1      44.540   3.391   9.373  0.00  0.00    +0.000 A 
ATOM     16  C   UNL     1      45.113   4.258   8.445  0.00  0.00    +0.000 A 
ATOM     17  C   UNL     1      46.087   3.786   7.555  0.00  0.00    +0.000 A 
ATOM     18  C   UNL     1      46.473   2.442   7.577  0.00  0.00    +0.000 A 
ATOM     19  C   UNL     1      45.860   1.563   8.471  0.00  0.00    +0.000 A 
ATOM     20  C   UNL     1      44.903   2.040   9.368  0.00  0.00    +0.000 A 
BRANCH  18  21
ATOM     21  C   UNL     1      47.520   1.977   6.714  0.00  0.00    +0.000 C 
ATOM     22  N   UNL     1      48.374   1.618   6.014  0.00  0.00    +0.000 NA
ENDBRANCH  18  21
ENDBRANCH  14  15
ENDBRANCH   2  14
TORSDOF 5
ENDMDL
MODEL 2
REMARK VINA RESULT:    -7.756      0.847      1.382
REMARK INTER + INTRA:         -10.839
REMARK INTER:                 -10.384
REMARK INTRA:                  -0.454
REMARK UNBOUND:                -0.815
REMARK  Name = 
REMARK  6 active torsions:
REMARK  status: ('A' for Active; 'I' for Inactive)
REMARK    1  A    between atoms: C_1  and  C_2
REMARK    2  A    between atoms: C_2  and  O_3
REMARK    3  A    between atoms: C_2  and  C_12
REMARK    4  A    between atoms: O_3  and  C_4
REMARK    5  A    between atoms: C_7  and  C_8
REMARK    6  A    between atoms: C_15  and  C_16
REMARK                            x       y       z     vdW  Elec       q    Type
REMARK                         _______ _______ _______ _____ _____    ______ ____
ROOT
ATOM      1  C   UNL     1      43.384   2.677  11.831  0.00  0.00    +0.000 C 
ATOM      2  C   UNL     1      43.535   4.117  11.330  0.00  0.00    +0.000 C 
ENDROOT
BRANCH   2   3
ATOM      3  C   UNL     1      44.796   4.764  11.902  0.00  0.00    +0.000 A 
ATOM      4  C   UNL     1      45.140   6.097  11.630  0.00  0.00    +0.000 A 
ATOM      5  C   UNL     1      46.249   6.694  12.240  0.00  0.00    +0.000 A 
ATOM      6  C   UNL     1      47.052   5.966  13.119  0.00  0.00    +0.000 A 
ATOM      7  C   UNL     1      46.751   4.624  13.369  0.00  0.00    +0.000 A 
ATOM      8  C   UNL     1      45.628   4.033  12.771  0.00  0.00    +0.000 A 
BRANCH   6   9
ATOM      9  C   UNL     1      48.215   6.660  13.739  0.00  0.00    +0.000 C 
ATOM     10  N   UNL     1      47.998   7.359  14.895  0.00  0.00    +0.000 N 
ATOM     11  O   UNL     1      49.322   6.649  13.219  0.00  0.00    +0.000 OA
ATOM     12  H   UNL     1      47.078   7.606  15.223  0.00  0.00    +0.000 HD
ATOM     13  H   UNL     1      48.779   7.916  15.224  0.00  0.00    +0.000 HD
ENDBRANCH   6   9
ENDBRANCH   2   3
BRANCH   2  14
ATOM     14  O   UNL     1      43.523   4.004   9.897  0.00  0.00    +0.000 OA
BRANCH  14  15
ATOM     15  C   UNL     1      44.583   3.432   9.252  0.00  0.00    +0.000 A 
ATOM     16  C   UNL     1      44.908   2.077   9.257  0.00  0.00    +0.000 A 
ATOM     17  C   UNL     1      45.921   1.598   8.417  0.00  0.00    +0.000 A 
ATOM     18  C   UNL     1      46.627   2.476   7.587  0.00  0.00    +0.000 A 
ATOM     19  C   UNL     1      46.336   3.841   7.622  0.00  0.00    +0.000 A 
ATOM     20  C   UNL     1      45.313   4.312   8.447  0.00  0.00    +0.000 A 
BRANCH  18  21
ATOM     21  C   UNL     1      47.615   1.973   6.677  0.00  0.00    +0.000 C 
ATOM     22  N   UNL     1      48.408   1.576   5.928  0.00  0.00    +0.000 NA
ENDBRANCH  18  21
ENDBRANCH  14  15
ENDBRANCH   2  14
TORSDOF 5
ENDMDL
MODEL 3
REMARK VINA RESULT:    -6.979      1.708      6.438
REMARK INTER + INTRA:          -9.834
REMARK INTER:                  -9.744
REMARK INTRA:                  -0.090
REMARK UNBOUND:                -0.815
REMARK  Name = 
REMARK  6 active torsions:
REMARK  status: ('A' for Active; 'I' for Inactive)
REMARK    1  A    between atoms: C_1  and  C_2
REMARK    2  A    between atoms: C_2  and  O_3
REMARK    3  A    between atoms: C_2  and  C_12
REMARK    4  A    between atoms: O_3  and  C_4
REMARK    5  A    between atoms: C_7  and  C_8
REMARK    6  A    between atoms: C_15  and  C_16
REMARK                            x       y       z     vdW  Elec       q    Type
REMARK                         _______ _______ _______ _____ _____    ______ ____
ROOT
ATOM      1  C   UNL     1      43.374   5.376  10.573  0.00  0.00    +0.000 C 
ATOM      2  C   UNL     1      43.674   3.874  10.641  0.00  0.00    +0.000 C 
ENDROOT
BRANCH   2   3
ATOM      3  C   UNL     1      44.722   3.480   9.601  0.00  0.00    +0.000 A 
ATOM      4  C   UNL     1      45.056   2.141   9.349  0.00  0.00    +0.000 A 
ATOM      5  C   UNL     1      45.950   1.801   8.327  0.00  0.00    +0.000 A 
ATOM      6  C   UNL     1      46.547   2.794   7.549  0.00  0.00    +0.000 A 
ATOM      7  C   UNL     1      46.261   4.136   7.814  0.00  0.00    +0.000 A 
ATOM      8  C   UNL     1      45.350   4.474   8.825  0.00  0.00    +0.000 A 
BRANCH   6   9
ATOM      9  C   UNL     1      47.487   2.366   6.474  0.00  0.00    +0.000 C 
ATOM     10  N   UNL     1      47.395   2.994   5.262  0.00  0.00    +0.000 N 
ATOM     11  O   UNL     1      48.288   1.458   6.644  0.00  0.00    +0.000 OA
ATOM     12  H   UNL     1      46.607   3.561   4.994  0.00  0.00    +0.000 HD
ATOM     13  H   UNL     1      47.965   2.600   4.521  0.00  0.00    +0.000 HD
ENDBRANCH   6   9
ENDBRANCH   2   3
BRANCH   2  14
ATOM     14  O   UNL     1      44.074   3.648  12.003  0.00  0.00    +0.000 OA
BRANCH  14  15
ATOM     15  C   UNL     1      45.141   4.327  12.520  0.00  0.00    +0.000 A 
ATOM     16  C   UNL     1      45.292   5.712  12.549  0.00  0.00    +0.000 A 
ATOM     17  C   UNL     1      46.355   6.284  13.259  0.00  0.00    +0.000 A 
ATOM     18  C   UNL     1      47.281   5.474  13.923  0.00  0.00    +0.000 A 
ATOM     19  C   UNL     1      47.159   4.085  13.849  0.00  0.00    +0.000 A 
ATOM     20  C   UNL     1      46.088   3.518  13.155  0.00  0.00    +0.000 A 
BRANCH  18  21
ATOM     21  C   UNL     1      48.326   6.064  14.708  0.00  0.00    +0.000 C 
ATOM     22  N   UNL     1      49.183   6.538  15.330  0.00  0.00    +0.000 NA
ENDBRANCH  18  21
ENDBRANCH  14  15
ENDBRANCH   2  14
TORSDOF 5
ENDMDL
MODEL 4
REMARK VINA RESULT:    -6.169      2.069      6.293
REMARK INTER + INTRA:          -8.787
REMARK INTER:                  -8.970
REMARK INTRA:                   0.182
REMARK UNBOUND:                -0.815
REMARK  Name = 
REMARK  6 active torsions:
REMARK  status: ('A' for Active; 'I' for Inactive)
REMARK    1  A    between atoms: C_1  and  C_2
REMARK    2  A    between atoms: C_2  and  O_3
REMARK    3  A    between atoms: C_2  and  C_12
REMARK    4  A    between atoms: O_3  and  C_4
REMARK    5  A    between atoms: C_7  and  C_8
REMARK    6  A    between atoms: C_15  and  C_16
REMARK                            x       y       z     vdW  Elec       q    Type
REMARK                         _______ _______ _______ _____ _____    ______ ____
ROOT
ATOM      1  C   UNL     1      43.023   5.390  10.962  0.00  0.00    +0.000 C 
ATOM      2  C   UNL     1      43.684   4.027  11.195  0.00  0.00    +0.000 C 
ENDROOT
BRANCH   2   3
ATOM      3  C   UNL     1      44.548   3.629   9.998  0.00  0.00    +0.000 A 
ATOM      4  C   UNL     1      45.161   4.582   9.171  0.00  0.00    +0.000 A 
ATOM      5  C   UNL     1      46.022   4.193   8.139  0.00  0.00    +0.000 A 
ATOM      6  C   UNL     1      46.272   2.842   7.895  0.00  0.00    +0.000 A 
ATOM      7  C   UNL     1      45.635   1.876   8.681  0.00  0.00    +0.000 A 
ATOM      8  C   UNL     1      44.788   2.268   9.727  0.00  0.00    +0.000 A 
BRANCH   6   9
ATOM      9  C   UNL     1      47.201   2.493   6.784  0.00  0.00    +0.000 C 
ATOM     10  N   UNL     1      47.253   3.337   5.709  0.00  0.00    +0.000 N 
ATOM     11  O   UNL     1      47.867   1.467   6.801  0.00  0.00    +0.000 OA
ATOM     12  H   UNL     1      46.559   4.046   5.532  0.00  0.00    +0.000 HD
ATOM     13  H   UNL     1      47.803   3.011   4.922  0.00  0.00    +0.000 HD
ENDBRANCH   6   9
ENDBRANCH   2   3
BRANCH   2  14
ATOM     14  O   UNL     1      44.410   4.184  12.425  0.00  0.00    +0.000 OA
BRANCH  14  15
ATOM     15  C   UNL     1      45.298   5.212  12.565  0.00  0.00    +0.000 A 
ATOM     16  C   UNL     1      46.687   5.100  12.560  0.00  0.00    +0.000 A 
ATOM     17  C   UNL     1      47.481   6.253  12.542  0.00  0.00    +0.000 A 
ATOM     18  C   UNL     1      46.890   7.521  12.553  0.00  0.00    +0.000 A 
ATOM     19  C   UNL     1      45.500   7.632  12.612  0.00  0.00    +0.000 A 
ATOM     20  C   UNL     1      44.710   6.481  12.611  0.00  0.00    +0.000 A 
BRANCH  18  21
ATOM     21  C   UNL     1      47.704   8.698  12.463  0.00  0.00    +0.000 C 
ATOM     22  N   UNL     1      48.370   9.645  12.376  0.00  0.00    +0.000 NA
ENDBRANCH  18  21
ENDBRANCH  14  15
ENDBRANCH   2  14
TORSDOF 5
ENDMDL
MODEL 5
REMARK VINA RESULT:    -5.820      2.916      8.215
REMARK INTER + INTRA:          -8.337
REMARK INTER:                  -7.657
REMARK INTRA:                  -0.680
REMARK UNBOUND:                -0.815
REMARK  Name = 
REMARK  6 active torsions:
REMARK  status: ('A' for Active; 'I' for Inactive)
REMARK    1  A    between atoms: C_1  and  C_2
REMARK    2  A    between atoms: C_2  and  O_3
REMARK    3  A    between atoms: C_2  and  C_12
REMARK    4  A    between atoms: O_3  and  C_4
REMARK    5  A    between atoms: C_7  and  C_8
REMARK    6  A    between atoms: C_15  and  C_16
REMARK                            x       y       z     vdW  Elec       q    Type
REMARK                         _______ _______ _______ _____ _____    ______ ____
ROOT
ATOM      1  C   UNL     1      48.999   7.482  12.842  0.00  0.00    +0.000 C 
ATOM      2  C   UNL     1      47.939   6.793  13.709  0.00  0.00    +0.000 C 
ENDROOT
BRANCH   2   3
ATOM      3  C   UNL     1      46.892   6.097  12.839  0.00  0.00    +0.000 A 
ATOM      4  C   UNL     1      46.501   6.606  11.592  0.00  0.00    +0.000 A 
ATOM      5  C   UNL     1      45.610   5.902  10.774  0.00  0.00    +0.000 A 
ATOM      6  C   UNL     1      45.073   4.684  11.193  0.00  0.00    +0.000 A 
ATOM      7  C   UNL     1      45.417   4.182  12.452  0.00  0.00    +0.000 A 
ATOM      8  C   UNL     1      46.325   4.879  13.262  0.00  0.00    +0.000 A 
BRANCH   6   9
ATOM      9  C   UNL     1      44.134   3.982  10.275  0.00  0.00    +0.000 C 
ATOM     10  N   UNL     1      44.088   4.398   8.972  0.00  0.00    +0.000 N 
ATOM     11  O   UNL     1      43.392   3.093  10.669  0.00  0.00    +0.000 OA
ATOM     12  H   UNL     1      44.483   5.270   8.658  0.00  0.00    +0.000 HD
ATOM     13  H   UNL     1      43.357   3.982   8.405  0.00  0.00    +0.000 HD
ENDBRANCH   6   9
ENDBRANCH   2   3
BRANCH   2  14
ATOM     14  O   UNL     1      48.688   5.908  14.560  0.00  0.00    +0.000 OA
BRANCH  14  15
ATOM     15  C   UNL     1      48.555   5.995  15.916  0.00  0.00    +0.000 A 
ATOM     16  C   UNL     1      48.809   7.125  16.692  0.00  0.00    +0.000 A 
ATOM     17  C   UNL     1      48.470   7.131  18.051  0.00  0.00    +0.000 A 
ATOM     18  C   UNL     1      47.898   6.000  18.643  0.00  0.00    +0.000 A 
ATOM     19  C   UNL     1      47.693   4.851  17.877  0.00  0.00    +0.000 A 
ATOM     20  C   UNL     1      48.015   4.855  16.519  0.00  0.00    +0.000 A 
BRANCH  18  21
ATOM     21  C   UNL     1      47.488   6.033  20.017  0.00  0.00    +0.000 C 
ATOM     22  N   UNL     1      47.149   6.076  21.126  0.00  0.00    +0.000 NA
ENDBRANCH  18  21
ENDBRANCH  14  15
ENDBRANCH   2  14
TORSDOF 5
ENDMDL
MODEL 6
REMARK VINA RESULT:    -5.324      4.526      7.248
REMARK INTER + INTRA:          -7.696
REMARK INTER:                  -7.009
REMARK INTRA:                  -0.687
REMARK UNBOUND:                -0.815
REMARK  Name = 
REMARK  6 active torsions:
REMARK  status: ('A' for Active; 'I' for Inactive)
REMARK    1  A    between atoms: C_1  and  C_2
REMARK    2  A    between atoms: C_2  and  O_3
REMARK    3  A    between atoms: C_2  and  C_12
REMARK    4  A    between atoms: O_3  and  C_4
REMARK    5  A    between atoms: C_7  and  C_8
REMARK    6  A    between atoms: C_15  and  C_16
REMARK                            x       y       z     vdW  Elec       q    Type
REMARK                         _______ _______ _______ _____ _____    ______ ____
ROOT
ATOM      1  C   UNL     1      46.005   3.263  12.903  0.00  0.00    +0.000 C 
ATOM      2  C   UNL     1      46.848   4.284  13.675  0.00  0.00    +0.000 C 
ENDROOT
BRANCH   2   3
ATOM      3  C   UNL     1      46.519   5.709  13.231  0.00  0.00    +0.000 A 
ATOM      4  C   UNL     1      45.242   6.073  12.776  0.00  0.00    +0.000 A 
ATOM      5  C   UNL     1      44.941   7.403  12.464  0.00  0.00    +0.000 A 
ATOM      6  C   UNL     1      45.915   8.396  12.577  0.00  0.00    +0.000 A 
ATOM      7  C   UNL     1      47.205   8.046  12.986  0.00  0.00    +0.000 A 
ATOM      8  C   UNL     1      47.500   6.716  13.317  0.00  0.00    +0.000 A 
BRANCH   6   9
ATOM      9  C   UNL     1      45.530   9.794  12.233  0.00  0.00    +0.000 C 
ATOM     10  N   UNL     1      44.226  10.161  12.425  0.00  0.00    +0.000 N 
ATOM     11  O   UNL     1      46.332  10.583  11.753  0.00  0.00    +0.000 OA
ATOM     12  H   UNL     1      43.484   9.496  12.577  0.00  0.00    +0.000 HD
ATOM     13  H   UNL     1      43.972  11.077  12.071  0.00  0.00    +0.000 HD
ENDBRANCH   6   9
ENDBRANCH   2   3
BRANCH   2  14
ATOM     14  O   UNL     1      46.565   4.013  15.058  0.00  0.00    +0.000 OA
BRANCH  14  15
ATOM     15  C   UNL     1      47.593   3.862  15.945  0.00  0.00    +0.000 A 
ATOM     16  C   UNL     1      48.193   2.657  16.304  0.00  0.00    +0.000 A 
ATOM     17  C   UNL     1      49.349   2.659  17.095  0.00  0.00    +0.000 A 
ATOM     18  C   UNL     1      49.894   3.865  17.549  0.00  0.00    +0.000 A 
ATOM     19  C   UNL     1      49.261   5.068  17.234  0.00  0.00    +0.000 A 
ATOM     20  C   UNL     1      48.120   5.064  16.430  0.00  0.00    +0.000 A 
BRANCH  18  21
ATOM     21  C   UNL     1      51.116   3.868  18.300  0.00  0.00    +0.000 C 
ATOM     22  N   UNL     1      52.103   3.853  18.909  0.00  0.00    +0.000 NA
ENDBRANCH  18  21
ENDBRANCH  14  15
ENDBRANCH   2  14
TORSDOF 5
ENDMDL
MODEL 7
REMARK VINA RESULT:    -5.259      3.345      8.530
REMARK INTER + INTRA:          -7.611
REMARK INTER:                  -6.955
REMARK INTRA:                  -0.656
REMARK UNBOUND:                -0.815
REMARK  Name = 
REMARK  6 active torsions:
REMARK  status: ('A' for Active; 'I' for Inactive)
REMARK    1  A    between atoms: C_1  and  C_2
REMARK    2  A    between atoms: C_2  and  O_3
REMARK    3  A    between atoms: C_2  and  C_12
REMARK    4  A    between atoms: O_3  and  C_4
REMARK    5  A    between atoms: C_7  and  C_8
REMARK    6  A    between atoms: C_15  and  C_16
REMARK                            x       y       z     vdW  Elec       q    Type
REMARK                         _______ _______ _______ _____ _____    ______ ____
ROOT
ATOM      1  C   UNL     1      49.302   7.386  12.129  0.00  0.00    +0.000 C 
ATOM      2  C   UNL     1      48.323   7.067  13.264  0.00  0.00    +0.000 C 
ENDROOT
BRANCH   2   3
ATOM      3  C   UNL     1      47.256   6.074  12.801  0.00  0.00    +0.000 A 
ATOM      4  C   UNL     1      46.910   4.945  13.558  0.00  0.00    +0.000 A 
ATOM      5  C   UNL     1      45.866   4.103  13.159  0.00  0.00    +0.000 A 
ATOM      6  C   UNL     1      45.160   4.358  11.983  0.00  0.00    +0.000 A 
ATOM      7  C   UNL     1      45.519   5.453  11.192  0.00  0.00    +0.000 A 
ATOM      8  C   UNL     1      46.553   6.307  11.604  0.00  0.00    +0.000 A 
BRANCH   6   9
ATOM      9  C   UNL     1      44.057   3.426  11.615  0.00  0.00    +0.000 C 
ATOM     10  N   UNL     1      43.799   2.380  12.460  0.00  0.00    +0.000 N 
ATOM     11  O   UNL     1      43.426   3.554  10.575  0.00  0.00    +0.000 OA
ATOM     12  H   UNL     1      44.435   2.088  13.184  0.00  0.00    +0.000 HD
ATOM     13  H   UNL     1      43.126   1.701  12.122  0.00  0.00    +0.000 HD
ENDBRANCH   6   9
ENDBRANCH   2   3
BRANCH   2  14
ATOM     14  O   UNL     1      49.155   6.589  14.334  0.00  0.00    +0.000 OA
BRANCH  14  15
ATOM     15  C   UNL     1      48.902   6.982  15.618  0.00  0.00    +0.000 A 
ATOM     16  C   UNL     1      49.008   6.181  16.754  0.00  0.00    +0.000 A 
ATOM     17  C   UNL     1      48.885   6.753  18.026  0.00  0.00    +0.000 A 
ATOM     18  C   UNL     1      48.633   8.122  18.166  0.00  0.00    +0.000 A 
ATOM     19  C   UNL     1      48.474   8.913  17.028  0.00  0.00    +0.000 A 
ATOM     20  C   UNL     1      48.615   8.343  15.761  0.00  0.00    +0.000 A 
BRANCH  18  21
ATOM     21  C   UNL     1      48.578   8.716  19.470  0.00  0.00    +0.000 C 
ATOM     22  N   UNL     1      48.534   9.182  20.533  0.00  0.00    +0.000 NA
ENDBRANCH  18  21
ENDBRANCH  14  15
ENDBRANCH   2  14
TORSDOF 5
ENDMDL
