MODEL 1
REMARK VINA RESULT:    -8.401      0.000      0.000
REMARK INTER + INTRA:         -11.565
REMARK INTER:                 -10.856
REMARK INTRA:                  -0.709
REMARK UNBOUND:                -0.709
REMARK  Name = 
REMARK  5 active torsions:
REMARK  status: ('A' for Active; 'I' for Inactive)
REMARK    1  A    between atoms: C_2  and  C_4
REMARK    2  A    between atoms: C_8  and  N_9
REMARK    3  A    between atoms: N_9  and  C_10
REMARK    4  A    between atoms: C_10  and  C_11
REMARK    5  A    between atoms: C_15  and  C_16
REMARK                            x       y       z     vdW  Elec       q    Type
REMARK                         _______ _______ _______ _____ _____    ______ ____
ROOT
ATOM      1  N   UNL     1      43.779   6.749  12.251  0.00  0.00    +0.000 N 
ATOM      2  H   UNL     1      43.130   6.628  13.028  0.00  0.00    +0.000 HD
ENDROOT
BRANCH   1   7
ATOM      3  C   UNL     1      46.813   5.202  13.769  0.00  0.00    +0.000 A 
ATOM      4  C   UNL     1      47.773   5.873  13.029  0.00  0.00    +0.000 A 
ATOM      5  N   UNL     1      47.474   6.787  12.078  0.00  0.00    +0.000 NA
ATOM      6  C   UNL     1      46.156   7.045  11.882  0.00  0.00    +0.000 A 
ATOM      7  C   UNL     1      45.100   6.463  12.595  0.00  0.00    +0.000 A 
ATOM      8  C   UNL     1      45.465   5.503  13.543  0.00  0.00    +0.000 A 
BRANCH   3  10
ATOM      9  N   UNL     1      47.290   4.639  16.081  0.00  0.00    +0.000 N 
ATOM     10  C   UNL     1      47.243   4.218  14.781  0.00  0.00    +0.000 C 
ATOM     11  O   UNL     1      47.517   3.066  14.476  0.00  0.00    +0.000 OA
ATOM     12  H   UNL     1      47.481   3.924  16.774  0.00  0.00    +0.000 HD
ATOM     13  H   UNL     1      46.817   5.473  16.397  0.00  0.00    +0.000 HD
ENDBRANCH   3  10
ENDBRANCH   1   7
BRANCH   1  14
ATOM     14  C   UNL     1      43.245   6.335  10.965  0.00  0.00    +0.000 C 
BRANCH  14  15
ATOM     15  C   UNL     1      43.559   4.884  10.718  0.00  0.00    +0.000 A 
ATOM     16  C   UNL     1      43.040   3.883  11.539  0.00  0.00    +0.000 A 
ATOM     17  C   UNL     1      43.346   2.567  11.243  0.00  0.00    +0.000 A 
ATOM     18  N   UNL     1      44.134   2.191  10.212  0.00  0.00    +0.000 NA
ATOM     19  C   UNL     1      44.670   3.163   9.435  0.00  0.00    +0.000 A 
ATOM     20  C   UNL     1      44.394   4.512   9.660  0.00  0.00    +0.000 A 
BRANCH  19  21
ATOM     21  C   UNL     1      45.561   2.708   8.355  0.00  0.00    +0.000 A 
ATOM     22  C   UNL     1      45.956   3.541   7.295  0.00  0.00    +0.000 A 
ATOM     23  C   UNL     1      46.803   3.066   6.294  0.00  0.00    +0.000 A 
ATOM     24  C   UNL     1      47.239   1.760   6.375  0.00  0.00    +0.000 A 
ATOM     25  N   UNL     1      46.897   0.915   7.367  0.00  0.00    +0.000 NA
ATOM     26  C   UNL     1      46.077   1.412   8.331  0.00  0.00    +0.000 A 
ENDBRANCH  19  21
ENDBRANCH  14  15
ENDBRANCH   1  14
TORSDOF 5
ENDMDL
MODEL 2
REMARK VINA RESULT:    -8.288      2.759      6.709
REMARK INTER + INTRA:         -11.419
REMARK INTER:                 -10.728
REMARK INTRA:                  -0.691
REMARK UNBOUND:                -0.709
REMARK  Name = 
REMARK  5 active torsions:
REMARK  status: ('A' for Active; 'I' for Inactive)
REMARK    1  A    between atoms: C_2  and  C_4
REMARK    2  A    between atoms: C_8  and  N_9
REMARK    3  A    between atoms: N_9  and  C_10
REMARK    4  A    between atoms: C_10  and  C_11
REMARK    5  A    between atoms: C_15  and  C_16
REMARK                            x       y       z     vdW  Elec       q    Type
REMARK                         _______ _______ _______ _____ _____    ______ ____
ROOT
ATOM      1  N   UNL     1      44.054   4.500   9.158  0.00  0.00    +0.000 N 
ATOM      2  H   UNL     1      44.369   5.420   8.851  0.00  0.00    +0.000 HD
ENDROOT
BRANCH   1   7
ATOM      3  C   UNL     1      46.533   2.551   7.168  0.00  0.00    +0.000 A 
ATOM      4  C   UNL     1      46.367   1.322   7.786  0.00  0.00    +0.000 A 
ATOM      5  N   UNL     1      45.499   1.113   8.802  0.00  0.00    +0.000 NA
ATOM      6  C   UNL     1      44.758   2.181   9.193  0.00  0.00    +0.000 A 
ATOM      7  C   UNL     1      44.808   3.457   8.619  0.00  0.00    +0.000 A 
ATOM      8  C   UNL     1      45.744   3.626   7.595  0.00  0.00    +0.000 A 
BRANCH   3  10
ATOM      9  N   UNL     1      48.831   2.507   6.389  0.00  0.00    +0.000 N 
ATOM     10  C   UNL     1      47.512   2.677   6.071  0.00  0.00    +0.000 C 
ATOM     11  O   UNL     1      47.159   2.893   4.921  0.00  0.00    +0.000 OA
ATOM     12  H   UNL     1      49.478   2.488   5.609  0.00  0.00    +0.000 HD
ATOM     13  H   UNL     1      49.129   2.064   7.246  0.00  0.00    +0.000 HD
ENDBRANCH   3  10
ENDBRANCH   1   7
BRANCH   1  14
ATOM     14  C   UNL     1      43.620   4.456  10.544  0.00  0.00    +0.000 C 
BRANCH  14  15
ATOM     15  C   UNL     1      44.766   4.801  11.456  0.00  0.00    +0.000 A 
ATOM     16  C   UNL     1      45.145   3.949  12.493  0.00  0.00    +0.000 A 
ATOM     17  C   UNL     1      46.223   4.313  13.279  0.00  0.00    +0.000 A 
ATOM     18  N   UNL     1      46.925   5.455  13.113  0.00  0.00    +0.000 NA
ATOM     19  C   UNL     1      46.536   6.303  12.130  0.00  0.00    +0.000 A 
ATOM     20  C   UNL     1      45.468   5.998  11.286  0.00  0.00    +0.000 A 
BRANCH  19  21
ATOM     21  C   UNL     1      47.298   7.557  12.020  0.00  0.00    +0.000 A 
ATOM     22  C   UNL     1      48.668   7.588  11.710  0.00  0.00    +0.000 A 
ATOM     23  C   UNL     1      49.349   8.801  11.615  0.00  0.00    +0.000 A 
ATOM     24  C   UNL     1      48.641   9.965  11.833  0.00  0.00    +0.000 A 
ATOM     25  N   UNL     1      47.327   9.999  12.130  0.00  0.00    +0.000 NA
ATOM     26  C   UNL     1      46.691   8.799  12.206  0.00  0.00    +0.000 A 
ENDBRANCH  19  21
ENDBRANCH  14  15
ENDBRANCH   1  14
TORSDOF 5
ENDMDL
MODEL 3
REMARK VINA RESULT:    -8.056      2.668      6.697
REMARK INTER + INTRA:         -11.119
REMARK INTER:                 -10.382
REMARK INTRA:                  -0.737
REMARK UNBOUND:                -0.709
REMARK  Name = 
REMARK  5 active torsions:
REMARK  status: ('A' for Active; 'I' for Inactive)
REMARK    1  A    between atoms: C_2  and  C_4
REMARK    2  A    between atoms: C_8  and  N_9
REMARK    3  A    between atoms: N_9  and  C_10
REMARK    4  A    between atoms: C_10  and  C_11
REMARK    5  A    between atoms: C_15  and  C_16
REMARK                            x       y       z     vdW  Elec       q    Type
REMARK                         _______ _______ _______ _____ _____    ______ ____
ROOT
ATOM      1  N   UNL     1      44.696   5.150   9.594  0.00  0.00    +0.000 N 
ATOM      2  H   UNL     1      45.302   5.926   9.327  0.00  0.00    +0.000 HD
ENDROOT
BRANCH   1   7
ATOM      3  C   UNL     1      46.463   2.560   7.575  0.00  0.00    +0.000 A 
ATOM      4  C   UNL     1      45.885   1.435   8.140  0.00  0.00    +0.000 A 
ATOM      5  N   UNL     1      44.965   1.490   9.131  0.00  0.00    +0.000 NA
ATOM      6  C   UNL     1      44.603   2.729   9.550  0.00  0.00    +0.000 A 
ATOM      7  C   UNL     1      45.084   3.935   9.028  0.00  0.00    +0.000 A 
ATOM      8  C   UNL     1      46.055   3.820   8.029  0.00  0.00    +0.000 A 
BRANCH   3  10
ATOM      9  N   UNL     1      47.402   3.266   5.451  0.00  0.00    +0.000 N 
ATOM     10  C   UNL     1      47.462   2.393   6.502  0.00  0.00    +0.000 C 
ATOM     11  O   UNL     1      48.327   1.531   6.563  0.00  0.00    +0.000 OA
ATOM     12  H   UNL     1      48.160   3.207   4.780  0.00  0.00    +0.000 HD
ATOM     13  H   UNL     1      46.895   4.137   5.500  0.00  0.00    +0.000 HD
ENDBRANCH   3  10
ENDBRANCH   1   7
BRANCH   1  14
ATOM     14  C   UNL     1      44.232   5.208  10.969  0.00  0.00    +0.000 C 
BRANCH  14  15
ATOM     15  C   UNL     1      45.403   5.152  11.913  0.00  0.00    +0.000 A 
ATOM     16  C   UNL     1      45.500   4.158  12.886  0.00  0.00    +0.000 A 
ATOM     17  C   UNL     1      46.614   4.147  13.704  0.00  0.00    +0.000 A 
ATOM     18  N   UNL     1      47.612   5.055  13.629  0.00  0.00    +0.000 NA
ATOM     19  C   UNL     1      47.503   6.045  12.710  0.00  0.00    +0.000 A 
ATOM     20  C   UNL     1      46.417   6.112  11.837  0.00  0.00    +0.000 A 
BRANCH  19  21
ATOM     21  C   UNL     1      48.589   7.038  12.698  0.00  0.00    +0.000 A 
ATOM     22  C   UNL     1      48.953   7.752  11.545  0.00  0.00    +0.000 A 
ATOM     23  C   UNL     1      49.989   8.685  11.582  0.00  0.00    +0.000 A 
ATOM     24  C   UNL     1      50.644   8.884  12.780  0.00  0.00    +0.000 A 
ATOM     25  N   UNL     1      50.338   8.233  13.919  0.00  0.00    +0.000 NA
ATOM     26  C   UNL     1      49.318   7.336  13.850  0.00  0.00    +0.000 A 
ENDBRANCH  19  21
ENDBRANCH  14  15
ENDBRANCH   1  14
TORSDOF 5
ENDMDL
MODEL 4
REMARK VINA RESULT:    -7.903      1.974      2.658
REMARK INTER + INTRA:         -10.922
REMARK INTER:                 -10.082
REMARK INTRA:                  -0.840
REMARK UNBOUND:                -0.709
REMARK  Name = 
REMARK  5 active torsions:
REMARK  status: ('A' for Active; 'I' for Inactive)
REMARK    1  A    between atoms: C_2  and  C_4
REMARK    2  A    between atoms: C_8  and  N_9
REMARK    3  A    between atoms: N_9  and  C_10
REMARK    4  A    between atoms: C_10  and  C_11
REMARK    5  A    between atoms: C_15  and  C_16
REMARK                            x       y       z     vdW  Elec       q    Type
REMARK                         _______ _______ _______ _____ _____    ______ ____
ROOT
ATOM      1  N   UNL     1      44.459   6.644  12.722  0.00  0.00    +0.000 N 
ATOM      2  H   UNL     1      44.076   6.171  13.541  0.00  0.00    +0.000 HD
ENDROOT
BRANCH   1   7
ATOM      3  C   UNL     1      48.008   7.700  12.281  0.00  0.00    +0.000 A 
ATOM      4  C   UNL     1      48.618   6.630  12.917  0.00  0.00    +0.000 A 
ATOM      5  N   UNL     1      47.930   5.605  13.470  0.00  0.00    +0.000 NA
ATOM      6  C   UNL     1      46.578   5.654  13.359  0.00  0.00    +0.000 A 
ATOM      7  C   UNL     1      45.854   6.659  12.705  0.00  0.00    +0.000 A 
ATOM      8  C   UNL     1      46.612   7.709  12.179  0.00  0.00    +0.000 A 
BRANCH   3  10
ATOM      9  N   UNL     1      50.179   8.501  11.547  0.00  0.00    +0.000 N 
ATOM     10  C   UNL     1      48.849   8.772  11.715  0.00  0.00    +0.000 C 
ATOM     11  O   UNL     1      48.373   9.848  11.380  0.00  0.00    +0.000 OA
ATOM     12  H   UNL     1      50.719   9.206  11.058  0.00  0.00    +0.000 HD
ATOM     13  H   UNL     1      50.543   7.560  11.550  0.00  0.00    +0.000 HD
ENDBRANCH   3  10
ENDBRANCH   1   7
BRANCH   1  14
ATOM     14  C   UNL     1      43.709   6.411  11.500  0.00  0.00    +0.000 C 
BRANCH  14  15
ATOM     15  C   UNL     1      43.829   4.969  11.086  0.00  0.00    +0.000 A 
ATOM     16  C   UNL     1      43.162   3.961  11.781  0.00  0.00    +0.000 A 
ATOM     17  C   UNL     1      43.293   2.659  11.333  0.00  0.00    +0.000 A 
ATOM     18  N   UNL     1      44.044   2.301  10.269  0.00  0.00    +0.000 NA
ATOM     19  C   UNL     1      44.723   3.273   9.614  0.00  0.00    +0.000 A 
ATOM     20  C   UNL     1      44.627   4.612   9.995  0.00  0.00    +0.000 A 
BRANCH  19  21
ATOM     21  C   UNL     1      45.565   2.829   8.492  0.00  0.00    +0.000 A 
ATOM     22  C   UNL     1      45.942   3.682   7.441  0.00  0.00    +0.000 A 
ATOM     23  C   UNL     1      46.743   3.216   6.399  0.00  0.00    +0.000 A 
ATOM     24  C   UNL     1      47.153   1.900   6.430  0.00  0.00    +0.000 A 
ATOM     25  N   UNL     1      46.827   1.036   7.411  0.00  0.00    +0.000 NA
ATOM     26  C   UNL     1      46.052   1.524   8.416  0.00  0.00    +0.000 A 
ENDBRANCH  19  21
ENDBRANCH  14  15
ENDBRANCH   1  14
TORSDOF 5
ENDMDL
MODEL 5
REMARK VINA RESULT:    -7.813      2.348      7.204
REMARK INTER + INTRA:         -10.805
REMARK INTER:                 -10.097
REMARK INTRA:                  -0.709
REMARK UNBOUND:                -0.709
REMARK  Name = 
REMARK  5 active torsions:
REMARK  status: ('A' for Active; 'I' for Inactive)
REMARK    1  A    between atoms: C_2  and  C_4
REMARK    2  A    between atoms: C_8  and  N_9
REMARK    3  A    between atoms: N_9  and  C_10
REMARK    4  A    between atoms: C_10  and  C_11
REMARK    5  A    between atoms: C_15  and  C_16
REMARK                            x       y       z     vdW  Elec       q    Type
REMARK                         _______ _______ _______ _____ _____    ______ ____
ROOT
ATOM      1  N   UNL     1      44.989   5.441   9.750  0.00  0.00    +0.000 N 
ATOM      2  H   UNL     1      45.606   6.174   9.402  0.00  0.00    +0.000 HD
ENDROOT
BRANCH   1   7
ATOM      3  C   UNL     1      46.421   2.706   7.659  0.00  0.00    +0.000 A 
ATOM      4  C   UNL     1      45.736   1.641   8.222  0.00  0.00    +0.000 A 
ATOM      5  N   UNL     1      44.848   1.781   9.234  0.00  0.00    +0.000 NA
ATOM      6  C   UNL     1      44.632   3.045   9.677  0.00  0.00    +0.000 A 
ATOM      7  C   UNL     1      45.231   4.200   9.160  0.00  0.00    +0.000 A 
ATOM      8  C   UNL     1      46.163   3.995   8.138  0.00  0.00    +0.000 A 
BRANCH   3  10
ATOM      9  N   UNL     1      47.255   3.216   5.437  0.00  0.00    +0.000 N 
ATOM     10  C   UNL     1      47.374   2.447   6.562  0.00  0.00    +0.000 C 
ATOM     11  O   UNL     1      48.253   1.603   6.664  0.00  0.00    +0.000 OA
ATOM     12  H   UNL     1      47.982   3.101   4.741  0.00  0.00    +0.000 HD
ATOM     13  H   UNL     1      46.738   4.083   5.427  0.00  0.00    +0.000 HD
ENDBRANCH   3  10
ENDBRANCH   1   7
BRANCH   1  14
ATOM     14  C   UNL     1      44.697   5.538  11.170  0.00  0.00    +0.000 C 
BRANCH  14  15
ATOM     15  C   UNL     1      45.956   5.837  11.937  0.00  0.00    +0.000 A 
ATOM     16  C   UNL     1      46.944   6.668  11.410  0.00  0.00    +0.000 A 
ATOM     17  C   UNL     1      48.065   6.924  12.177  0.00  0.00    +0.000 A 
ATOM     18  N   UNL     1      48.271   6.402  13.406  0.00  0.00    +0.000 NA
ATOM     19  C   UNL     1      47.331   5.564  13.906  0.00  0.00    +0.000 A 
ATOM     20  C   UNL     1      46.165   5.272  13.199  0.00  0.00    +0.000 A 
BRANCH  19  21
ATOM     21  C   UNL     1      47.623   4.982  15.226  0.00  0.00    +0.000 A 
ATOM     22  C   UNL     1      48.370   5.656  16.206  0.00  0.00    +0.000 A 
ATOM     23  C   UNL     1      48.620   5.065  17.444  0.00  0.00    +0.000 A 
ATOM     24  C   UNL     1      48.115   3.803  17.677  0.00  0.00    +0.000 A 
ATOM     25  N   UNL     1      47.389   3.108  16.779  0.00  0.00    +0.000 NA
ATOM     26  C   UNL     1      47.156   3.717  15.586  0.00  0.00    +0.000 A 
ENDBRANCH  19  21
ENDBRANCH  14  15
ENDBRANCH   1  14
TORSDOF 5
ENDMDL
MODEL 6
REMARK VINA RESULT:    -7.408      1.327      1.962
REMARK INTER + INTRA:         -10.282
REMARK INTER:                  -9.501
REMARK INTRA:                  -0.780
REMARK UNBOUND:                -0.709
REMARK  Name = 
REMARK  5 active torsions:
REMARK  status: ('A' for Active; 'I' for Inactive)
REMARK    1  A    between atoms: C_2  and  C_4
REMARK    2  A    between atoms: C_8  and  N_9
REMARK    3  A    between atoms: N_9  and  C_10
REMARK    4  A    between atoms: C_10  and  C_11
REMARK    5  A    between atoms: C_15  and  C_16
REMARK                            x       y       z     vdW  Elec       q    Type
REMARK                         _______ _______ _______ _____ _____    ______ ____
ROOT
ATOM      1  N   UNL     1      46.819   6.605  12.488  0.00  0.00    +0.000 N 
ATOM      2  H   UNL     1      47.396   7.279  11.986  0.00  0.00    +0.000 HD
ENDROOT
BRANCH   1   7
ATOM      3  C   UNL     1      47.847   4.728  15.542  0.00  0.00    +0.000 A 
ATOM      4  C   UNL     1      48.565   5.735  16.166  0.00  0.00    +0.000 A 
ATOM      5  N   UNL     1      48.722   6.971  15.639  0.00  0.00    +0.000 NA
ATOM      6  C   UNL     1      48.114   7.202  14.448  0.00  0.00    +0.000 A 
ATOM      7  C   UNL     1      47.330   6.279  13.745  0.00  0.00    +0.000 A 
ATOM      8  C   UNL     1      47.227   5.008  14.319  0.00  0.00    +0.000 A 
BRANCH   3  10
ATOM      9  N   UNL     1      46.806   3.280  17.189  0.00  0.00    +0.000 N 
ATOM     10  C   UNL     1      47.739   3.410  16.197  0.00  0.00    +0.000 C 
ATOM     11  O   UNL     1      48.432   2.465  15.850  0.00  0.00    +0.000 OA
ATOM     12  H   UNL     1      46.670   2.343  17.552  0.00  0.00    +0.000 HD
ATOM     13  H   UNL     1      46.048   3.936  17.307  0.00  0.00    +0.000 HD
ENDBRANCH   3  10
ENDBRANCH   1   7
BRANCH   1  14
ATOM     14  C   UNL     1      45.390   6.793  12.300  0.00  0.00    +0.000 C 
BRANCH  14  15
ATOM     15  C   UNL     1      44.799   5.595  11.606  0.00  0.00    +0.000 A 
ATOM     16  C   UNL     1      43.583   5.049  12.018  0.00  0.00    +0.000 A 
ATOM     17  C   UNL     1      43.082   3.965  11.322  0.00  0.00    +0.000 A 
ATOM     18  N   UNL     1      43.708   3.389  10.273  0.00  0.00    +0.000 NA
ATOM     19  C   UNL     1      44.908   3.893   9.893  0.00  0.00    +0.000 A 
ATOM     20  C   UNL     1      45.470   4.996  10.536  0.00  0.00    +0.000 A 
BRANCH  19  21
ATOM     21  C   UNL     1      45.575   3.202   8.778  0.00  0.00    +0.000 A 
ATOM     22  C   UNL     1      46.069   3.880   7.652  0.00  0.00    +0.000 A 
ATOM     23  C   UNL     1      46.696   3.183   6.619  0.00  0.00    +0.000 A 
ATOM     24  C   UNL     1      46.815   1.814   6.736  0.00  0.00    +0.000 A 
ATOM     25  N   UNL     1      46.364   1.109   7.792  0.00  0.00    +0.000 NA
ATOM     26  C   UNL     1      45.766   1.821   8.785  0.00  0.00    +0.000 A 
ENDBRANCH  19  21
ENDBRANCH  14  15
ENDBRANCH   1  14
TORSDOF 5
ENDMDL
MODEL 7
REMARK VINA RESULT:    -7.167      2.855      7.274
REMARK INTER + INTRA:          -9.971
REMARK INTER:                  -9.460
REMARK INTRA:                  -0.511
REMARK UNBOUND:                -0.709
REMARK  Name = 
REMARK  5 active torsions:
REMARK  status: ('A' for Active; 'I' for Inactive)
REMARK    1  A    between atoms: C_2  and  C_4
REMARK    2  A    between atoms: C_8  and  N_9
REMARK    3  A    between atoms: N_9  and  C_10
REMARK    4  A    between atoms: C_10  and  C_11
REMARK    5  A    between atoms: C_15  and  C_16
REMARK                            x       y       z     vdW  Elec       q    Type
REMARK                         _______ _______ _______ _____ _____    ______ ____
ROOT
ATOM      1  N   UNL     1      44.982   5.416   9.568  0.00  0.00    +0.000 N 
ATOM      2  H   UNL     1      45.582   6.191   9.288  0.00  0.00    +0.000 HD
ENDROOT
BRANCH   1   7
ATOM      3  C   UNL     1      46.555   2.863   7.351  0.00  0.00    +0.000 A 
ATOM      4  C   UNL     1      46.104   1.726   8.001  0.00  0.00    +0.000 A 
ATOM      5  N   UNL     1      45.327   1.762   9.107  0.00  0.00    +0.000 NA
ATOM      6  C   UNL     1      44.977   2.992   9.561  0.00  0.00    +0.000 A 
ATOM      7  C   UNL     1      45.336   4.208   8.966  0.00  0.00    +0.000 A 
ATOM      8  C   UNL     1      46.166   4.114   7.845  0.00  0.00    +0.000 A 
BRANCH   3  10
ATOM      9  N   UNL     1      48.728   2.436   6.358  0.00  0.00    +0.000 N 
ATOM     10  C   UNL     1      47.405   2.717   6.154  0.00  0.00    +0.000 C 
ATOM     11  O   UNL     1      46.943   2.812   5.026  0.00  0.00    +0.000 OA
ATOM     12  H   UNL     1      49.273   2.231   5.527  0.00  0.00    +0.000 HD
ATOM     13  H   UNL     1      49.077   2.084   7.237  0.00  0.00    +0.000 HD
ENDBRANCH   3  10
ENDBRANCH   1   7
BRANCH   1  14
ATOM     14  C   UNL     1      44.578   5.454  10.963  0.00  0.00    +0.000 C 
BRANCH  14  15
ATOM     15  C   UNL     1      45.187   6.649  11.645  0.00  0.00    +0.000 A 
ATOM     16  C   UNL     1      44.645   7.924  11.487  0.00  0.00    +0.000 A 
ATOM     17  C   UNL     1      45.236   8.977  12.162  0.00  0.00    +0.000 A 
ATOM     18  N   UNL     1      46.321   8.847  12.957  0.00  0.00    +0.000 NA
ATOM     19  C   UNL     1      46.873   7.616  13.083  0.00  0.00    +0.000 A 
ATOM     20  C   UNL     1      46.323   6.502  12.447  0.00  0.00    +0.000 A 
BRANCH  19  21
ATOM     21  C   UNL     1      48.081   7.533  13.918  0.00  0.00    +0.000 A 
ATOM     22  C   UNL     1      49.023   8.572  13.997  0.00  0.00    +0.000 A 
ATOM     23  C   UNL     1      50.154   8.449  14.804  0.00  0.00    +0.000 A 
ATOM     24  C   UNL     1      50.321   7.280  15.518  0.00  0.00    +0.000 A 
ATOM     25  N   UNL     1      49.452   6.251  15.486  0.00  0.00    +0.000 NA
ATOM     26  C   UNL     1      48.355   6.408  14.696  0.00  0.00    +0.000 A 
ENDBRANCH  19  21
ENDBRANCH  14  15
ENDBRANCH   1  14
TORSDOF 5
ENDMDL
MODEL 8
REMARK VINA RESULT:    -7.112      2.239      7.169
REMARK INTER + INTRA:          -9.899
REMARK INTER:                  -9.111
REMARK INTRA:                  -0.788
REMARK UNBOUND:                -0.709
REMARK  Name = 
REMARK  5 active torsions:
REMARK  status: ('A' for Active; 'I' for Inactive)
REMARK    1  A    between atoms: C_2  and  C_4
REMARK    2  A    between atoms: C_8  and  N_9
REMARK    3  A    between atoms: N_9  and  C_10
REMARK    4  A    between atoms: C_10  and  C_11
REMARK    5  A    between atoms: C_15  and  C_16
REMARK                            x       y       z     vdW  Elec       q    Type
REMARK                         _______ _______ _______ _____ _____    ______ ____
ROOT
ATOM      1  N   UNL     1      44.541   5.891  11.625  0.00  0.00    +0.000 N 
ATOM      2  H   UNL     1      43.606   6.156  11.932  0.00  0.00    +0.000 HD
ENDROOT
BRANCH   1   7
ATOM      3  C   UNL     1      45.354   3.526   8.859  0.00  0.00    +0.000 A 
ATOM      4  C   UNL     1      44.575   2.457   9.272  0.00  0.00    +0.000 A 
ATOM      5  N   UNL     1      43.816   2.480  10.391  0.00  0.00    +0.000 NA
ATOM      6  C   UNL     1      43.830   3.633  11.107  0.00  0.00    +0.000 A 
ATOM      7  C   UNL     1      44.542   4.790  10.768  0.00  0.00    +0.000 A 
ATOM      8  C   UNL     1      45.335   4.700   9.620  0.00  0.00    +0.000 A 
BRANCH   3  10
ATOM      9  N   UNL     1      46.579   2.144   7.284  0.00  0.00    +0.000 N 
ATOM     10  C   UNL     1      46.153   3.398   7.625  0.00  0.00    +0.000 C 
ATOM     11  O   UNL     1      46.399   4.365   6.919  0.00  0.00    +0.000 OA
ATOM     12  H   UNL     1      47.030   2.057   6.380  0.00  0.00    +0.000 HD
ATOM     13  H   UNL     1      46.172   1.308   7.678  0.00  0.00    +0.000 HD
ENDBRANCH   3  10
ENDBRANCH   1   7
BRANCH   1  14
ATOM     14  C   UNL     1      45.424   7.018  11.377  0.00  0.00    +0.000 C 
BRANCH  14  15
ATOM     15  C   UNL     1      46.690   6.868  12.177  0.00  0.00    +0.000 A 
ATOM     16  C   UNL     1      47.906   7.361  11.705  0.00  0.00    +0.000 A 
ATOM     17  C   UNL     1      49.028   7.214  12.500  0.00  0.00    +0.000 A 
ATOM     18  N   UNL     1      49.021   6.604  13.705  0.00  0.00    +0.000 NA
ATOM     19  C   UNL     1      47.849   6.090  14.151  0.00  0.00    +0.000 A 
ATOM     20  C   UNL     1      46.671   6.214  13.413  0.00  0.00    +0.000 A 
BRANCH  19  21
ATOM     21  C   UNL     1      47.901   5.391  15.445  0.00  0.00    +0.000 A 
ATOM     22  C   UNL     1      47.171   4.219  15.705  0.00  0.00    +0.000 A 
ATOM     23  C   UNL     1      47.252   3.591  16.948  0.00  0.00    +0.000 A 
ATOM     24  C   UNL     1      48.066   4.152  17.910  0.00  0.00    +0.000 A 
ATOM     25  N   UNL     1      48.792   5.271  17.719  0.00  0.00    +0.000 NA
ATOM     26  C   UNL     1      48.697   5.854  16.493  0.00  0.00    +0.000 A 
ENDBRANCH  19  21
ENDBRANCH  14  15
ENDBRANCH   1  14
TORSDOF 5
ENDMDL
MODEL 9
REMARK VINA RESULT:    -7.080      3.543      4.852
REMARK INTER + INTRA:          -9.858
REMARK INTER:                  -9.263
REMARK INTRA:                  -0.595
REMARK UNBOUND:                -0.709
REMARK  Name = 
REMARK  5 active torsions:
REMARK  status: ('A' for Active; 'I' for Inactive)
REMARK    1  A    between atoms: C_2  and  C_4
REMARK    2  A    between atoms: C_8  and  N_9
REMARK    3  A    between atoms: N_9  and  C_10
REMARK    4  A    between atoms: C_10  and  C_11
REMARK    5  A    between atoms: C_15  and  C_16
REMARK                            x       y       z     vdW  Elec       q    Type
REMARK                         _______ _______ _______ _____ _____    ______ ____
ROOT
ATOM      1  N   UNL     1      44.778   7.568  11.044  0.00  0.00    +0.000 N 
ATOM      2  H   UNL     1      44.756   7.175  10.104  0.00  0.00    +0.000 HD
ENDROOT
BRANCH   1   7
ATOM      3  C   UNL     1      42.341  10.388  10.952  0.00  0.00    +0.000 A 
ATOM      4  C   UNL     1      43.148  11.371  11.502  0.00  0.00    +0.000 A 
ATOM      5  N   UNL     1      44.424  11.151  11.893  0.00  0.00    +0.000 NA
ATOM      6  C   UNL     1      44.907   9.897  11.701  0.00  0.00    +0.000 A 
ATOM      7  C   UNL     1      44.203   8.837  11.118  0.00  0.00    +0.000 A 
ATOM      8  C   UNL     1      42.879   9.110  10.763  0.00  0.00    +0.000 A 
BRANCH   3  10
ATOM      9  N   UNL     1      39.957  10.321  11.402  0.00  0.00    +0.000 N 
ATOM     10  C   UNL     1      40.958  10.728  10.564  0.00  0.00    +0.000 C 
ATOM     11  O   UNL     1      40.718  11.374   9.554  0.00  0.00    +0.000 OA
ATOM     12  H   UNL     1      39.026  10.655  11.179  0.00  0.00    +0.000 HD
ATOM     13  H   UNL     1      40.130  10.039  12.356  0.00  0.00    +0.000 HD
ENDBRANCH   3  10
ENDBRANCH   1   7
BRANCH   1  14
ATOM     14  C   UNL     1      44.553   6.594  12.098  0.00  0.00    +0.000 C 
BRANCH  14  15
ATOM     15  C   UNL     1      44.343   5.227  11.503  0.00  0.00    +0.000 A 
ATOM     16  C   UNL     1      43.430   4.330  12.057  0.00  0.00    +0.000 A 
ATOM     17  C   UNL     1      43.266   3.101  11.447  0.00  0.00    +0.000 A 
ATOM     18  N   UNL     1      43.951   2.706  10.351  0.00  0.00    +0.000 NA
ATOM     19  C   UNL     1      44.866   3.561   9.833  0.00  0.00    +0.000 A 
ATOM     20  C   UNL     1      45.076   4.825  10.382  0.00  0.00    +0.000 A 
BRANCH  19  21
ATOM     21  C   UNL     1      45.622   3.069   8.670  0.00  0.00    +0.000 A 
ATOM     22  C   UNL     1      46.053   3.911   7.632  0.00  0.00    +0.000 A 
ATOM     23  C   UNL     1      46.769   3.400   6.550  0.00  0.00    +0.000 A 
ATOM     24  C   UNL     1      47.039   2.047   6.528  0.00  0.00    +0.000 A 
ATOM     25  N   UNL     1      46.656   1.190   7.495  0.00  0.00    +0.000 NA
ATOM     26  C   UNL     1      45.968   1.723   8.540  0.00  0.00    +0.000 A 
ENDBRANCH  19  21
ENDBRANCH  14  15
ENDBRANCH   1  14
TORSDOF 5
ENDMDL
