MODEL 1
REMARK VINA RESULT:    -7.548      0.000      0.000
REMARK INTER + INTRA:         -10.786
REMARK INTER:                 -10.195
REMARK INTRA:                  -0.591
REMARK UNBOUND:                -0.591
REMARK  Name = 
REMARK  7 active torsions:
REMARK  status: ('A' for Active; 'I' for Inactive)
REMARK    1  A    between atoms: C_1  and  C_2
REMARK    2  A    between atoms: C_2  and  C_3
REMARK    3  A    between atoms: C_2  and  C_14
REMARK    4  A    between atoms: C_3  and  S_4
REMARK    5  A    between atoms: S_4  and  C_5
REMARK    6  A    between atoms: C_8  and  C_9
REMARK    7  A    between atoms: C_18  and  C_19
REMARK                            x       y       z     vdW  Elec       q    Type
REMARK                         _______ _______ _______ _____ _____    ______ ____
ROOT
ATOM      1  S   UNL     1      43.710   3.139  10.917  0.00  0.00    +0.000 S 
ENDROOT
BRANCH   1   2
ATOM      2  C   UNL     1      44.833   2.957   9.551  0.00  0.00    +0.000 A 
ATOM      3  C   UNL     1      45.228   4.128   8.911  0.00  0.00    +0.000 A 
ATOM      4  C   UNL     1      46.077   4.049   7.810  0.00  0.00    +0.000 A 
ATOM      5  C   UNL     1      46.520   2.804   7.366  0.00  0.00    +0.000 A 
ATOM      6  C   UNL     1      46.085   1.690   8.077  0.00  0.00    +0.000 A 
ATOM      7  N   UNL     1      45.253   1.735   9.158  0.00  0.00    +0.000 NA
BRANCH   5   8
ATOM      8  C   UNL     1      47.404   2.755   6.176  0.00  0.00    +0.000 C 
ATOM      9  N   UNL     1      48.740   2.521   6.341  0.00  0.00    +0.000 N 
ATOM     10  O   UNL     1      46.954   2.919   5.047  0.00  0.00    +0.000 OA
ATOM     11  H   UNL     1      49.216   2.362   7.213  0.00  0.00    +0.000 HD
ATOM     12  H   UNL     1      49.292   2.487   5.493  0.00  0.00    +0.000 HD
ENDBRANCH   5   8
ENDBRANCH   1   2
BRANCH   1  13
ATOM     13  C   UNL     1      44.812   3.401  12.357  0.00  0.00    +0.000 C 
BRANCH  13  15
ATOM     14  C   UNL     1      43.045   5.179  12.871  0.00  0.00    +0.000 C 
ATOM     15  C   UNL     1      44.490   4.710  13.128  0.00  0.00    +0.000 C 
BRANCH  15  16
ATOM     16  C   UNL     1      45.461   5.848  12.831  0.00  0.00    +0.000 A 
ATOM     17  C   UNL     1      46.832   5.639  12.715  0.00  0.00    +0.000 A 
ATOM     18  C   UNL     1      47.657   6.727  12.412  0.00  0.00    +0.000 A 
ATOM     19  C   UNL     1      47.097   7.990  12.231  0.00  0.00    +0.000 A 
ATOM     20  C   UNL     1      45.726   8.120  12.373  0.00  0.00    +0.000 A 
ATOM     21  N   UNL     1      44.916   7.083  12.673  0.00  0.00    +0.000 NA
BRANCH  20  22
ATOM     22  C   UNL     1      45.075   9.390  12.197  0.00  0.00    +0.000 C 
ATOM     23  N   UNL     1      44.557  10.422  12.102  0.00  0.00    +0.000 NA
ENDBRANCH  20  22
ENDBRANCH  15  16
ENDBRANCH  13  15
ENDBRANCH   1  13
TORSDOF 6
ENDMDL
MODEL 2
REMARK VINA RESULT:    -7.431      2.137      2.965
REMARK INTER + INTRA:         -10.629
REMARK INTER:                 -10.030
REMARK INTRA:                  -0.599
REMARK UNBOUND:                -0.591
REMARK  Name = 
REMARK  7 active torsions:
REMARK  status: ('A' for Active; 'I' for Inactive)
REMARK    1  A    between atoms: C_1  and  C_2
REMARK    2  A    between atoms: C_2  and  C_3
REMARK    3  A    between atoms: C_2  and  C_14
REMARK    4  A    between atoms: C_3  and  S_4
REMARK    5  A    between atoms: S_4  and  C_5
REMARK    6  A    between atoms: C_8  and  C_9
REMARK    7  A    between atoms: C_18  and  C_19
REMARK                            x       y       z     vdW  Elec       q    Type
REMARK                         _______ _______ _______ _____ _____    ______ ____
ROOT
ATOM      1  S   UNL     1      43.681   4.782  10.475  0.00  0.00    +0.000 S 
ENDROOT
BRANCH   1   2
ATOM      2  C   UNL     1      44.779   3.954   9.348  0.00  0.00    +0.000 A 
ATOM      3  C   UNL     1      44.842   2.568   9.447  0.00  0.00    +0.000 A 
ATOM      4  C   UNL     1      45.712   1.864   8.618  0.00  0.00    +0.000 A 
ATOM      5  C   UNL     1      46.504   2.556   7.701  0.00  0.00    +0.000 A 
ATOM      6  C   UNL     1      46.363   3.939   7.663  0.00  0.00    +0.000 A 
ATOM      7  N   UNL     1      45.521   4.656   8.463  0.00  0.00    +0.000 NA
BRANCH   5   8
ATOM      8  C   UNL     1      47.436   1.777   6.850  0.00  0.00    +0.000 C 
ATOM      9  N   UNL     1      48.563   2.378   6.363  0.00  0.00    +0.000 N 
ATOM     10  O   UNL     1      47.214   0.601   6.579  0.00  0.00    +0.000 OA
ATOM     11  H   UNL     1      48.852   3.328   6.527  0.00  0.00    +0.000 HD
ATOM     12  H   UNL     1      49.168   1.795   5.798  0.00  0.00    +0.000 HD
ENDBRANCH   5   8
ENDBRANCH   1   2
BRANCH   1  13
ATOM     13  C   UNL     1      44.769   5.961  11.358  0.00  0.00    +0.000 C 
BRANCH  13  15
ATOM     14  C   UNL     1      45.437   4.480  13.335  0.00  0.00    +0.000 C 
ATOM     15  C   UNL     1      45.936   5.257  12.103  0.00  0.00    +0.000 C 
BRANCH  15  16
ATOM     16  C   UNL     1      47.059   6.205  12.513  0.00  0.00    +0.000 A 
ATOM     17  C   UNL     1      47.529   7.204  11.666  0.00  0.00    +0.000 A 
ATOM     18  C   UNL     1      48.541   8.054  12.123  0.00  0.00    +0.000 A 
ATOM     19  C   UNL     1      49.056   7.889  13.407  0.00  0.00    +0.000 A 
ATOM     20  C   UNL     1      48.544   6.865  14.186  0.00  0.00    +0.000 A 
ATOM     21  N   UNL     1      47.573   6.030  13.758  0.00  0.00    +0.000 NA
BRANCH  20  22
ATOM     22  C   UNL     1      49.021   6.634  15.523  0.00  0.00    +0.000 C 
ATOM     23  N   UNL     1      49.435   6.416  16.582  0.00  0.00    +0.000 NA
ENDBRANCH  20  22
ENDBRANCH  15  16
ENDBRANCH  13  15
ENDBRANCH   1  13
TORSDOF 6
ENDMDL
MODEL 3
REMARK VINA RESULT:    -6.875      1.910      2.336
REMARK INTER + INTRA:          -9.878
REMARK INTER:                  -9.242
REMARK INTRA:                  -0.636
REMARK UNBOUND:                -0.591
REMARK  Name = 
REMARK  7 active torsions:
REMARK  status: ('A' for Active; 'I' for Inactive)
REMARK    1  A    between atoms: C_1  and  C_2
REMARK    2  A    between atoms: C_2  and  C_3
REMARK    3  A    between atoms: C_2  and  C_14
REMARK    4  A    between atoms: C_3  and  S_4
REMARK    5  A    between atoms: S_4  and  C_5
REMARK    6  A    between atoms: C_8  and  C_9
REMARK    7  A    between atoms: C_18  and  C_19
REMARK                            x       y       z     vdW  Elec       q    Type
REMARK                         _______ _______ _______ _____ _____    ______ ____
ROOT
ATOM      1  S   UNL     1      43.877   4.673  10.520  0.00  0.00    +0.000 S 
ENDROOT
BRANCH   1   2
ATOM      2  C   UNL     1      44.965   3.997   9.286  0.00  0.00    +0.000 A 
ATOM      3  C   UNL     1      45.067   2.611   9.240  0.00  0.00    +0.000 A 
ATOM      4  C   UNL     1      45.932   2.021   8.321  0.00  0.00    +0.000 A 
ATOM      5  C   UNL     1      46.680   2.826   7.462  0.00  0.00    +0.000 A 
ATOM      6  C   UNL     1      46.502   4.201   7.570  0.00  0.00    +0.000 A 
ATOM      7  N   UNL     1      45.663   4.808   8.460  0.00  0.00    +0.000 NA
BRANCH   5   8
ATOM      8  C   UNL     1      47.609   2.166   6.512  0.00  0.00    +0.000 C 
ATOM      9  N   UNL     1      48.024   2.842   5.399  0.00  0.00    +0.000 N 
ATOM     10  O   UNL     1      48.013   1.025   6.712  0.00  0.00    +0.000 OA
ATOM     11  H   UNL     1      47.768   3.780   5.139  0.00  0.00    +0.000 HD
ATOM     12  H   UNL     1      48.666   2.346   4.793  0.00  0.00    +0.000 HD
ENDBRANCH   5   8
ENDBRANCH   1   2
BRANCH   1  13
ATOM     13  C   UNL     1      44.912   5.912  11.384  0.00  0.00    +0.000 C 
BRANCH  13  15
ATOM     14  C   UNL     1      45.804   4.200  13.063  0.00  0.00    +0.000 C 
ATOM     15  C   UNL     1      46.174   5.287  12.037  0.00  0.00    +0.000 C 
BRANCH  15  16
ATOM     16  C   UNL     1      47.098   6.314  12.687  0.00  0.00    +0.000 A 
ATOM     17  C   UNL     1      47.668   6.106  13.939  0.00  0.00    +0.000 A 
ATOM     18  C   UNL     1      48.528   7.079  14.457  0.00  0.00    +0.000 A 
ATOM     19  C   UNL     1      48.798   8.229  13.718  0.00  0.00    +0.000 A 
ATOM     20  C   UNL     1      48.184   8.367  12.485  0.00  0.00    +0.000 A 
ATOM     21  N   UNL     1      47.345   7.442  11.973  0.00  0.00    +0.000 NA
BRANCH  20  22
ATOM     22  C   UNL     1      48.416   9.523  11.661  0.00  0.00    +0.000 C 
ATOM     23  N   UNL     1      48.636  10.469  11.030  0.00  0.00    +0.000 NA
ENDBRANCH  20  22
ENDBRANCH  15  16
ENDBRANCH  13  15
ENDBRANCH   1  13
TORSDOF 6
ENDMDL
MODEL 4
REMARK VINA RESULT:    -6.374      4.218      7.336
REMARK INTER + INTRA:          -9.202
REMARK INTER:                  -8.341
REMARK INTRA:                  -0.861
REMARK UNBOUND:                -0.591
REMARK  Name = 
REMARK  7 active torsions:
REMARK  status: ('A' for Active; 'I' for Inactive)
REMARK    1  A    between atoms: C_1  and  C_2
REMARK    2  A    between atoms: C_2  and  C_3
REMARK    3  A    between atoms: C_2  and  C_14
REMARK    4  A    between atoms: C_3  and  S_4
REMARK    5  A    between atoms: S_4  and  C_5
REMARK    6  A    between atoms: C_8  and  C_9
REMARK    7  A    between atoms: C_18  and  C_19
REMARK                            x       y       z     vdW  Elec       q    Type
REMARK                         _______ _______ _______ _____ _____    ______ ____
ROOT
ATOM      1  S   UNL     1      47.930   6.879  12.741  0.00  0.00    +0.000 S 
ENDROOT
BRANCH   1   2
ATOM      2  C   UNL     1      47.861   5.889  14.217  0.00  0.00    +0.000 A 
ATOM      3  C   UNL     1      47.035   4.770  14.177  0.00  0.00    +0.000 A 
ATOM      4  C   UNL     1      46.908   3.975  15.314  0.00  0.00    +0.000 A 
ATOM      5  C   UNL     1      47.610   4.309  16.472  0.00  0.00    +0.000 A 
ATOM      6  C   UNL     1      48.423   5.437  16.414  0.00  0.00    +0.000 A 
ATOM      7  N   UNL     1      48.566   6.235  15.316  0.00  0.00    +0.000 NA
BRANCH   5   8
ATOM      8  C   UNL     1      47.434   3.455  17.671  0.00  0.00    +0.000 C 
ATOM      9  N   UNL     1      48.158   3.722  18.799  0.00  0.00    +0.000 N 
ATOM     10  O   UNL     1      46.646   2.514  17.668  0.00  0.00    +0.000 OA
ATOM     11  H   UNL     1      48.821   4.469  18.921  0.00  0.00    +0.000 HD
ATOM     12  H   UNL     1      47.987   3.113  19.590  0.00  0.00    +0.000 HD
ENDBRANCH   5   8
ENDBRANCH   1   2
BRANCH   1  13
ATOM     13  C   UNL     1      46.307   7.727  12.708  0.00  0.00    +0.000 C 
BRANCH  13  15
ATOM     14  C   UNL     1      44.343   8.320  11.180  0.00  0.00    +0.000 C 
ATOM     15  C   UNL     1      45.416   7.269  11.522  0.00  0.00    +0.000 C 
BRANCH  15  16
ATOM     16  C   UNL     1      44.754   5.912  11.743  0.00  0.00    +0.000 A 
ATOM     17  C   UNL     1      43.906   5.671  12.821  0.00  0.00    +0.000 A 
ATOM     18  C   UNL     1      43.313   4.410  12.941  0.00  0.00    +0.000 A 
ATOM     19  C   UNL     1      43.577   3.427  11.989  0.00  0.00    +0.000 A 
ATOM     20  C   UNL     1      44.440   3.741  10.953  0.00  0.00    +0.000 A 
ATOM     21  N   UNL     1      45.027   4.949  10.826  0.00  0.00    +0.000 NA
BRANCH  20  22
ATOM     22  C   UNL     1      44.757   2.781   9.930  0.00  0.00    +0.000 C 
ATOM     23  N   UNL     1      44.966   1.995   9.105  0.00  0.00    +0.000 NA
ENDBRANCH  20  22
ENDBRANCH  15  16
ENDBRANCH  13  15
ENDBRANCH   1  13
TORSDOF 6
ENDMDL
MODEL 5
REMARK VINA RESULT:    -6.272      5.125      7.323
REMARK INTER + INTRA:          -9.064
REMARK INTER:                  -8.204
REMARK INTRA:                  -0.860
REMARK UNBOUND:                -0.591
REMARK  Name = 
REMARK  7 active torsions:
REMARK  status: ('A' for Active; 'I' for Inactive)
REMARK    1  A    between atoms: C_1  and  C_2
REMARK    2  A    between atoms: C_2  and  C_3
REMARK    3  A    between atoms: C_2  and  C_14
REMARK    4  A    between atoms: C_3  and  S_4
REMARK    5  A    between atoms: S_4  and  C_5
REMARK    6  A    between atoms: C_8  and  C_9
REMARK    7  A    between atoms: C_18  and  C_19
REMARK                            x       y       z     vdW  Elec       q    Type
REMARK                         _______ _______ _______ _____ _____    ______ ____
ROOT
ATOM      1  S   UNL     1      49.005   7.020  13.928  0.00  0.00    +0.000 S 
ENDROOT
BRANCH   1   2
ATOM      2  C   UNL     1      47.548   6.063  13.575  0.00  0.00    +0.000 A 
ATOM      3  C   UNL     1      46.417   6.774  13.187  0.00  0.00    +0.000 A 
ATOM      4  C   UNL     1      45.233   6.085  12.932  0.00  0.00    +0.000 A 
ATOM      5  C   UNL     1      45.198   4.698  13.067  0.00  0.00    +0.000 A 
ATOM      6  C   UNL     1      46.381   4.071  13.446  0.00  0.00    +0.000 A 
ATOM      7  N   UNL     1      47.555   4.718  13.703  0.00  0.00    +0.000 NA
BRANCH   5   8
ATOM      8  C   UNL     1      43.915   3.999  12.812  0.00  0.00    +0.000 C 
ATOM      9  N   UNL     1      43.921   2.658  12.551  0.00  0.00    +0.000 N 
ATOM     10  O   UNL     1      42.849   4.605  12.835  0.00  0.00    +0.000 OA
ATOM     11  H   UNL     1      44.729   2.059  12.517  0.00  0.00    +0.000 HD
ATOM     12  H   UNL     1      43.015   2.232  12.396  0.00  0.00    +0.000 HD
ENDBRANCH   5   8
ENDBRANCH   1   2
BRANCH   1  13
ATOM     13  C   UNL     1      48.755   7.572  15.656  0.00  0.00    +0.000 C 
BRANCH  13  15
ATOM     14  C   UNL     1      51.044   6.587  16.234  0.00  0.00    +0.000 C 
ATOM     15  C   UNL     1      49.577   6.739  16.677  0.00  0.00    +0.000 C 
BRANCH  15  16
ATOM     16  C   UNL     1      48.981   5.364  16.963  0.00  0.00    +0.000 A 
ATOM     17  C   UNL     1      47.619   5.180  17.181  0.00  0.00    +0.000 A 
ATOM     18  C   UNL     1      47.142   3.885  17.407  0.00  0.00    +0.000 A 
ATOM     19  C   UNL     1      48.030   2.811  17.411  0.00  0.00    +0.000 A 
ATOM     20  C   UNL     1      49.372   3.077  17.198  0.00  0.00    +0.000 A 
ATOM     21  N   UNL     1      49.850   4.321  16.985  0.00  0.00    +0.000 NA
BRANCH  20  22
ATOM     22  C   UNL     1      50.348   2.021  17.183  0.00  0.00    +0.000 C 
ATOM     23  N   UNL     1      51.165   1.201  17.148  0.00  0.00    +0.000 NA
ENDBRANCH  20  22
ENDBRANCH  15  16
ENDBRANCH  13  15
ENDBRANCH   1  13
TORSDOF 6
ENDMDL
MODEL 6
REMARK VINA RESULT:    -6.011      4.072      6.012
REMARK INTER + INTRA:          -8.711
REMARK INTER:                  -8.144
REMARK INTRA:                  -0.567
REMARK UNBOUND:                -0.591
REMARK  Name = 
REMARK  7 active torsions:
REMARK  status: ('A' for Active; 'I' for Inactive)
REMARK    1  A    between atoms: C_1  and  C_2
REMARK    2  A    between atoms: C_2  and  C_3
REMARK    3  A    between atoms: C_2  and  C_14
REMARK    4  A    between atoms: C_3  and  S_4
REMARK    5  A    between atoms: S_4  and  C_5
REMARK    6  A    between atoms: C_8  and  C_9
REMARK    7  A    between atoms: C_18  and  C_19
REMARK                            x       y       z     vdW  Elec       q    Type
REMARK                         _______ _______ _______ _____ _____    ______ ____
ROOT
ATOM      1  S   UNL     1      47.188   7.741  12.775  0.00  0.00    +0.000 S 
ENDROOT
BRANCH   1   2
ATOM      2  C   UNL     1      46.239   6.372  12.151  0.00  0.00    +0.000 A 
ATOM      3  C   UNL     1      45.835   5.421  13.082  0.00  0.00    +0.000 A 
ATOM      4  C   UNL     1      45.121   4.305  12.651  0.00  0.00    +0.000 A 
ATOM      5  C   UNL     1      44.820   4.159  11.297  0.00  0.00    +0.000 A 
ATOM      6  C   UNL     1      45.251   5.168  10.442  0.00  0.00    +0.000 A 
ATOM      7  N   UNL     1      45.953   6.271  10.835  0.00  0.00    +0.000 NA
BRANCH   5   8
ATOM      8  C   UNL     1      44.079   2.948  10.869  0.00  0.00    +0.000 C 
ATOM      9  N   UNL     1      44.589   2.166   9.871  0.00  0.00    +0.000 N 
ATOM     10  O   UNL     1      43.017   2.635  11.399  0.00  0.00    +0.000 OA
ATOM     11  H   UNL     1      45.450   2.317   9.374  0.00  0.00    +0.000 HD
ATOM     12  H   UNL     1      44.046   1.346   9.629  0.00  0.00    +0.000 HD
ENDBRANCH   5   8
ENDBRANCH   1   2
BRANCH   1  13
ATOM     13  C   UNL     1      48.814   6.998  13.174  0.00  0.00    +0.000 C 
BRANCH  13  15
ATOM     14  C   UNL     1      50.805   8.277  14.146  0.00  0.00    +0.000 C 
ATOM     15  C   UNL     1      49.453   7.607  14.451  0.00  0.00    +0.000 C 
BRANCH  15  16
ATOM     16  C   UNL     1      49.622   6.602  15.587  0.00  0.00    +0.000 A 
ATOM     17  C   UNL     1      50.768   6.564  16.375  0.00  0.00    +0.000 A 
ATOM     18  C   UNL     1      50.839   5.635  17.418  0.00  0.00    +0.000 A 
ATOM     19  C   UNL     1      49.770   4.771  17.649  0.00  0.00    +0.000 A 
ATOM     20  C   UNL     1      48.669   4.863  16.814  0.00  0.00    +0.000 A 
ATOM     21  N   UNL     1      48.587   5.748  15.799  0.00  0.00    +0.000 NA
BRANCH  20  22
ATOM     22  C   UNL     1      47.525   4.010  16.992  0.00  0.00    +0.000 C 
ATOM     23  N   UNL     1      46.613   3.321  17.183  0.00  0.00    +0.000 NA
ENDBRANCH  20  22
ENDBRANCH  15  16
ENDBRANCH  13  15
ENDBRANCH   1  13
TORSDOF 6
ENDMDL
MODEL 7
REMARK VINA RESULT:    -5.837      5.135      8.142
REMARK INTER + INTRA:          -8.476
REMARK INTER:                  -8.284
REMARK INTRA:                  -0.191
REMARK UNBOUND:                -0.591
REMARK  Name = 
REMARK  7 active torsions:
REMARK  status: ('A' for Active; 'I' for Inactive)
REMARK    1  A    between atoms: C_1  and  C_2
REMARK    2  A    between atoms: C_2  and  C_3
REMARK    3  A    between atoms: C_2  and  C_14
REMARK    4  A    between atoms: C_3  and  S_4
REMARK    5  A    between atoms: S_4  and  C_5
REMARK    6  A    between atoms: C_8  and  C_9
REMARK    7  A    between atoms: C_18  and  C_19
REMARK                            x       y       z     vdW  Elec       q    Type
REMARK                         _______ _______ _______ _____ _____    ______ ____
ROOT
ATOM      1  S   UNL     1      46.875   4.286  13.908  0.00  0.00    +0.000 S 
ENDROOT
BRANCH   1   2
ATOM      2  C   UNL     1      47.402   4.383  15.604  0.00  0.00    +0.000 A 
ATOM      3  C   UNL     1      48.208   5.465  15.942  0.00  0.00    +0.000 A 
ATOM      4  C   UNL     1      48.685   5.577  17.247  0.00  0.00    +0.000 A 
ATOM      5  C   UNL     1      48.348   4.609  18.192  0.00  0.00    +0.000 A 
ATOM      6  C   UNL     1      47.525   3.572  17.766  0.00  0.00    +0.000 A 
ATOM      7  N   UNL     1      47.043   3.434  16.496  0.00  0.00    +0.000 NA
BRANCH   5   8
ATOM      8  C   UNL     1      48.892   4.747  19.564  0.00  0.00    +0.000 C 
ATOM      9  N   UNL     1      48.515   3.857  20.530  0.00  0.00    +0.000 N 
ATOM     10  O   UNL     1      49.679   5.646  19.846  0.00  0.00    +0.000 OA
ATOM     11  H   UNL     1      47.888   3.079  20.413  0.00  0.00    +0.000 HD
ATOM     12  H   UNL     1      48.927   3.994  21.445  0.00  0.00    +0.000 HD
ENDBRANCH   5   8
ENDBRANCH   1   2
BRANCH   1  13
ATOM     13  C   UNL     1      47.479   5.850  13.173  0.00  0.00    +0.000 C 
BRANCH  13  15
ATOM     14  C   UNL     1      45.983   7.904  12.873  0.00  0.00    +0.000 C 
ATOM     15  C   UNL     1      46.411   6.547  12.286  0.00  0.00    +0.000 C 
BRANCH  15  16
ATOM     16  C   UNL     1      45.178   5.686  12.025  0.00  0.00    +0.000 A 
ATOM     17  C   UNL     1      43.967   5.916  12.671  0.00  0.00    +0.000 A 
ATOM     18  C   UNL     1      42.872   5.105  12.358  0.00  0.00    +0.000 A 
ATOM     19  C   UNL     1      43.010   4.090  11.413  0.00  0.00    +0.000 A 
ATOM     20  C   UNL     1      44.251   3.917  10.822  0.00  0.00    +0.000 A 
ATOM     21  N   UNL     1      45.320   4.686  11.118  0.00  0.00    +0.000 NA
BRANCH  20  22
ATOM     22  C   UNL     1      44.470   2.895   9.835  0.00  0.00    +0.000 C 
ATOM     23  N   UNL     1      44.694   2.071   9.051  0.00  0.00    +0.000 NA
ENDBRANCH  20  22
ENDBRANCH  15  16
ENDBRANCH  13  15
ENDBRANCH   1  13
TORSDOF 6
ENDMDL
MODEL 8
REMARK VINA RESULT:    -5.813      3.396      6.565
REMARK INTER + INTRA:          -8.443
REMARK INTER:                  -7.907
REMARK INTRA:                  -0.536
REMARK UNBOUND:                -0.591
REMARK  Name = 
REMARK  7 active torsions:
REMARK  status: ('A' for Active; 'I' for Inactive)
REMARK    1  A    between atoms: C_1  and  C_2
REMARK    2  A    between atoms: C_2  and  C_3
REMARK    3  A    between atoms: C_2  and  C_14
REMARK    4  A    between atoms: C_3  and  S_4
REMARK    5  A    between atoms: S_4  and  C_5
REMARK    6  A    between atoms: C_8  and  C_9
REMARK    7  A    between atoms: C_18  and  C_19
REMARK                            x       y       z     vdW  Elec       q    Type
REMARK                         _______ _______ _______ _____ _____    ______ ____
ROOT
ATOM      1  S   UNL     1      45.467   5.861  12.920  0.00  0.00    +0.000 S 
ENDROOT
BRANCH   1   2
ATOM      2  C   UNL     1      47.071   6.629  12.935  0.00  0.00    +0.000 A 
ATOM      3  C   UNL     1      47.449   7.299  11.775  0.00  0.00    +0.000 A 
ATOM      4  C   UNL     1      48.709   7.890  11.710  0.00  0.00    +0.000 A 
ATOM      5  C   UNL     1      49.570   7.804  12.804  0.00  0.00    +0.000 A 
ATOM      6  C   UNL     1      49.100   7.127  13.925  0.00  0.00    +0.000 A 
ATOM      7  N   UNL     1      47.873   6.538  14.018  0.00  0.00    +0.000 NA
BRANCH   5   8
ATOM      8  C   UNL     1      50.913   8.423  12.691  0.00  0.00    +0.000 C 
ATOM      9  N   UNL     1      51.942   7.939  13.448  0.00  0.00    +0.000 N 
ATOM     10  O   UNL     1      51.114   9.362  11.927  0.00  0.00    +0.000 OA
ATOM     11  H   UNL     1      51.897   7.171  14.097  0.00  0.00    +0.000 HD
ATOM     12  H   UNL     1      52.838   8.393  13.321  0.00  0.00    +0.000 HD
ENDBRANCH   5   8
ENDBRANCH   1   2
BRANCH   1  13
ATOM     13  C   UNL     1      44.617   6.651  11.504  0.00  0.00    +0.000 C 
BRANCH  13  15
ATOM     14  C   UNL     1      42.409   5.430  11.925  0.00  0.00    +0.000 C 
ATOM     15  C   UNL     1      43.506   5.753  10.895  0.00  0.00    +0.000 C 
BRANCH  15  16
ATOM     16  C   UNL     1      44.035   4.459  10.283  0.00  0.00    +0.000 A 
ATOM     17  C   UNL     1      43.734   3.211  10.821  0.00  0.00    +0.000 A 
ATOM     18  C   UNL     1      44.230   2.067  10.188  0.00  0.00    +0.000 A 
ATOM     19  C   UNL     1      45.010   2.194   9.040  0.00  0.00    +0.000 A 
ATOM     20  C   UNL     1      45.274   3.471   8.572  0.00  0.00    +0.000 A 
ATOM     21  N   UNL     1      44.810   4.585   9.175  0.00  0.00    +0.000 NA
BRANCH  20  22
ATOM     22  C   UNL     1      46.066   3.683   7.391  0.00  0.00    +0.000 C 
ATOM     23  N   UNL     1      46.743   3.845   6.465  0.00  0.00    +0.000 NA
ENDBRANCH  20  22
ENDBRANCH  15  16
ENDBRANCH  13  15
ENDBRANCH   1  13
TORSDOF 6
ENDMDL
MODEL 9
REMARK VINA RESULT:    -5.436      4.575      6.096
REMARK INTER + INTRA:          -7.934
REMARK INTER:                  -7.566
REMARK INTRA:                  -0.368
REMARK UNBOUND:                -0.591
REMARK  Name = 
REMARK  7 active torsions:
REMARK  status: ('A' for Active; 'I' for Inactive)
REMARK    1  A    between atoms: C_1  and  C_2
REMARK    2  A    between atoms: C_2  and  C_3
REMARK    3  A    between atoms: C_2  and  C_14
REMARK    4  A    between atoms: C_3  and  S_4
REMARK    5  A    between atoms: S_4  and  C_5
REMARK    6  A    between atoms: C_8  and  C_9
REMARK    7  A    between atoms: C_18  and  C_19
REMARK                            x       y       z     vdW  Elec       q    Type
REMARK                         _______ _______ _______ _____ _____    ______ ____
ROOT
ATOM      1  S   UNL     1      46.665   6.816  13.362  0.00  0.00    +0.000 S 
ENDROOT
BRANCH   1   2
ATOM      2  C   UNL     1      46.047   5.641  12.179  0.00  0.00    +0.000 A 
ATOM      3  C   UNL     1      46.022   6.051  10.850  0.00  0.00    +0.000 A 
ATOM      4  C   UNL     1      45.514   5.190   9.880  0.00  0.00    +0.000 A 
ATOM      5  C   UNL     1      45.040   3.933  10.252  0.00  0.00    +0.000 A 
ATOM      6  C   UNL     1      45.117   3.604  11.601  0.00  0.00    +0.000 A 
ATOM      7  N   UNL     1      45.609   4.425  12.574  0.00  0.00    +0.000 NA
BRANCH   5   8
ATOM      8  C   UNL     1      44.483   3.051   9.197  0.00  0.00    +0.000 C 
ATOM      9  N   UNL     1      44.272   3.553   7.944  0.00  0.00    +0.000 N 
ATOM     10  O   UNL     1      44.212   1.878   9.432  0.00  0.00    +0.000 OA
ATOM     11  H   UNL     1      44.466   4.491   7.636  0.00  0.00    +0.000 HD
ATOM     12  H   UNL     1      43.902   2.903   7.262  0.00  0.00    +0.000 HD
ENDBRANCH   5   8
ENDBRANCH   1   2
BRANCH   1  13
ATOM     13  C   UNL     1      47.990   5.900  14.234  0.00  0.00    +0.000 C 
BRANCH  13  15
ATOM     14  C   UNL     1      49.812   7.370  15.267  0.00  0.00    +0.000 C 
ATOM     15  C   UNL     1      48.482   6.633  15.512  0.00  0.00    +0.000 C 
BRANCH  15  16
ATOM     16  C   UNL     1      48.617   5.718  16.726  0.00  0.00    +0.000 A 
ATOM     17  C   UNL     1      48.102   6.064  17.972  0.00  0.00    +0.000 A 
ATOM     18  C   UNL     1      48.239   5.161  19.031  0.00  0.00    +0.000 A 
ATOM     19  C   UNL     1      48.881   3.942  18.823  0.00  0.00    +0.000 A 
ATOM     20  C   UNL     1      49.376   3.676  17.558  0.00  0.00    +0.000 A 
ATOM     21  N   UNL     1      49.260   4.539  16.527  0.00  0.00    +0.000 NA
BRANCH  20  22
ATOM     22  C   UNL     1      50.046   2.438  17.264  0.00  0.00    +0.000 C 
ATOM     23  N   UNL     1      50.620   1.466  17.005  0.00  0.00    +0.000 NA
ENDBRANCH  20  22
ENDBRANCH  15  16
ENDBRANCH  13  15
ENDBRANCH   1  13
TORSDOF 6
ENDMDL
