MODEL 1
REMARK VINA RESULT:    -9.482      0.000      0.000
REMARK INTER + INTRA:         -13.968
REMARK INTER:                 -13.085
REMARK INTRA:                  -0.882
REMARK UNBOUND:                -0.882
REMARK  Name = 
REMARK  8 active torsions:
REMARK  status: ('A' for Active; 'I' for Inactive)
REMARK    1  A    between atoms: C_1  and  C_2
REMARK    2  A    between atoms: C_2  and  O_3
REMARK    3  A    between atoms: C_5  and  O_6
REMARK    4  A    between atoms: O_6  and  C_7
REMARK    5  A    between atoms: C_12  and  C_13
REMARK    6  A    between atoms: C_13  and  C_16
REMARK    7  A    between atoms: C_16  and  N_17
REMARK    8  A    between atoms: C_21  and  C_22
REMARK                            x       y       z     vdW  Elec       q    Type
REMARK                         _______ _______ _______ _____ _____    ______ ____
ROOT
ATOM      1  C   UNL     1      43.245   5.127  12.355  0.00  0.00    +0.000 C 
ATOM      2  F   UNL     1      42.846   4.275  13.349  0.00  0.00    +0.000 F 
ATOM      3  F   UNL     1      42.307   6.129  12.356  0.00  0.00    +0.000 F 
ENDROOT
BRANCH   1   9
ATOM      4  C   UNL     1      46.871   5.561  13.619  0.00  0.00    +0.000 A 
ATOM      5  C   UNL     1      47.149   6.851  13.183  0.00  0.00    +0.000 A 
ATOM      6  C   UNL     1      46.164   7.561  12.508  0.00  0.00    +0.000 A 
ATOM      7  F   UNL     1      46.414   8.813  12.107  0.00  0.00    +0.000 F 
ATOM      8  C   UNL     1      44.916   6.998  12.250  0.00  0.00    +0.000 A 
ATOM      9  C   UNL     1      44.628   5.685  12.658  0.00  0.00    +0.000 A 
ATOM     10  C   UNL     1      45.630   4.975  13.343  0.00  0.00    +0.000 A 
BRANCH   4  11
ATOM     11  O   UNL     1      47.749   4.778  14.330  0.00  0.00    +0.000 OA
BRANCH  11  15
ATOM     12  C   UNL     1      48.701   3.234  18.502  0.00  0.00    +0.000 C 
ATOM     13  C   UNL     1      47.632   3.292  17.423  0.00  0.00    +0.000 C 
ATOM     14  C   UNL     1      48.120   2.886  16.009  0.00  0.00    +0.000 C 
ATOM     15  C   UNL     1      47.223   4.018  15.441  0.00  0.00    +0.000 C 
ATOM     16  C   UNL     1      47.353   4.699  16.828  0.00  0.00    +0.000 C 
BRANCH  13  17
ATOM     17  O   UNL     1      46.451   2.594  17.881  0.00  0.00    +0.000 OA
ATOM     18  H   UNL     1      46.096   2.139  17.098  0.00  0.00    +0.000 HD
ENDBRANCH  13  17
ENDBRANCH  11  15
ENDBRANCH   4  11
ENDBRANCH   1   9
BRANCH   1  19
ATOM     19  C   UNL     1      43.116   4.388  11.001  0.00  0.00    +0.000 C 
BRANCH  19  20
ATOM     20  N   UNL     1      43.983   4.940   9.930  0.00  0.00    +0.000 N 
ATOM     21  C   UNL     1      44.751   3.956   9.286  0.00  0.00    +0.000 A 
ATOM     22  C   UNL     1      45.621   4.302   8.242  0.00  0.00    +0.000 A 
ATOM     23  N   UNL     1      46.398   3.413   7.564  0.00  0.00    +0.000 NA
ATOM     24  C   UNL     1      46.257   2.122   7.971  0.00  0.00    +0.000 A 
ATOM     25  C   UNL     1      45.386   1.758   8.984  0.00  0.00    +0.000 A 
ATOM     26  N   UNL     1      44.622   2.660   9.651  0.00  0.00    +0.000 NA
ATOM     27  H   UNL     1      44.581   5.687  10.280  0.00  0.00    +0.000 HD
BRANCH  24  28
ATOM     28  C   UNL     1      47.083   1.076   7.312  0.00  0.00    +0.000 C 
ATOM     29  N   UNL     1      46.803  -0.217   7.655  0.00  0.00    +0.000 N 
ATOM     30  O   UNL     1      47.959   1.351   6.502  0.00  0.00    +0.000 OA
ATOM     31  H   UNL     1      46.072  -0.420   8.329  0.00  0.00    +0.000 HD
ATOM     32  H   UNL     1      47.328  -0.967   7.229  0.00  0.00    +0.000 HD
ENDBRANCH  24  28
ENDBRANCH  19  20
ENDBRANCH   1  19
TORSDOF 7
ENDMDL
MODEL 2
REMARK VINA RESULT:    -7.993      1.942      2.310
REMARK INTER + INTRA:         -11.913
REMARK INTER:                 -11.047
REMARK INTRA:                  -0.865
REMARK UNBOUND:                -0.882
REMARK  Name = 
REMARK  8 active torsions:
REMARK  status: ('A' for Active; 'I' for Inactive)
REMARK    1  A    between atoms: C_1  and  C_2
REMARK    2  A    between atoms: C_2  and  O_3
REMARK    3  A    between atoms: C_5  and  O_6
REMARK    4  A    between atoms: O_6  and  C_7
REMARK    5  A    between atoms: C_12  and  C_13
REMARK    6  A    between atoms: C_13  and  C_16
REMARK    7  A    between atoms: C_16  and  N_17
REMARK    8  A    between atoms: C_21  and  C_22
REMARK                            x       y       z     vdW  Elec       q    Type
REMARK                         _______ _______ _______ _____ _____    ______ ____
ROOT
ATOM      1  C   UNL     1      43.710   4.800  12.473  0.00  0.00    +0.000 C 
ATOM      2  F   UNL     1      43.776   3.647  13.206  0.00  0.00    +0.000 F 
ATOM      3  F   UNL     1      42.577   5.433  12.918  0.00  0.00    +0.000 F 
ENDROOT
BRANCH   1   9
ATOM      4  C   UNL     1      47.151   6.086  13.677  0.00  0.00    +0.000 A 
ATOM      5  C   UNL     1      47.152   7.370  13.147  0.00  0.00    +0.000 A 
ATOM      6  C   UNL     1      46.043   7.804  12.429  0.00  0.00    +0.000 A 
ATOM      7  F   UNL     1      46.025   9.049  11.937  0.00  0.00    +0.000 F 
ATOM      8  C   UNL     1      44.946   6.972  12.222  0.00  0.00    +0.000 A 
ATOM      9  C   UNL     1      44.941   5.660  12.726  0.00  0.00    +0.000 A 
ATOM     10  C   UNL     1      46.065   5.231  13.452  0.00  0.00    +0.000 A 
BRANCH   4  11
ATOM     11  O   UNL     1      48.168   5.561  14.436  0.00  0.00    +0.000 OA
BRANCH  11  15
ATOM     12  C   UNL     1      51.435   5.966  17.577  0.00  0.00    +0.000 C 
ATOM     13  C   UNL     1      50.095   6.514  17.114  0.00  0.00    +0.000 C 
ATOM     14  C   UNL     1      49.015   5.436  16.846  0.00  0.00    +0.000 C 
ATOM     15  C   UNL     1      48.560   6.281  15.627  0.00  0.00    +0.000 C 
ATOM     16  C   UNL     1      49.997   6.863  15.604  0.00  0.00    +0.000 C 
BRANCH  13  17
ATOM     17  O   UNL     1      49.682   7.581  17.999  0.00  0.00    +0.000 OA
ATOM     18  H   UNL     1      48.824   7.886  17.657  0.00  0.00    +0.000 HD
ENDBRANCH  13  17
ENDBRANCH  11  15
ENDBRANCH   4  11
ENDBRANCH   1   9
BRANCH   1  19
ATOM     19  C   UNL     1      43.466   4.421  10.992  0.00  0.00    +0.000 C 
BRANCH  19  20
ATOM     20  N   UNL     1      43.896   3.045  10.645  0.00  0.00    +0.000 N 
ATOM     21  C   UNL     1      44.744   3.002   9.526  0.00  0.00    +0.000 A 
ATOM     22  C   UNL     1      45.252   1.779   9.064  0.00  0.00    +0.000 A 
ATOM     23  N   UNL     1      46.080   1.648   7.991  0.00  0.00    +0.000 NA
ATOM     24  C   UNL     1      46.404   2.824   7.387  0.00  0.00    +0.000 A 
ATOM     25  C   UNL     1      45.930   4.043   7.843  0.00  0.00    +0.000 A 
ATOM     26  N   UNL     1      45.103   4.152   8.913  0.00  0.00    +0.000 NA
ATOM     27  H   UNL     1      43.098   2.425  10.511  0.00  0.00    +0.000 HD
BRANCH  24  28
ATOM     28  C   UNL     1      47.282   2.787   6.188  0.00  0.00    +0.000 C 
ATOM     29  N   UNL     1      48.606   2.535   6.419  0.00  0.00    +0.000 N 
ATOM     30  O   UNL     1      46.849   2.965   5.056  0.00  0.00    +0.000 OA
ATOM     31  H   UNL     1      48.941   2.391   7.365  0.00  0.00    +0.000 HD
ATOM     32  H   UNL     1      49.245   2.490   5.638  0.00  0.00    +0.000 HD
ENDBRANCH  24  28
ENDBRANCH  19  20
ENDBRANCH   1  19
TORSDOF 7
ENDMDL
MODEL 3
REMARK VINA RESULT:    -7.814      2.771      3.876
REMARK INTER + INTRA:         -11.666
REMARK INTER:                 -11.046
REMARK INTRA:                  -0.620
REMARK UNBOUND:                -0.882
REMARK  Name = 
REMARK  8 active torsions:
REMARK  status: ('A' for Active; 'I' for Inactive)
REMARK    1  A    between atoms: C_1  and  C_2
REMARK    2  A    between atoms: C_2  and  O_3
REMARK    3  A    between atoms: C_5  and  O_6
REMARK    4  A    between atoms: O_6  and  C_7
REMARK    5  A    between atoms: C_12  and  C_13
REMARK    6  A    between atoms: C_13  and  C_16
REMARK    7  A    between atoms: C_16  and  N_17
REMARK    8  A    between atoms: C_21  and  C_22
REMARK                            x       y       z     vdW  Elec       q    Type
REMARK                         _______ _______ _______ _____ _____    ______ ____
ROOT
ATOM      1  C   UNL     1      43.636   5.237  12.059  0.00  0.00    +0.000 C 
ATOM      2  F   UNL     1      43.999   4.190  12.861  0.00  0.00    +0.000 F 
ATOM      3  F   UNL     1      42.391   5.604  12.503  0.00  0.00    +0.000 F 
ENDROOT
BRANCH   1   9
ATOM      4  C   UNL     1      46.700   7.393  13.010  0.00  0.00    +0.000 A 
ATOM      5  C   UNL     1      46.349   8.613  12.446  0.00  0.00    +0.000 A 
ATOM      6  C   UNL     1      45.130   8.725  11.788  0.00  0.00    +0.000 A 
ATOM      7  F   UNL     1      44.772   9.904  11.264  0.00  0.00    +0.000 F 
ATOM      8  C   UNL     1      44.269   7.636  11.672  0.00  0.00    +0.000 A 
ATOM      9  C   UNL     1      44.622   6.388  12.210  0.00  0.00    +0.000 A 
ATOM     10  C   UNL     1      45.855   6.285  12.877  0.00  0.00    +0.000 A 
BRANCH   4  11
ATOM     11  O   UNL     1      47.857   7.172  13.719  0.00  0.00    +0.000 OA
BRANCH  11  15
ATOM     12  C   UNL     1      50.816   9.527  11.190  0.00  0.00    +0.000 C 
ATOM     13  C   UNL     1      50.522   8.164  11.795  0.00  0.00    +0.000 C 
ATOM     14  C   UNL     1      49.091   7.635  11.527  0.00  0.00    +0.000 C 
ATOM     15  C   UNL     1      49.092   7.075  12.975  0.00  0.00    +0.000 C 
ATOM     16  C   UNL     1      50.147   8.164  13.302  0.00  0.00    +0.000 C 
BRANCH  13  17
ATOM     17  O   UNL     1      51.584   7.247  11.446  0.00  0.00    +0.000 OA
ATOM     18  H   UNL     1      52.412   7.717  11.646  0.00  0.00    +0.000 HD
ENDBRANCH  13  17
ENDBRANCH  11  15
ENDBRANCH   4  11
ENDBRANCH   1   9
BRANCH   1  19
ATOM     19  C   UNL     1      43.464   4.706  10.614  0.00  0.00    +0.000 C 
BRANCH  19  20
ATOM     20  N   UNL     1      43.846   3.282  10.448  0.00  0.00    +0.000 N 
ATOM     21  C   UNL     1      44.768   3.081   9.407  0.00  0.00    +0.000 A 
ATOM     22  C   UNL     1      45.244   1.795   9.117  0.00  0.00    +0.000 A 
ATOM     23  N   UNL     1      46.138   1.512   8.129  0.00  0.00    +0.000 NA
ATOM     24  C   UNL     1      46.563   2.600   7.430  0.00  0.00    +0.000 A 
ATOM     25  C   UNL     1      46.121   3.881   7.717  0.00  0.00    +0.000 A 
ATOM     26  N   UNL     1      45.227   4.142   8.705  0.00  0.00    +0.000 NA
ATOM     27  H   UNL     1      43.029   2.687  10.321  0.00  0.00    +0.000 HD
BRANCH  24  28
ATOM     28  C   UNL     1      47.520   2.395   6.311  0.00  0.00    +0.000 C 
ATOM     29  N   UNL     1      47.424   3.275   5.269  0.00  0.00    +0.000 N 
ATOM     30  O   UNL     1      48.352   1.497   6.320  0.00  0.00    +0.000 OA
ATOM     31  H   UNL     1      46.726   4.011   5.284  0.00  0.00    +0.000 HD
ATOM     32  H   UNL     1      48.057   3.187   4.487  0.00  0.00    +0.000 HD
ENDBRANCH  24  28
ENDBRANCH  19  20
ENDBRANCH   1  19
TORSDOF 7
ENDMDL
MODEL 4
REMARK VINA RESULT:    -7.562      3.583      8.202
REMARK INTER + INTRA:         -11.318
REMARK INTER:                 -10.521
REMARK INTRA:                  -0.797
REMARK UNBOUND:                -0.882
REMARK  Name = 
REMARK  8 active torsions:
REMARK  status: ('A' for Active; 'I' for Inactive)
REMARK    1  A    between atoms: C_1  and  C_2
REMARK    2  A    between atoms: C_2  and  O_3
REMARK    3  A    between atoms: C_5  and  O_6
REMARK    4  A    between atoms: O_6  and  C_7
REMARK    5  A    between atoms: C_12  and  C_13
REMARK    6  A    between atoms: C_13  and  C_16
REMARK    7  A    between atoms: C_16  and  N_17
REMARK    8  A    between atoms: C_21  and  C_22
REMARK                            x       y       z     vdW  Elec       q    Type
REMARK                         _______ _______ _______ _____ _____    ______ ____
ROOT
ATOM      1  C   UNL     1      46.761   6.585  12.168  0.00  0.00    +0.000 C 
ATOM      2  F   UNL     1      47.543   6.970  11.113  0.00  0.00    +0.000 F 
ATOM      3  F   UNL     1      46.340   7.760  12.739  0.00  0.00    +0.000 F 
ENDROOT
BRANCH   1   9
ATOM      4  C   UNL     1      44.517   4.075  10.268  0.00  0.00    +0.000 A 
ATOM      5  C   UNL     1      43.278   4.350  10.834  0.00  0.00    +0.000 A 
ATOM      6  C   UNL     1      43.184   5.346  11.799  0.00  0.00    +0.000 A 
ATOM      7  F   UNL     1      41.989   5.634  12.330  0.00  0.00    +0.000 F 
ATOM      8  C   UNL     1      44.306   6.056  12.217  0.00  0.00    +0.000 A 
ATOM      9  C   UNL     1      45.572   5.771  11.677  0.00  0.00    +0.000 A 
ATOM     10  C   UNL     1      45.657   4.764  10.700  0.00  0.00    +0.000 A 
BRANCH   4  11
ATOM     11  O   UNL     1      44.728   3.145   9.279  0.00  0.00    +0.000 OA
BRANCH  11  15
ATOM     12  C   UNL     1      46.755   2.424   5.271  0.00  0.00    +0.000 C 
ATOM     13  C   UNL     1      46.986   2.859   6.709  0.00  0.00    +0.000 C 
ATOM     14  C   UNL     1      46.385   1.908   7.774  0.00  0.00    +0.000 C 
ATOM     15  C   UNL     1      46.001   3.169   8.594  0.00  0.00    +0.000 C 
ATOM     16  C   UNL     1      46.012   3.940   7.249  0.00  0.00    +0.000 C 
BRANCH  13  17
ATOM     17  O   UNL     1      48.386   3.173   6.895  0.00  0.00    +0.000 OA
ATOM     18  H   UNL     1      48.707   2.545   7.565  0.00  0.00    +0.000 HD
ENDBRANCH  13  17
ENDBRANCH  11  15
ENDBRANCH   4  11
ENDBRANCH   1   9
BRANCH   1  19
ATOM     19  C   UNL     1      47.661   5.873  13.207  0.00  0.00    +0.000 C 
BRANCH  19  20
ATOM     20  N   UNL     1      46.940   4.895  14.058  0.00  0.00    +0.000 N 
ATOM     21  C   UNL     1      47.475   4.797  15.352  0.00  0.00    +0.000 A 
ATOM     22  C   UNL     1      46.908   3.924  16.293  0.00  0.00    +0.000 A 
ATOM     23  N   UNL     1      47.362   3.769  17.567  0.00  0.00    +0.000 NA
ATOM     24  C   UNL     1      48.426   4.556  17.882  0.00  0.00    +0.000 A 
ATOM     25  C   UNL     1      48.984   5.441  16.975  0.00  0.00    +0.000 A 
ATOM     26  N   UNL     1      48.520   5.578  15.707  0.00  0.00    +0.000 NA
ATOM     27  H   UNL     1      46.898   3.976  13.619  0.00  0.00    +0.000 HD
BRANCH  24  28
ATOM     28  C   UNL     1      49.014   4.443  19.243  0.00  0.00    +0.000 C 
ATOM     29  N   UNL     1      48.479   3.479  20.052  0.00  0.00    +0.000 N 
ATOM     30  O   UNL     1      49.930   5.164  19.620  0.00  0.00    +0.000 OA
ATOM     31  H   UNL     1      47.720   2.895  19.718  0.00  0.00    +0.000 HD
ATOM     32  H   UNL     1      48.848   3.354  20.984  0.00  0.00    +0.000 HD
ENDBRANCH  24  28
ENDBRANCH  19  20
ENDBRANCH   1  19
TORSDOF 7
ENDMDL
MODEL 5
REMARK VINA RESULT:    -7.321      4.158      8.125
REMARK INTER + INTRA:         -10.985
REMARK INTER:                 -10.304
REMARK INTRA:                  -0.681
REMARK UNBOUND:                -0.882
REMARK  Name = 
REMARK  8 active torsions:
REMARK  status: ('A' for Active; 'I' for Inactive)
REMARK    1  A    between atoms: C_1  and  C_2
REMARK    2  A    between atoms: C_2  and  O_3
REMARK    3  A    between atoms: C_5  and  O_6
REMARK    4  A    between atoms: O_6  and  C_7
REMARK    5  A    between atoms: C_12  and  C_13
REMARK    6  A    between atoms: C_13  and  C_16
REMARK    7  A    between atoms: C_16  and  N_17
REMARK    8  A    between atoms: C_21  and  C_22
REMARK                            x       y       z     vdW  Elec       q    Type
REMARK                         _______ _______ _______ _____ _____    ______ ____
ROOT
ATOM      1  C   UNL     1      46.734   4.332  13.704  0.00  0.00    +0.000 C 
ATOM      2  F   UNL     1      47.729   3.465  13.343  0.00  0.00    +0.000 F 
ATOM      3  F   UNL     1      47.297   5.578  13.588  0.00  0.00    +0.000 F 
ENDROOT
BRANCH   1   9
ATOM      4  C   UNL     1      44.437   3.389  10.742  0.00  0.00    +0.000 A 
ATOM      5  C   UNL     1      43.262   4.034  11.105  0.00  0.00    +0.000 A 
ATOM      6  C   UNL     1      43.234   4.772  12.282  0.00  0.00    +0.000 A 
ATOM      7  F   UNL     1      42.113   5.418  12.626  0.00  0.00    +0.000 F 
ATOM      8  C   UNL     1      44.353   4.861  13.106  0.00  0.00    +0.000 A 
ATOM      9  C   UNL     1      45.541   4.191  12.769  0.00  0.00    +0.000 A 
ATOM     10  C   UNL     1      45.561   3.449  11.575  0.00  0.00    +0.000 A 
BRANCH   4  11
ATOM     11  O   UNL     1      44.598   2.665   9.585  0.00  0.00    +0.000 OA
BRANCH  11  15
ATOM     12  C   UNL     1      46.463   2.390   5.444  0.00  0.00    +0.000 C 
ATOM     13  C   UNL     1      46.733   2.749   6.897  0.00  0.00    +0.000 C 
ATOM     14  C   UNL     1      46.272   1.682   7.921  0.00  0.00    +0.000 C 
ATOM     15  C   UNL     1      45.826   2.847   8.844  0.00  0.00    +0.000 C 
ATOM     16  C   UNL     1      45.699   3.702   7.556  0.00  0.00    +0.000 C 
BRANCH  13  17
ATOM     17  O   UNL     1      48.108   3.174   7.037  0.00  0.00    +0.000 OA
ATOM     18  H   UNL     1      48.473   2.640   7.764  0.00  0.00    +0.000 HD
ENDBRANCH  13  17
ENDBRANCH  11  15
ENDBRANCH   4  11
ENDBRANCH   1   9
BRANCH   1  19
ATOM     19  C   UNL     1      46.422   4.115  15.205  0.00  0.00    +0.000 C 
BRANCH  19  20
ATOM     20  N   UNL     1      47.338   4.839  16.120  0.00  0.00    +0.000 N 
ATOM     21  C   UNL     1      48.428   4.057  16.535  0.00  0.00    +0.000 A 
ATOM     22  C   UNL     1      49.398   4.587  17.397  0.00  0.00    +0.000 A 
ATOM     23  N   UNL     1      50.485   3.901  17.846  0.00  0.00    +0.000 NA
ATOM     24  C   UNL     1      50.577   2.628  17.373  0.00  0.00    +0.000 A 
ATOM     25  C   UNL     1      49.641   2.094  16.503  0.00  0.00    +0.000 A 
ATOM     26  N   UNL     1      48.562   2.794  16.070  0.00  0.00    +0.000 NA
ATOM     27  H   UNL     1      46.842   5.216  16.927  0.00  0.00    +0.000 HD
BRANCH  24  28
ATOM     28  C   UNL     1      51.714   1.783  17.825  0.00  0.00    +0.000 C 
ATOM     29  N   UNL     1      51.434   0.463  18.044  0.00  0.00    +0.000 N 
ATOM     30  O   UNL     1      52.840   2.237  17.986  0.00  0.00    +0.000 OA
ATOM     31  H   UNL     1      50.493   0.111  17.904  0.00  0.00    +0.000 HD
ATOM     32  H   UNL     1      52.173  -0.157  18.342  0.00  0.00    +0.000 HD
ENDBRANCH  24  28
ENDBRANCH  19  20
ENDBRANCH   1  19
TORSDOF 7
ENDMDL
MODEL 6
REMARK VINA RESULT:    -7.096      3.173      4.763
REMARK INTER + INTRA:         -10.674
REMARK INTER:                  -9.985
REMARK INTRA:                  -0.690
REMARK UNBOUND:                -0.882
REMARK  Name = 
REMARK  8 active torsions:
REMARK  status: ('A' for Active; 'I' for Inactive)
REMARK    1  A    between atoms: C_1  and  C_2
REMARK    2  A    between atoms: C_2  and  O_3
REMARK    3  A    between atoms: C_5  and  O_6
REMARK    4  A    between atoms: O_6  and  C_7
REMARK    5  A    between atoms: C_12  and  C_13
REMARK    6  A    between atoms: C_13  and  C_16
REMARK    7  A    between atoms: C_16  and  N_17
REMARK    8  A    between atoms: C_21  and  C_22
REMARK                            x       y       z     vdW  Elec       q    Type
REMARK                         _______ _______ _______ _____ _____    ______ ____
ROOT
ATOM      1  C   UNL     1      48.277   8.435  11.993  0.00  0.00    +0.000 C 
ATOM      2  F   UNL     1      48.548   9.578  11.290  0.00  0.00    +0.000 F 
ATOM      3  F   UNL     1      48.607   7.413  11.139  0.00  0.00    +0.000 F 
ENDROOT
BRANCH   1   9
ATOM      4  C   UNL     1      49.999   7.266  15.249  0.00  0.00    +0.000 A 
ATOM      5  C   UNL     1      50.711   8.409  15.595  0.00  0.00    +0.000 A 
ATOM      6  C   UNL     1      50.611   9.535  14.787  0.00  0.00    +0.000 A 
ATOM      7  F   UNL     1      51.273  10.648  15.127  0.00  0.00    +0.000 F 
ATOM      8  C   UNL     1      49.827   9.531  13.636  0.00  0.00    +0.000 A 
ATOM      9  C   UNL     1      49.123   8.376  13.256  0.00  0.00    +0.000 A 
ATOM     10  C   UNL     1      49.228   7.243  14.081  0.00  0.00    +0.000 A 
BRANCH   4  11
ATOM     11  O   UNL     1      49.986   6.108  15.989  0.00  0.00    +0.000 OA
BRANCH  11  15
ATOM     12  C   UNL     1      47.386   2.763  17.645  0.00  0.00    +0.000 C 
ATOM     13  C   UNL     1      47.571   4.271  17.595  0.00  0.00    +0.000 C 
ATOM     14  C   UNL     1      47.768   4.848  16.171  0.00  0.00    +0.000 C 
ATOM     15  C   UNL     1      48.808   5.828  16.778  0.00  0.00    +0.000 C 
ATOM     16  C   UNL     1      49.003   4.783  17.907  0.00  0.00    +0.000 C 
BRANCH  13  17
ATOM     17  O   UNL     1      46.528   4.907  18.369  0.00  0.00    +0.000 OA
ATOM     18  H   UNL     1      46.794   5.839  18.448  0.00  0.00    +0.000 HD
ENDBRANCH  13  17
ENDBRANCH  11  15
ENDBRANCH   4  11
ENDBRANCH   1   9
BRANCH   1  19
ATOM     19  C   UNL     1      46.747   8.358  12.222  0.00  0.00    +0.000 C 
BRANCH  19  20
ATOM     20  N   UNL     1      46.342   7.352  13.234  0.00  0.00    +0.000 N 
ATOM     21  C   UNL     1      45.737   6.218  12.667  0.00  0.00    +0.000 A 
ATOM     22  C   UNL     1      45.299   5.163  13.480  0.00  0.00    +0.000 A 
ATOM     23  N   UNL     1      44.706   4.029  13.015  0.00  0.00    +0.000 NA
ATOM     24  C   UNL     1      44.576   3.981  11.661  0.00  0.00    +0.000 A 
ATOM     25  C   UNL     1      45.023   5.003  10.840  0.00  0.00    +0.000 A 
ATOM     26  N   UNL     1      45.609   6.127  11.324  0.00  0.00    +0.000 NA
ATOM     27  H   UNL     1      45.738   7.759  13.947  0.00  0.00    +0.000 HD
BRANCH  24  28
ATOM     28  C   UNL     1      43.916   2.796  11.052  0.00  0.00    +0.000 C 
ATOM     29  N   UNL     1      44.482   2.315   9.904  0.00  0.00    +0.000 N 
ATOM     30  O   UNL     1      42.928   2.272  11.551  0.00  0.00    +0.000 OA
ATOM     31  H   UNL     1      45.300   2.767   9.510  0.00  0.00    +0.000 HD
ATOM     32  H   UNL     1      44.078   1.506   9.455  0.00  0.00    +0.000 HD
ENDBRANCH  24  28
ENDBRANCH  19  20
ENDBRANCH   1  19
TORSDOF 7
ENDMDL
MODEL 7
REMARK VINA RESULT:    -6.917      4.163      7.206
REMARK INTER + INTRA:         -10.428
REMARK INTER:                  -9.208
REMARK INTRA:                  -1.219
REMARK UNBOUND:                -0.882
REMARK  Name = 
REMARK  8 active torsions:
REMARK  status: ('A' for Active; 'I' for Inactive)
REMARK    1  A    between atoms: C_1  and  C_2
REMARK    2  A    between atoms: C_2  and  O_3
REMARK    3  A    between atoms: C_5  and  O_6
REMARK    4  A    between atoms: O_6  and  C_7
REMARK    5  A    between atoms: C_12  and  C_13
REMARK    6  A    between atoms: C_13  and  C_16
REMARK    7  A    between atoms: C_16  and  N_17
REMARK    8  A    between atoms: C_21  and  C_22
REMARK                            x       y       z     vdW  Elec       q    Type
REMARK                         _______ _______ _______ _____ _____    ______ ____
ROOT
ATOM      1  C   UNL     1      48.660   8.845  12.549  0.00  0.00    +0.000 C 
ATOM      2  F   UNL     1      49.421   9.294  11.504  0.00  0.00    +0.000 F 
ATOM      3  F   UNL     1      48.950   9.698  13.585  0.00  0.00    +0.000 F 
ENDROOT
BRANCH   1   9
ATOM      4  C   UNL     1      45.038   7.921  11.566  0.00  0.00    +0.000 A 
ATOM      5  C   UNL     1      44.448   9.178  11.523  0.00  0.00    +0.000 A 
ATOM      6  C   UNL     1      45.227  10.297  11.792  0.00  0.00    +0.000 A 
ATOM      7  F   UNL     1      44.673  11.514  11.727  0.00  0.00    +0.000 F 
ATOM      8  C   UNL     1      46.575  10.178  12.118  0.00  0.00    +0.000 A 
ATOM      9  C   UNL     1      47.181   8.912  12.196  0.00  0.00    +0.000 A 
ATOM     10  C   UNL     1      46.386   7.786  11.919  0.00  0.00    +0.000 A 
BRANCH   4  11
ATOM     11  O   UNL     1      44.383   6.747  11.280  0.00  0.00    +0.000 OA
BRANCH  11  15
ATOM     12  C   UNL     1      43.448   2.368  12.086  0.00  0.00    +0.000 C 
ATOM     13  C   UNL     1      44.509   3.448  12.223  0.00  0.00    +0.000 C 
ATOM     14  C   UNL     1      44.005   4.770  12.857  0.00  0.00    +0.000 C 
ATOM     15  C   UNL     1      44.910   5.527  11.848  0.00  0.00    +0.000 C 
ATOM     16  C   UNL     1      44.797   4.274  10.941  0.00  0.00    +0.000 C 
BRANCH  13  17
ATOM     17  O   UNL     1      45.686   2.886  12.847  0.00  0.00    +0.000 OA
ATOM     18  H   UNL     1      45.355   2.283  13.535  0.00  0.00    +0.000 HD
ENDBRANCH  13  17
ENDBRANCH  11  15
ENDBRANCH   4  11
ENDBRANCH   1   9
BRANCH   1  19
ATOM     19  C   UNL     1      49.175   7.444  12.959  0.00  0.00    +0.000 C 
BRANCH  19  20
ATOM     20  N   UNL     1      49.792   7.400  14.307  0.00  0.00    +0.000 N 
ATOM     21  C   UNL     1      49.183   6.462  15.157  0.00  0.00    +0.000 A 
ATOM     22  C   UNL     1      49.646   6.284  16.469  0.00  0.00    +0.000 A 
ATOM     23  N   UNL     1      49.117   5.397  17.356  0.00  0.00    +0.000 NA
ATOM     24  C   UNL     1      48.085   4.660  16.863  0.00  0.00    +0.000 A 
ATOM     25  C   UNL     1      47.628   4.806  15.563  0.00  0.00    +0.000 A 
ATOM     26  N   UNL     1      48.167   5.699  14.694  0.00  0.00    +0.000 NA
ATOM     27  H   UNL     1      49.804   8.321  14.743  0.00  0.00    +0.000 HD
BRANCH  24  28
ATOM     28  C   UNL     1      47.418   3.681  17.761  0.00  0.00    +0.000 C 
ATOM     29  N   UNL     1      47.929   3.580  19.026  0.00  0.00    +0.000 N 
ATOM     30  O   UNL     1      46.462   3.007  17.398  0.00  0.00    +0.000 OA
ATOM     31  H   UNL     1      48.722   4.148  19.303  0.00  0.00    +0.000 HD
ATOM     32  H   UNL     1      47.507   2.936  19.680  0.00  0.00    +0.000 HD
ENDBRANCH  24  28
ENDBRANCH  19  20
ENDBRANCH   1  19
TORSDOF 7
ENDMDL
MODEL 8
REMARK VINA RESULT:    -6.753      4.626      6.741
REMARK INTER + INTRA:         -10.202
REMARK INTER:                  -9.433
REMARK INTRA:                  -0.769
REMARK UNBOUND:                -0.882
REMARK  Name = 
REMARK  8 active torsions:
REMARK  status: ('A' for Active; 'I' for Inactive)
REMARK    1  A    between atoms: C_1  and  C_2
REMARK    2  A    between atoms: C_2  and  O_3
REMARK    3  A    between atoms: C_5  and  O_6
REMARK    4  A    between atoms: O_6  and  C_7
REMARK    5  A    between atoms: C_12  and  C_13
REMARK    6  A    between atoms: C_13  and  C_16
REMARK    7  A    between atoms: C_16  and  N_17
REMARK    8  A    between atoms: C_21  and  C_22
REMARK                            x       y       z     vdW  Elec       q    Type
REMARK                         _______ _______ _______ _____ _____    ______ ____
ROOT
ATOM      1  C   UNL     1      47.862   3.193  16.910  0.00  0.00    +0.000 C 
ATOM      2  F   UNL     1      48.279   2.444  15.843  0.00  0.00    +0.000 F 
ATOM      3  F   UNL     1      47.109   2.333  17.669  0.00  0.00    +0.000 F 
ENDROOT
BRANCH   1   9
ATOM      4  C   UNL     1      51.448   3.845  18.198  0.00  0.00    +0.000 A 
ATOM      5  C   UNL     1      51.192   4.689  19.272  0.00  0.00    +0.000 A 
ATOM      6  C   UNL     1      49.876   5.018  19.572  0.00  0.00    +0.000 A 
ATOM      7  F   UNL     1      49.619   5.809  20.621  0.00  0.00    +0.000 F 
ATOM      8  C   UNL     1      48.818   4.531  18.808  0.00  0.00    +0.000 A 
ATOM      9  C   UNL     1      49.060   3.700  17.702  0.00  0.00    +0.000 A 
ATOM     10  C   UNL     1      50.394   3.371  17.408  0.00  0.00    +0.000 A 
BRANCH   4  11
ATOM     11  O   UNL     1      52.701   3.417  17.831  0.00  0.00    +0.000 OA
BRANCH  11  15
ATOM     12  C   UNL     1      54.629  -0.558  16.744  0.00  0.00    +0.000 C 
ATOM     13  C   UNL     1      54.098   0.281  17.895  0.00  0.00    +0.000 C 
ATOM     14  C   UNL     1      52.681   0.865  17.667  0.00  0.00    +0.000 C 
ATOM     15  C   UNL     1      53.167   2.160  18.371  0.00  0.00    +0.000 C 
ATOM     16  C   UNL     1      54.601   1.750  17.945  0.00  0.00    +0.000 C 
BRANCH  13  17
ATOM     17  O   UNL     1      54.263  -0.446  19.134  0.00  0.00    +0.000 OA
ATOM     18  H   UNL     1      53.372  -0.513  19.518  0.00  0.00    +0.000 HD
ENDBRANCH  13  17
ENDBRANCH  11  15
ENDBRANCH   4  11
ENDBRANCH   1   9
BRANCH   1  19
ATOM     19  C   UNL     1      46.906   4.293  16.388  0.00  0.00    +0.000 C 
BRANCH  19  20
ATOM     20  N   UNL     1      47.503   5.163  15.345  0.00  0.00    +0.000 N 
ATOM     21  C   UNL     1      46.793   5.132  14.134  0.00  0.00    +0.000 A 
ATOM     22  C   UNL     1      47.215   5.903  13.041  0.00  0.00    +0.000 A 
ATOM     23  N   UNL     1      46.586   5.932  11.833  0.00  0.00    +0.000 NA
ATOM     24  C   UNL     1      45.475   5.150  11.762  0.00  0.00    +0.000 A 
ATOM     25  C   UNL     1      45.030   4.399  12.838  0.00  0.00    +0.000 A 
ATOM     26  N   UNL     1      45.673   4.380  14.032  0.00  0.00    +0.000 NA
ATOM     27  H   UNL     1      48.485   4.941  15.189  0.00  0.00    +0.000 HD
BRANCH  24  28
ATOM     28  C   UNL     1      44.729   5.091  10.477  0.00  0.00    +0.000 C 
ATOM     29  N   UNL     1      45.480   5.209   9.340  0.00  0.00    +0.000 N 
ATOM     30  O   UNL     1      43.515   4.938  10.433  0.00  0.00    +0.000 OA
ATOM     31  H   UNL     1      46.484   5.336   9.402  0.00  0.00    +0.000 HD
ATOM     32  H   UNL     1      45.024   5.166   8.440  0.00  0.00    +0.000 HD
ENDBRANCH  24  28
ENDBRANCH  19  20
ENDBRANCH   1  19
TORSDOF 7
ENDMDL
MODEL 9
REMARK VINA RESULT:    -6.581      3.595      5.278
REMARK INTER + INTRA:          -9.963
REMARK INTER:                  -8.993
REMARK INTRA:                  -0.970
REMARK UNBOUND:                -0.882
REMARK  Name = 
REMARK  8 active torsions:
REMARK  status: ('A' for Active; 'I' for Inactive)
REMARK    1  A    between atoms: C_1  and  C_2
REMARK    2  A    between atoms: C_2  and  O_3
REMARK    3  A    between atoms: C_5  and  O_6
REMARK    4  A    between atoms: O_6  and  C_7
REMARK    5  A    between atoms: C_12  and  C_13
REMARK    6  A    between atoms: C_13  and  C_16
REMARK    7  A    between atoms: C_16  and  N_17
REMARK    8  A    between atoms: C_21  and  C_22
REMARK                            x       y       z     vdW  Elec       q    Type
REMARK                         _______ _______ _______ _____ _____    ______ ____
ROOT
ATOM      1  C   UNL     1      48.838   8.697  13.679  0.00  0.00    +0.000 C 
ATOM      2  F   UNL     1      49.257  10.000  13.691  0.00  0.00    +0.000 F 
ATOM      3  F   UNL     1      49.298   8.193  12.488  0.00  0.00    +0.000 F 
ENDROOT
BRANCH   1   9
ATOM      4  C   UNL     1      49.321   6.844  17.036  0.00  0.00    +0.000 A 
ATOM      5  C   UNL     1      50.678   6.552  16.982  0.00  0.00    +0.000 A 
ATOM      6  C   UNL     1      51.414   6.970  15.880  0.00  0.00    +0.000 A 
ATOM      7  F   UNL     1      52.728   6.715  15.832  0.00  0.00    +0.000 F 
ATOM      8  C   UNL     1      50.813   7.657  14.828  0.00  0.00    +0.000 A 
ATOM      9  C   UNL     1      49.436   7.935  14.853  0.00  0.00    +0.000 A 
ATOM     10  C   UNL     1      48.701   7.511  15.973  0.00  0.00    +0.000 A 
BRANCH   4  11
ATOM     11  O   UNL     1      48.500   6.520  18.089  0.00  0.00    +0.000 OA
BRANCH  11  15
ATOM     12  C   UNL     1      48.726   2.215  16.635  0.00  0.00    +0.000 C 
ATOM     13  C   UNL     1      47.854   3.227  17.360  0.00  0.00    +0.000 C 
ATOM     14  C   UNL     1      47.695   4.583  16.627  0.00  0.00    +0.000 C 
ATOM     15  C   UNL     1      47.772   5.274  18.015  0.00  0.00    +0.000 C 
ATOM     16  C   UNL     1      48.552   4.023  18.497  0.00  0.00    +0.000 C 
BRANCH  13  17
ATOM     17  O   UNL     1      46.612   2.597  17.750  0.00  0.00    +0.000 OA
ATOM     18  H   UNL     1      45.997   3.327  17.938  0.00  0.00    +0.000 HD
ENDBRANCH  13  17
ENDBRANCH  11  15
ENDBRANCH   4  11
ENDBRANCH   1   9
BRANCH   1  19
ATOM     19  C   UNL     1      47.291   8.685  13.607  0.00  0.00    +0.000 C 
BRANCH  19  20
ATOM     20  N   UNL     1      46.754   8.401  12.254  0.00  0.00    +0.000 N 
ATOM     21  C   UNL     1      46.078   7.173  12.180  0.00  0.00    +0.000 A 
ATOM     22  C   UNL     1      45.499   6.749  10.975  0.00  0.00    +0.000 A 
ATOM     23  N   UNL     1      44.825   5.576  10.817  0.00  0.00    +0.000 NA
ATOM     24  C   UNL     1      44.735   4.826  11.949  0.00  0.00    +0.000 A 
ATOM     25  C   UNL     1      45.280   5.238  13.153  0.00  0.00    +0.000 A 
ATOM     26  N   UNL     1      45.952   6.410  13.290  0.00  0.00    +0.000 NA
ATOM     27  H   UNL     1      47.483   8.450  11.544  0.00  0.00    +0.000 HD
BRANCH  24  28
ATOM     28  C   UNL     1      44.042   3.513  11.876  0.00  0.00    +0.000 C 
ATOM     29  N   UNL     1      44.612   2.491  12.583  0.00  0.00    +0.000 N 
ATOM     30  O   UNL     1      43.015   3.352  11.228  0.00  0.00    +0.000 OA
ATOM     31  H   UNL     1      45.464   2.648  13.111  0.00  0.00    +0.000 HD
ATOM     32  H   UNL     1      44.176   1.580  12.575  0.00  0.00    +0.000 HD
ENDBRANCH  24  28
ENDBRANCH  19  20
ENDBRANCH   1  19
TORSDOF 7
ENDMDL
