MODEL 1
REMARK VINA RESULT:    -7.917      0.000      0.000
REMARK INTER + INTRA:         -11.690
REMARK INTER:                 -10.925
REMARK INTRA:                  -0.765
REMARK UNBOUND:                -0.765
REMARK  Name = 
REMARK  7 active torsions:
REMARK  status: ('A' for Active; 'I' for Inactive)
REMARK    1  A    between atoms: N_1  and  C_2
REMARK    2  A    between atoms: C_2  and  C_3
REMARK    3  A    between atoms: C_3  and  C_4
REMARK    4  A    between atoms: C_4  and  C_5
REMARK    5  A    between atoms: N_11  and  C_12
REMARK    6  A    between atoms: C_12  and  C_13
REMARK    7  A    between atoms: C_16  and  C_17
REMARK                            x       y       z     vdW  Elec       q    Type
REMARK                         _______ _______ _______ _____ _____    ______ ____
ROOT
ATOM      1  C   UNL     1      44.923   8.843  11.785  0.00  0.00    +0.000 A 
ATOM      2  C   UNL     1      45.912   8.827  12.766  0.00  0.00    +0.000 A 
ATOM      3  N   UNL     1      46.450   7.725  13.330  0.00  0.00    +0.000 NA
ATOM      4  C   UNL     1      45.975   6.550  12.854  0.00  0.00    +0.000 A 
ATOM      5  C   UNL     1      46.352   5.237  13.215  0.00  0.00    +0.000 A 
ATOM      6  C   UNL     1      45.617   4.368  12.439  0.00  0.00    +0.000 A 
ATOM      7  N   UNL     1      44.817   5.115  11.605  0.00  0.00    +0.000 N 
ATOM      8  C   UNL     1      44.986   6.460  11.877  0.00  0.00    +0.000 A 
ATOM      9  C   UNL     1      44.408   7.619  11.343  0.00  0.00    +0.000 A 
ENDROOT
BRANCH   1  10
ATOM     10  C   UNL     1      44.435  10.138  11.188  0.00  0.00    +0.000 C 
BRANCH  10  11
ATOM     11  C   UNL     1      43.235   9.985  10.243  0.00  0.00    +0.000 C 
BRANCH  11  12
ATOM     12  C   UNL     1      41.934  10.543  10.826  0.00  0.00    +0.000 C 
BRANCH  12  13
ATOM     13  N   UNL     1      41.059   9.451  11.240  0.00  0.00    +0.000 NA
ATOM     14  H   UNL     1      41.128   8.690  10.565  0.00  0.00    +0.000 HD
ATOM     15  H   UNL     1      40.089   9.761  11.210  0.00  0.00    +0.000 HD
ENDBRANCH  12  13
ENDBRANCH  11  12
ENDBRANCH  10  11
ENDBRANCH   1  10
BRANCH   7  16
ATOM     16  C   UNL     1      43.966   4.546  10.561  0.00  0.00    +0.000 C 
BRANCH  16  17
ATOM     17  C   UNL     1      44.790   3.823   9.525  0.00  0.00    +0.000 A 
ATOM     18  C   UNL     1      45.539   4.520   8.570  0.00  0.00    +0.000 A 
ATOM     19  C   UNL     1      46.370   3.829   7.693  0.00  0.00    +0.000 A 
ATOM     20  C   UNL     1      46.412   2.448   7.785  0.00  0.00    +0.000 A 
ATOM     21  N   UNL     1      45.660   1.723   8.661  0.00  0.00    +0.000 NA
ATOM     22  C   UNL     1      44.872   2.432   9.506  0.00  0.00    +0.000 A 
BRANCH  20  23
ATOM     23  C   UNL     1      47.368   1.691   6.913  0.00  0.00    +0.000 C 
ATOM     24  N   UNL     1      48.462   2.392   6.489  0.00  0.00    +0.000 N 
ATOM     25  O   UNL     1      47.180   0.528   6.582  0.00  0.00    +0.000 OA
ATOM     26  H   UNL     1      48.559   3.371   6.734  0.00  0.00    +0.000 HD
ATOM     27  H   UNL     1      49.100   1.962   5.835  0.00  0.00    +0.000 HD
ENDBRANCH  20  23
ENDBRANCH  16  17
ENDBRANCH   7  16
TORSDOF 7
ENDMDL
MODEL 2
REMARK VINA RESULT:    -7.689      2.203      4.886
REMARK INTER + INTRA:         -11.376
REMARK INTER:                 -10.724
REMARK INTRA:                  -0.652
REMARK UNBOUND:                -0.765
REMARK  Name = 
REMARK  7 active torsions:
REMARK  status: ('A' for Active; 'I' for Inactive)
REMARK    1  A    between atoms: N_1  and  C_2
REMARK    2  A    between atoms: C_2  and  C_3
REMARK    3  A    between atoms: C_3  and  C_4
REMARK    4  A    between atoms: C_4  and  C_5
REMARK    5  A    between atoms: N_11  and  C_12
REMARK    6  A    between atoms: C_12  and  C_13
REMARK    7  A    between atoms: C_16  and  C_17
REMARK                            x       y       z     vdW  Elec       q    Type
REMARK                         _______ _______ _______ _____ _____    ______ ____
ROOT
ATOM      1  C   UNL     1      47.045   4.423  14.100  0.00  0.00    +0.000 A 
ATOM      2  C   UNL     1      47.434   5.723  14.415  0.00  0.00    +0.000 A 
ATOM      3  N   UNL     1      47.062   6.842  13.760  0.00  0.00    +0.000 NA
ATOM      4  C   UNL     1      46.214   6.641  12.723  0.00  0.00    +0.000 A 
ATOM      5  C   UNL     1      45.626   7.600  11.868  0.00  0.00    +0.000 A 
ATOM      6  C   UNL     1      44.811   6.924  10.986  0.00  0.00    +0.000 A 
ATOM      7  N   UNL     1      44.874   5.583  11.292  0.00  0.00    +0.000 N 
ATOM      8  C   UNL     1      45.768   5.382  12.327  0.00  0.00    +0.000 A 
ATOM      9  C   UNL     1      46.209   4.232  12.993  0.00  0.00    +0.000 A 
ENDROOT
BRANCH   1  10
ATOM     10  C   UNL     1      47.483   3.250  14.940  0.00  0.00    +0.000 C 
BRANCH  10  11
ATOM     11  C   UNL     1      47.643   3.568  16.433  0.00  0.00    +0.000 C 
BRANCH  11  12
ATOM     12  C   UNL     1      48.867   2.897  17.062  0.00  0.00    +0.000 C 
BRANCH  12  13
ATOM     13  N   UNL     1      49.380   1.855  16.180  0.00  0.00    +0.000 NA
ATOM     14  H   UNL     1      49.751   2.284  15.332  0.00  0.00    +0.000 HD
ATOM     15  H   UNL     1      48.613   1.257  15.875  0.00  0.00    +0.000 HD
ENDBRANCH  12  13
ENDBRANCH  11  12
ENDBRANCH  10  11
ENDBRANCH   1  10
BRANCH   7  16
ATOM     16  C   UNL     1      44.064   4.556  10.639  0.00  0.00    +0.000 C 
BRANCH  16  17
ATOM     17  C   UNL     1      44.852   3.842   9.571  0.00  0.00    +0.000 A 
ATOM     18  C   UNL     1      45.548   4.546   8.581  0.00  0.00    +0.000 A 
ATOM     19  C   UNL     1      46.350   3.864   7.671  0.00  0.00    +0.000 A 
ATOM     20  C   UNL     1      46.418   2.484   7.766  0.00  0.00    +0.000 A 
ATOM     21  N   UNL     1      45.718   1.751   8.678  0.00  0.00    +0.000 NA
ATOM     22  C   UNL     1      44.957   2.452   9.554  0.00  0.00    +0.000 A 
BRANCH  20  23
ATOM     23  C   UNL     1      47.347   1.738   6.856  0.00  0.00    +0.000 C 
ATOM     24  N   UNL     1      48.418   2.450   6.392  0.00  0.00    +0.000 N 
ATOM     25  O   UNL     1      47.157   0.574   6.529  0.00  0.00    +0.000 OA
ATOM     26  H   UNL     1      48.515   3.429   6.637  0.00  0.00    +0.000 HD
ATOM     27  H   UNL     1      49.034   2.028   5.713  0.00  0.00    +0.000 HD
ENDBRANCH  20  23
ENDBRANCH  16  17
ENDBRANCH   7  16
TORSDOF 7
ENDMDL
MODEL 3
REMARK VINA RESULT:    -7.506      3.196      7.071
REMARK INTER + INTRA:         -11.124
REMARK INTER:                 -10.686
REMARK INTRA:                  -0.438
REMARK UNBOUND:                -0.765
REMARK  Name = 
REMARK  7 active torsions:
REMARK  status: ('A' for Active; 'I' for Inactive)
REMARK    1  A    between atoms: N_1  and  C_2
REMARK    2  A    between atoms: C_2  and  C_3
REMARK    3  A    between atoms: C_3  and  C_4
REMARK    4  A    between atoms: C_4  and  C_5
REMARK    5  A    between atoms: N_11  and  C_12
REMARK    6  A    between atoms: C_12  and  C_13
REMARK    7  A    between atoms: C_16  and  C_17
REMARK                            x       y       z     vdW  Elec       q    Type
REMARK                         _______ _______ _______ _____ _____    ______ ____
ROOT
ATOM      1  C   UNL     1      45.593   3.787   8.484  0.00  0.00    +0.000 A 
ATOM      2  C   UNL     1      44.869   2.612   8.675  0.00  0.00    +0.000 A 
ATOM      3  N   UNL     1      44.084   2.328   9.735  0.00  0.00    +0.000 NA
ATOM      4  C   UNL     1      44.002   3.310  10.664  0.00  0.00    +0.000 A 
ATOM      5  C   UNL     1      43.249   3.331  11.860  0.00  0.00    +0.000 A 
ATOM      6  C   UNL     1      43.459   4.554  12.459  0.00  0.00    +0.000 A 
ATOM      7  N   UNL     1      44.303   5.283  11.653  0.00  0.00    +0.000 N 
ATOM      8  C   UNL     1      44.688   4.520  10.567  0.00  0.00    +0.000 A 
ATOM      9  C   UNL     1      45.535   4.769   9.480  0.00  0.00    +0.000 A 
ENDROOT
BRANCH   1  10
ATOM     10  C   UNL     1      46.396   4.017   7.230  0.00  0.00    +0.000 C 
BRANCH  10  11
ATOM     11  C   UNL     1      46.454   2.806   6.287  0.00  0.00    +0.000 C 
BRANCH  11  12
ATOM     12  C   UNL     1      47.554   1.808   6.658  0.00  0.00    +0.000 C 
BRANCH  12  13
ATOM     13  N   UNL     1      48.605   1.819   5.647  0.00  0.00    +0.000 NA
ATOM     14  H   UNL     1      49.501   2.012   6.095  0.00  0.00    +0.000 HD
ATOM     15  H   UNL     1      48.449   2.589   4.999  0.00  0.00    +0.000 HD
ENDBRANCH  12  13
ENDBRANCH  11  12
ENDBRANCH  10  11
ENDBRANCH   1  10
BRANCH   7  16
ATOM     16  C   UNL     1      44.676   6.674  11.906  0.00  0.00    +0.000 C 
BRANCH  16  17
ATOM     17  C   UNL     1      46.065   6.765  12.488  0.00  0.00    +0.000 A 
ATOM     18  C   UNL     1      46.894   7.864  12.234  0.00  0.00    +0.000 A 
ATOM     19  C   UNL     1      48.128   7.969  12.868  0.00  0.00    +0.000 A 
ATOM     20  C   UNL     1      48.509   6.954  13.730  0.00  0.00    +0.000 A 
ATOM     21  N   UNL     1      47.761   5.840  13.967  0.00  0.00    +0.000 NA
ATOM     22  C   UNL     1      46.560   5.779  13.340  0.00  0.00    +0.000 A 
BRANCH  20  23
ATOM     23  C   UNL     1      49.792   7.092  14.493  0.00  0.00    +0.000 C 
ATOM     24  N   UNL     1      50.773   7.815  13.873  0.00  0.00    +0.000 N 
ATOM     25  O   UNL     1      49.966   6.579  15.590  0.00  0.00    +0.000 OA
ATOM     26  H   UNL     1      50.616   8.179  12.939  0.00  0.00    +0.000 HD
ATOM     27  H   UNL     1      51.685   7.876  14.300  0.00  0.00    +0.000 HD
ENDBRANCH  20  23
ENDBRANCH  16  17
ENDBRANCH   7  16
TORSDOF 7
ENDMDL
MODEL 4
REMARK VINA RESULT:    -7.263      2.633      3.338
REMARK INTER + INTRA:         -10.789
REMARK INTER:                 -10.016
REMARK INTRA:                  -0.772
REMARK UNBOUND:                -0.765
REMARK  Name = 
REMARK  7 active torsions:
REMARK  status: ('A' for Active; 'I' for Inactive)
REMARK    1  A    between atoms: N_1  and  C_2
REMARK    2  A    between atoms: C_2  and  C_3
REMARK    3  A    between atoms: C_3  and  C_4
REMARK    4  A    between atoms: C_4  and  C_5
REMARK    5  A    between atoms: N_11  and  C_12
REMARK    6  A    between atoms: C_12  and  C_13
REMARK    7  A    between atoms: C_16  and  C_17
REMARK                            x       y       z     vdW  Elec       q    Type
REMARK                         _______ _______ _______ _____ _____    ______ ____
ROOT
ATOM      1  C   UNL     1      47.264   5.974  12.771  0.00  0.00    +0.000 A 
ATOM      2  C   UNL     1      46.953   5.449  14.024  0.00  0.00    +0.000 A 
ATOM      3  N   UNL     1      45.813   4.809  14.355  0.00  0.00    +0.000 NA
ATOM      4  C   UNL     1      44.925   4.663  13.342  0.00  0.00    +0.000 A 
ATOM      5  C   UNL     1      43.667   4.022  13.360  0.00  0.00    +0.000 A 
ATOM      6  C   UNL     1      43.145   4.101  12.086  0.00  0.00    +0.000 A 
ATOM      7  N   UNL     1      44.058   4.757  11.293  0.00  0.00    +0.000 N 
ATOM      8  C   UNL     1      45.140   5.154  12.055  0.00  0.00    +0.000 A 
ATOM      9  C   UNL     1      46.311   5.859  11.752  0.00  0.00    +0.000 A 
ENDROOT
BRANCH   1  10
ATOM     10  C   UNL     1      48.597   6.623  12.503  0.00  0.00    +0.000 C 
BRANCH  10  11
ATOM     11  C   UNL     1      48.511   7.944  11.725  0.00  0.00    +0.000 C 
BRANCH  11  12
ATOM     12  C   UNL     1      48.004   9.111  12.575  0.00  0.00    +0.000 C 
BRANCH  12  13
ATOM     13  N   UNL     1      48.731   9.167  13.838  0.00  0.00    +0.000 NA
ATOM     14  H   UNL     1      48.572  10.074  14.278  0.00  0.00    +0.000 HD
ATOM     15  H   UNL     1      49.733   9.118  13.659  0.00  0.00    +0.000 HD
ENDBRANCH  12  13
ENDBRANCH  11  12
ENDBRANCH  10  11
ENDBRANCH   1  10
BRANCH   7  16
ATOM     16  C   UNL     1      43.904   4.943   9.851  0.00  0.00    +0.000 C 
BRANCH  16  17
ATOM     17  C   UNL     1      44.704   3.920   9.084  0.00  0.00    +0.000 A 
ATOM     18  C   UNL     1      45.600   4.298   8.077  0.00  0.00    +0.000 A 
ATOM     19  C   UNL     1      46.400   3.341   7.459  0.00  0.00    +0.000 A 
ATOM     20  C   UNL     1      46.265   2.021   7.855  0.00  0.00    +0.000 A 
ATOM     21  N   UNL     1      45.369   1.598   8.791  0.00  0.00    +0.000 NA
ATOM     22  C   UNL     1      44.616   2.561   9.379  0.00  0.00    +0.000 A 
BRANCH  20  23
ATOM     23  C   UNL     1      47.181   0.989   7.268  0.00  0.00    +0.000 C 
ATOM     24  N   UNL     1      46.886  -0.308   7.582  0.00  0.00    +0.000 N 
ATOM     25  O   UNL     1      48.142   1.281   6.570  0.00  0.00    +0.000 OA
ATOM     26  H   UNL     1      46.117  -0.512   8.210  0.00  0.00    +0.000 HD
ATOM     27  H   UNL     1      47.512  -1.042   7.283  0.00  0.00    +0.000 HD
ENDBRANCH  20  23
ENDBRANCH  16  17
ENDBRANCH   7  16
TORSDOF 7
ENDMDL
MODEL 5
REMARK VINA RESULT:    -6.959      2.634      3.858
REMARK INTER + INTRA:         -10.368
REMARK INTER:                  -9.553
REMARK INTRA:                  -0.815
REMARK UNBOUND:                -0.765
REMARK  Name = 
REMARK  7 active torsions:
REMARK  status: ('A' for Active; 'I' for Inactive)
REMARK    1  A    between atoms: N_1  and  C_2
REMARK    2  A    between atoms: C_2  and  C_3
REMARK    3  A    between atoms: C_3  and  C_4
REMARK    4  A    between atoms: C_4  and  C_5
REMARK    5  A    between atoms: N_11  and  C_12
REMARK    6  A    between atoms: C_12  and  C_13
REMARK    7  A    between atoms: C_16  and  C_17
REMARK                            x       y       z     vdW  Elec       q    Type
REMARK                         _______ _______ _______ _____ _____    ______ ____
ROOT
ATOM      1  C   UNL     1      48.094   7.526  12.151  0.00  0.00    +0.000 A 
ATOM      2  C   UNL     1      48.660   6.942  13.283  0.00  0.00    +0.000 A 
ATOM      3  N   UNL     1      48.204   5.842  13.919  0.00  0.00    +0.000 NA
ATOM      4  C   UNL     1      47.110   5.272  13.360  0.00  0.00    +0.000 A 
ATOM      5  C   UNL     1      46.418   4.109  13.767  0.00  0.00    +0.000 A 
ATOM      6  C   UNL     1      45.390   3.905  12.872  0.00  0.00    +0.000 A 
ATOM      7  N   UNL     1      45.448   4.901  11.924  0.00  0.00    +0.000 N 
ATOM      8  C   UNL     1      46.469   5.780  12.231  0.00  0.00    +0.000 A 
ATOM      9  C   UNL     1      46.934   6.951  11.620  0.00  0.00    +0.000 A 
ENDROOT
BRANCH   1  10
ATOM     10  C   UNL     1      48.725   8.726  11.493  0.00  0.00    +0.000 C 
BRANCH  10  11
ATOM     11  C   UNL     1      50.113   9.089  12.038  0.00  0.00    +0.000 C 
BRANCH  11  12
ATOM     12  C   UNL     1      51.255   8.635  11.125  0.00  0.00    +0.000 C 
BRANCH  12  13
ATOM     13  N   UNL     1      52.223   7.849  11.883  0.00  0.00    +0.000 NA
ATOM     14  H   UNL     1      52.297   8.226  12.827  0.00  0.00    +0.000 HD
ATOM     15  H   UNL     1      53.148   7.955  11.470  0.00  0.00    +0.000 HD
ENDBRANCH  12  13
ENDBRANCH  11  12
ENDBRANCH  10  11
ENDBRANCH   1  10
BRANCH   7  16
ATOM     16  C   UNL     1      44.581   4.963  10.749  0.00  0.00    +0.000 C 
BRANCH  16  17
ATOM     17  C   UNL     1      45.219   4.275   9.568  0.00  0.00    +0.000 A 
ATOM     18  C   UNL     1      45.967   4.987   8.623  0.00  0.00    +0.000 A 
ATOM     19  C   UNL     1      46.630   4.311   7.603  0.00  0.00    +0.000 A 
ATOM     20  C   UNL     1      46.507   2.933   7.545  0.00  0.00    +0.000 A 
ATOM     21  N   UNL     1      45.746   2.202   8.409  0.00  0.00    +0.000 NA
ATOM     22  C   UNL     1      45.126   2.895   9.396  0.00  0.00    +0.000 A 
BRANCH  20  23
ATOM     23  C   UNL     1      47.285   2.177   6.510  0.00  0.00    +0.000 C 
ATOM     24  N   UNL     1      47.350   2.761   5.276  0.00  0.00    +0.000 N 
ATOM     25  O   UNL     1      47.815   1.098   6.741  0.00  0.00    +0.000 OA
ATOM     26  H   UNL     1      46.852   3.627   5.103  0.00  0.00    +0.000 HD
ATOM     27  H   UNL     1      47.791   2.263   4.517  0.00  0.00    +0.000 HD
ENDBRANCH  20  23
ENDBRANCH  16  17
ENDBRANCH   7  16
TORSDOF 7
ENDMDL
MODEL 6
REMARK VINA RESULT:    -6.608      1.998      3.794
REMARK INTER + INTRA:          -9.885
REMARK INTER:                  -9.311
REMARK INTRA:                  -0.573
REMARK UNBOUND:                -0.765
REMARK  Name = 
REMARK  7 active torsions:
REMARK  status: ('A' for Active; 'I' for Inactive)
REMARK    1  A    between atoms: N_1  and  C_2
REMARK    2  A    between atoms: C_2  and  C_3
REMARK    3  A    between atoms: C_3  and  C_4
REMARK    4  A    between atoms: C_4  and  C_5
REMARK    5  A    between atoms: N_11  and  C_12
REMARK    6  A    between atoms: C_12  and  C_13
REMARK    7  A    between atoms: C_16  and  C_17
REMARK                            x       y       z     vdW  Elec       q    Type
REMARK                         _______ _______ _______ _____ _____    ______ ____
ROOT
ATOM      1  C   UNL     1      47.164   6.745  12.782  0.00  0.00    +0.000 A 
ATOM      2  C   UNL     1      46.434   7.923  12.931  0.00  0.00    +0.000 A 
ATOM      3  N   UNL     1      45.164   8.125  12.521  0.00  0.00    +0.000 NA
ATOM      4  C   UNL     1      44.576   7.054  11.937  0.00  0.00    +0.000 A 
ATOM      5  C   UNL     1      43.261   6.938  11.432  0.00  0.00    +0.000 A 
ATOM      6  C   UNL     1      43.110   5.651  10.964  0.00  0.00    +0.000 A 
ATOM      7  N   UNL     1      44.290   4.977  11.185  0.00  0.00    +0.000 N 
ATOM      8  C   UNL     1      45.221   5.835  11.739  0.00  0.00    +0.000 A 
ATOM      9  C   UNL     1      46.555   5.667  12.130  0.00  0.00    +0.000 A 
ENDROOT
BRANCH   1  10
ATOM     10  C   UNL     1      48.562   6.617  13.331  0.00  0.00    +0.000 C 
BRANCH  10  11
ATOM     11  C   UNL     1      49.515   7.742  12.902  0.00  0.00    +0.000 C 
BRANCH  11  12
ATOM     12  C   UNL     1      49.860   7.702  11.411  0.00  0.00    +0.000 C 
BRANCH  12  13
ATOM     13  N   UNL     1      51.270   7.377  11.229  0.00  0.00    +0.000 NA
ATOM     14  H   UNL     1      51.783   8.226  10.992  0.00  0.00    +0.000 HD
ATOM     15  H   UNL     1      51.378   6.757  10.428  0.00  0.00    +0.000 HD
ENDBRANCH  12  13
ENDBRANCH  11  12
ENDBRANCH  10  11
ENDBRANCH   1  10
BRANCH   7  16
ATOM     16  C   UNL     1      44.481   3.553  10.914  0.00  0.00    +0.000 C 
BRANCH  16  17
ATOM     17  C   UNL     1      45.156   3.341   9.582  0.00  0.00    +0.000 A 
ATOM     18  C   UNL     1      45.526   4.419   8.769  0.00  0.00    +0.000 A 
ATOM     19  C   UNL     1      46.240   4.196   7.595  0.00  0.00    +0.000 A 
ATOM     20  C   UNL     1      46.548   2.889   7.255  0.00  0.00    +0.000 A 
ATOM     21  N   UNL     1      46.162   1.805   7.986  0.00  0.00    +0.000 NA
ATOM     22  C   UNL     1      45.479   2.063   9.129  0.00  0.00    +0.000 A 
BRANCH  20  23
ATOM     23  C   UNL     1      47.394   2.634   6.045  0.00  0.00    +0.000 C 
ATOM     24  N   UNL     1      48.713   2.373   6.290  0.00  0.00    +0.000 N 
ATOM     25  O   UNL     1      46.946   2.673   4.906  0.00  0.00    +0.000 OA
ATOM     26  H   UNL     1      49.064   2.405   7.241  0.00  0.00    +0.000 HD
ATOM     27  H   UNL     1      49.349   2.272   5.513  0.00  0.00    +0.000 HD
ENDBRANCH  20  23
ENDBRANCH  16  17
ENDBRANCH   7  16
TORSDOF 7
ENDMDL
MODEL 7
REMARK VINA RESULT:    -6.021      4.337      7.332
REMARK INTER + INTRA:          -9.075
REMARK INTER:                  -8.293
REMARK INTRA:                  -0.782
REMARK UNBOUND:                -0.765
REMARK  Name = 
REMARK  7 active torsions:
REMARK  status: ('A' for Active; 'I' for Inactive)
REMARK    1  A    between atoms: N_1  and  C_2
REMARK    2  A    between atoms: C_2  and  C_3
REMARK    3  A    between atoms: C_3  and  C_4
REMARK    4  A    between atoms: C_4  and  C_5
REMARK    5  A    between atoms: N_11  and  C_12
REMARK    6  A    between atoms: C_12  and  C_13
REMARK    7  A    between atoms: C_16  and  C_17
REMARK                            x       y       z     vdW  Elec       q    Type
REMARK                         _______ _______ _______ _____ _____    ______ ____
ROOT
ATOM      1  C   UNL     1      49.178   5.868  17.763  0.00  0.00    +0.000 A 
ATOM      2  C   UNL     1      48.895   7.052  18.441  0.00  0.00    +0.000 A 
ATOM      3  N   UNL     1      48.594   8.239  17.872  0.00  0.00    +0.000 NA
ATOM      4  C   UNL     1      48.551   8.229  16.519  0.00  0.00    +0.000 A 
ATOM      5  C   UNL     1      48.242   9.290  15.640  0.00  0.00    +0.000 A 
ATOM      6  C   UNL     1      48.295   8.793  14.355  0.00  0.00    +0.000 A 
ATOM      7  N   UNL     1      48.612   7.456  14.431  0.00  0.00    +0.000 N 
ATOM      8  C   UNL     1      48.821   7.098  15.749  0.00  0.00    +0.000 A 
ATOM      9  C   UNL     1      49.179   5.892  16.363  0.00  0.00    +0.000 A 
ENDROOT
BRANCH   1  10
ATOM     10  C   UNL     1      49.448   4.586  18.507  0.00  0.00    +0.000 C 
BRANCH  10  11
ATOM     11  C   UNL     1      48.936   3.325  17.798  0.00  0.00    +0.000 C 
BRANCH  11  12
ATOM     12  C   UNL     1      50.063   2.427  17.279  0.00  0.00    +0.000 C 
BRANCH  12  13
ATOM     13  N   UNL     1      49.642   1.744  16.061  0.00  0.00    +0.000 NA
ATOM     14  H   UNL     1      49.035   2.361  15.522  0.00  0.00    +0.000 HD
ATOM     15  H   UNL     1      49.071   0.935  16.302  0.00  0.00    +0.000 HD
ENDBRANCH  12  13
ENDBRANCH  11  12
ENDBRANCH  10  11
ENDBRANCH   1  10
BRANCH   7  16
ATOM     16  C   UNL     1      48.660   6.560  13.276  0.00  0.00    +0.000 C 
BRANCH  16  17
ATOM     17  C   UNL     1      47.321   5.907  13.041  0.00  0.00    +0.000 A 
ATOM     18  C   UNL     1      46.395   6.441  12.137  0.00  0.00    +0.000 A 
ATOM     19  C   UNL     1      45.212   5.760  11.864  0.00  0.00    +0.000 A 
ATOM     20  C   UNL     1      44.978   4.566  12.525  0.00  0.00    +0.000 A 
ATOM     21  N   UNL     1      45.824   4.034  13.453  0.00  0.00    +0.000 NA
ATOM     22  C   UNL     1      46.971   4.720  13.682  0.00  0.00    +0.000 A 
BRANCH  20  23
ATOM     23  C   UNL     1      43.755   3.771  12.178  0.00  0.00    +0.000 C 
ATOM     24  N   UNL     1      43.783   2.454  12.545  0.00  0.00    +0.000 N 
ATOM     25  O   UNL     1      42.799   4.256  11.589  0.00  0.00    +0.000 OA
ATOM     26  H   UNL     1      44.614   2.071  12.981  0.00  0.00    +0.000 HD
ATOM     27  H   UNL     1      43.023   1.850  12.269  0.00  0.00    +0.000 HD
ENDBRANCH  20  23
ENDBRANCH  16  17
ENDBRANCH   7  16
TORSDOF 7
ENDMDL
MODEL 8
REMARK VINA RESULT:    -6.005      3.638      7.441
REMARK INTER + INTRA:          -9.052
REMARK INTER:                  -8.492
REMARK INTRA:                  -0.560
REMARK UNBOUND:                -0.765
REMARK  Name = 
REMARK  7 active torsions:
REMARK  status: ('A' for Active; 'I' for Inactive)
REMARK    1  A    between atoms: N_1  and  C_2
REMARK    2  A    between atoms: C_2  and  C_3
REMARK    3  A    between atoms: C_3  and  C_4
REMARK    4  A    between atoms: C_4  and  C_5
REMARK    5  A    between atoms: N_11  and  C_12
REMARK    6  A    between atoms: C_12  and  C_13
REMARK    7  A    between atoms: C_16  and  C_17
REMARK                            x       y       z     vdW  Elec       q    Type
REMARK                         _______ _______ _______ _____ _____    ______ ____
ROOT
ATOM      1  C   UNL     1      45.095   3.463   9.627  0.00  0.00    +0.000 A 
ATOM      2  C   UNL     1      43.778   3.900   9.502  0.00  0.00    +0.000 A 
ATOM      3  N   UNL     1      43.216   4.926  10.176  0.00  0.00    +0.000 NA
ATOM      4  C   UNL     1      44.049   5.577  11.022  0.00  0.00    +0.000 A 
ATOM      5  C   UNL     1      43.775   6.696  11.840  0.00  0.00    +0.000 A 
ATOM      6  C   UNL     1      44.940   7.023  12.498  0.00  0.00    +0.000 A 
ATOM      7  N   UNL     1      45.918   6.144  12.092  0.00  0.00    +0.000 N 
ATOM      8  C   UNL     1      45.381   5.216  11.220  0.00  0.00    +0.000 A 
ATOM      9  C   UNL     1      45.925   4.117  10.545  0.00  0.00    +0.000 A 
ENDROOT
BRANCH   1  10
ATOM     10  C   UNL     1      45.629   2.337   8.779  0.00  0.00    +0.000 C 
BRANCH  10  11
ATOM     11  C   UNL     1      46.381   2.795   7.522  0.00  0.00    +0.000 C 
BRANCH  11  12
ATOM     12  C   UNL     1      47.422   1.781   7.041  0.00  0.00    +0.000 C 
BRANCH  12  13
ATOM     13  N   UNL     1      48.551   2.471   6.428  0.00  0.00    +0.000 NA
ATOM     14  H   UNL     1      48.512   2.349   5.417  0.00  0.00    +0.000 HD
ATOM     15  H   UNL     1      49.422   2.033   6.726  0.00  0.00    +0.000 HD
ENDBRANCH  12  13
ENDBRANCH  11  12
ENDBRANCH  10  11
ENDBRANCH   1  10
BRANCH   7  16
ATOM     16  C   UNL     1      47.320   6.237  12.496  0.00  0.00    +0.000 C 
BRANCH  16  17
ATOM     17  C   UNL     1      47.545   5.567  13.829  0.00  0.00    +0.000 A 
ATOM     18  C   UNL     1      48.185   6.230  14.882  0.00  0.00    +0.000 A 
ATOM     19  C   UNL     1      48.285   5.624  16.131  0.00  0.00    +0.000 A 
ATOM     20  C   UNL     1      47.757   4.353  16.285  0.00  0.00    +0.000 A 
ATOM     21  N   UNL     1      47.174   3.647  15.276  0.00  0.00    +0.000 NA
ATOM     22  C   UNL     1      47.084   4.275  14.078  0.00  0.00    +0.000 A 
BRANCH  20  23
ATOM     23  C   UNL     1      47.772   3.720  17.644  0.00  0.00    +0.000 C 
ATOM     24  N   UNL     1      46.917   2.667  17.815  0.00  0.00    +0.000 N 
ATOM     25  O   UNL     1      48.486   4.123  18.552  0.00  0.00    +0.000 OA
ATOM     26  H   UNL     1      46.297   2.394  17.060  0.00  0.00    +0.000 HD
ATOM     27  H   UNL     1      46.824   2.251  18.730  0.00  0.00    +0.000 HD
ENDBRANCH  20  23
ENDBRANCH  16  17
ENDBRANCH   7  16
TORSDOF 7
ENDMDL
MODEL 9
REMARK VINA RESULT:    -5.823      3.328      6.031
REMARK INTER + INTRA:          -8.800
REMARK INTER:                  -8.088
REMARK INTRA:                  -0.712
REMARK UNBOUND:                -0.765
REMARK  Name = 
REMARK  7 active torsions:
REMARK  status: ('A' for Active; 'I' for Inactive)
REMARK    1  A    between atoms: N_1  and  C_2
REMARK    2  A    between atoms: C_2  and  C_3
REMARK    3  A    between atoms: C_3  and  C_4
REMARK    4  A    between atoms: C_4  and  C_5
REMARK    5  A    between atoms: N_11  and  C_12
REMARK    6  A    between atoms: C_12  and  C_13
REMARK    7  A    between atoms: C_16  and  C_17
REMARK                            x       y       z     vdW  Elec       q    Type
REMARK                         _______ _______ _______ _____ _____    ______ ____
ROOT
ATOM      1  C   UNL     1      49.126   6.687  15.714  0.00  0.00    +0.000 A 
ATOM      2  C   UNL     1      50.355   7.129  15.228  0.00  0.00    +0.000 A 
ATOM      3  N   UNL     1      50.556   7.797  14.073  0.00  0.00    +0.000 NA
ATOM      4  C   UNL     1      49.433   8.062  13.364  0.00  0.00    +0.000 A 
ATOM      5  C   UNL     1      49.308   8.761  12.142  0.00  0.00    +0.000 A 
ATOM      6  C   UNL     1      47.967   8.805  11.827  0.00  0.00    +0.000 A 
ATOM      7  N   UNL     1      47.274   8.168  12.830  0.00  0.00    +0.000 N 
ATOM      8  C   UNL     1      48.159   7.661  13.762  0.00  0.00    +0.000 A 
ATOM      9  C   UNL     1      47.984   6.926  14.941  0.00  0.00    +0.000 A 
ENDROOT
BRANCH   1  10
ATOM     10  C   UNL     1      49.015   5.996  17.049  0.00  0.00    +0.000 C 
BRANCH  10  11
ATOM     11  C   UNL     1      48.468   4.564  16.975  0.00  0.00    +0.000 C 
BRANCH  11  12
ATOM     12  C   UNL     1      47.105   4.405  17.654  0.00  0.00    +0.000 C 
BRANCH  12  13
ATOM     13  N   UNL     1      46.648   3.024  17.549  0.00  0.00    +0.000 NA
ATOM     14  H   UNL     1      47.223   2.530  16.866  0.00  0.00    +0.000 HD
ATOM     15  H   UNL     1      45.700   3.004  17.178  0.00  0.00    +0.000 HD
ENDBRANCH  12  13
ENDBRANCH  11  12
ENDBRANCH  10  11
ENDBRANCH   1  10
BRANCH   7  16
ATOM     16  C   UNL     1      45.815   8.101  12.900  0.00  0.00    +0.000 C 
BRANCH  16  17
ATOM     17  C   UNL     1      45.301   6.820  12.292  0.00  0.00    +0.000 A 
ATOM     18  C   UNL     1      45.703   6.403  11.018  0.00  0.00    +0.000 A 
ATOM     19  C   UNL     1      45.293   5.167  10.526  0.00  0.00    +0.000 A 
ATOM     20  C   UNL     1      44.472   4.386  11.322  0.00  0.00    +0.000 A 
ATOM     21  N   UNL     1      44.011   4.773  12.545  0.00  0.00    +0.000 NA
ATOM     22  C   UNL     1      44.441   5.977  12.995  0.00  0.00    +0.000 A 
BRANCH  20  23
ATOM     23  C   UNL     1      44.095   3.014  10.851  0.00  0.00    +0.000 C 
ATOM     24  N   UNL     1      43.501   2.211  11.784  0.00  0.00    +0.000 N 
ATOM     25  O   UNL     1      44.318   2.622   9.713  0.00  0.00    +0.000 OA
ATOM     26  H   UNL     1      43.382   2.546  12.734  0.00  0.00    +0.000 HD
ATOM     27  H   UNL     1      43.297   1.251  11.551  0.00  0.00    +0.000 HD
ENDBRANCH  20  23
ENDBRANCH  16  17
ENDBRANCH   7  16
TORSDOF 7
ENDMDL
