MODEL 1
REMARK VINA RESULT:    -7.815      0.000      0.000
REMARK INTER + INTRA:         -11.036
REMARK INTER:                 -10.099
REMARK INTRA:                  -0.937
REMARK UNBOUND:                -0.937
REMARK  Name = 
REMARK  6 active torsions:
REMARK  status: ('A' for Active; 'I' for Inactive)
REMARK    1  A    between atoms: C_1  and  C_2
REMARK    2  A    between atoms: C_2  and  N_3
REMARK    3  A    between atoms: C_2  and  C_24
REMARK    4  A    between atoms: C_7  and  C_8
REMARK    5  A    between atoms: C_8  and  N_9
REMARK    6  A    between atoms: C_10  and  C_12
REMARK                            x       y       z     vdW  Elec       q    Type
REMARK                         _______ _______ _______ _____ _____    ______ ____
ROOT
ATOM      1  N   UNL     1      45.353   3.967  12.156  0.00  0.00    +0.000 N 
ATOM      2  C   UNL     1      46.221   4.770  12.904  0.00  0.00    +0.000 A 
ATOM      3  C   UNL     1      46.494   4.358  14.206  0.00  0.00    +0.000 A 
ATOM      4  C   UNL     1      47.336   5.117  15.013  0.00  0.00    +0.000 A 
ATOM      5  C   UNL     1      47.946   6.252  14.486  0.00  0.00    +0.000 A 
ATOM      6  C   UNL     1      47.643   6.574  13.166  0.00  0.00    +0.000 A 
ATOM      7  N   UNL     1      46.797   5.864  12.377  0.00  0.00    +0.000 NA
ATOM      8  H   UNL     1      45.894   3.171  11.825  0.00  0.00    +0.000 HD
ENDROOT
BRANCH   1  10
ATOM      9  C   UNL     1      43.126   4.391  11.171  0.00  0.00    +0.000 C 
ATOM     10  C   UNL     1      44.640   4.597  11.035  0.00  0.00    +0.000 C 
BRANCH  10  11
ATOM     11  C   UNL     1      45.136   3.949   9.734  0.00  0.00    +0.000 A 
ATOM     12  C   UNL     1      45.097   2.561   9.570  0.00  0.00    +0.000 A 
ATOM     13  C   UNL     1      45.595   1.996   8.398  0.00  0.00    +0.000 A 
ATOM     14  C   UNL     1      46.121   2.824   7.417  0.00  0.00    +0.000 A 
ATOM     15  C   UNL     1      46.123   4.189   7.649  0.00  0.00    +0.000 A 
ATOM     16  N   UNL     1      45.652   4.768   8.777  0.00  0.00    +0.000 NA
ENDBRANCH  10  11
ENDBRANCH   1  10
BRANCH   5  17
ATOM     17  C   UNL     1      48.871   7.089  15.317  0.00  0.00    +0.000 C 
BRANCH  17  18
ATOM     18  N   UNL     1      49.930   6.307  15.906  0.00  0.00    +0.000 N 
ATOM     19  C   UNL     1      49.908   5.880  17.209  0.00  0.00    +0.000 C 
ATOM     20  O   UNL     1      48.984   6.157  17.968  0.00  0.00    +0.000 OA
ATOM     21  H   UNL     1      50.775   6.189  15.354  0.00  0.00    +0.000 HD
BRANCH  19  22
ATOM     22  C   UNL     1      51.014   5.007  17.636  0.00  0.00    +0.000 A 
ATOM     23  C   UNL     1      52.149   5.572  18.203  0.00  0.00    +0.000 A 
ATOM     24  S   UNL     1      53.323   4.431  18.674  0.00  0.00    +0.000 S 
ATOM     25  C   UNL     1      52.379   3.140  18.095  0.00  0.00    +0.000 A 
ATOM     26  N   UNL     1      52.832   1.861  18.161  0.00  0.00    +0.000 NA
ATOM     27  C   UNL     1      52.036   0.982  17.652  0.00  0.00    +0.000 A 
ATOM     28  N   UNL     1      50.822   1.270  17.094  0.00  0.00    +0.000 N 
ATOM     29  C   UNL     1      50.288   2.536  17.069  0.00  0.00    +0.000 A 
ATOM     30  O   UNL     1      49.147   2.742  16.667  0.00  0.00    +0.000 OA
ATOM     31  C   UNL     1      51.171   3.572  17.579  0.00  0.00    +0.000 A 
ATOM     32  H   UNL     1      50.230   0.533  16.733  0.00  0.00    +0.000 HD
ENDBRANCH  19  22
ENDBRANCH  17  18
ENDBRANCH   5  17
TORSDOF 5
ENDMDL
MODEL 2
REMARK VINA RESULT:    -7.335      2.596      3.278
REMARK INTER + INTRA:         -10.416
REMARK INTER:                 -10.889
REMARK INTRA:                   0.473
REMARK UNBOUND:                -0.937
REMARK  Name = 
REMARK  6 active torsions:
REMARK  status: ('A' for Active; 'I' for Inactive)
REMARK    1  A    between atoms: C_1  and  C_2
REMARK    2  A    between atoms: C_2  and  N_3
REMARK    3  A    between atoms: C_2  and  C_24
REMARK    4  A    between atoms: C_7  and  C_8
REMARK    5  A    between atoms: C_8  and  N_9
REMARK    6  A    between atoms: C_10  and  C_12
REMARK                            x       y       z     vdW  Elec       q    Type
REMARK                         _______ _______ _______ _____ _____    ______ ____
ROOT
ATOM      1  N   UNL     1      44.000   5.462  10.639  0.00  0.00    +0.000 N 
ATOM      2  C   UNL     1      45.129   5.685  11.434  0.00  0.00    +0.000 A 
ATOM      3  C   UNL     1      45.761   6.918  11.297  0.00  0.00    +0.000 A 
ATOM      4  C   UNL     1      46.899   7.202  12.045  0.00  0.00    +0.000 A 
ATOM      5  C   UNL     1      47.359   6.269  12.970  0.00  0.00    +0.000 A 
ATOM      6  C   UNL     1      46.649   5.076  13.066  0.00  0.00    +0.000 A 
ATOM      7  N   UNL     1      45.558   4.768  12.319  0.00  0.00    +0.000 NA
ATOM      8  H   UNL     1      43.222   5.946  11.082  0.00  0.00    +0.000 HD
ENDROOT
BRANCH   1  10
ATOM      9  C   UNL     1      43.682   3.220  11.632  0.00  0.00    +0.000 C 
ATOM     10  C   UNL     1      43.633   4.066  10.354  0.00  0.00    +0.000 C 
BRANCH  10  11
ATOM     11  C   UNL     1      44.632   3.513   9.327  0.00  0.00    +0.000 A 
ATOM     12  C   UNL     1      44.947   2.151   9.303  0.00  0.00    +0.000 A 
ATOM     13  C   UNL     1      45.890   1.682   8.391  0.00  0.00    +0.000 A 
ATOM     14  C   UNL     1      46.499   2.580   7.526  0.00  0.00    +0.000 A 
ATOM     15  C   UNL     1      46.134   3.913   7.606  0.00  0.00    +0.000 A 
ATOM     16  N   UNL     1      45.226   4.399   8.482  0.00  0.00    +0.000 NA
ENDBRANCH  10  11
ENDBRANCH   1  10
BRANCH   5  17
ATOM     17  C   UNL     1      48.573   6.542  13.806  0.00  0.00    +0.000 C 
BRANCH  17  18
ATOM     18  N   UNL     1      48.253   6.658  15.207  0.00  0.00    +0.000 N 
ATOM     19  C   UNL     1      49.195   6.565  16.200  0.00  0.00    +0.000 C 
ATOM     20  O   UNL     1      50.380   6.356  15.954  0.00  0.00    +0.000 OA
ATOM     21  H   UNL     1      47.268   6.681  15.453  0.00  0.00    +0.000 HD
BRANCH  19  22
ATOM     22  C   UNL     1      48.731   6.804  17.576  0.00  0.00    +0.000 A 
ATOM     23  C   UNL     1      48.337   8.081  17.951  0.00  0.00    +0.000 A 
ATOM     24  S   UNL     1      47.795   8.190  19.562  0.00  0.00    +0.000 S 
ATOM     25  C   UNL     1      48.110   6.540  19.836  0.00  0.00    +0.000 A 
ATOM     26  N   UNL     1      47.894   5.982  21.056  0.00  0.00    +0.000 NA
ATOM     27  C   UNL     1      48.211   4.734  21.139  0.00  0.00    +0.000 A 
ATOM     28  N   UNL     1      48.713   3.993  20.105  0.00  0.00    +0.000 N 
ATOM     29  C   UNL     1      48.881   4.492  18.836  0.00  0.00    +0.000 A 
ATOM     30  O   UNL     1      49.222   3.769  17.904  0.00  0.00    +0.000 OA
ATOM     31  C   UNL     1      48.592   5.910  18.703  0.00  0.00    +0.000 A 
ATOM     32  H   UNL     1      48.918   3.010  20.225  0.00  0.00    +0.000 HD
ENDBRANCH  19  22
ENDBRANCH  17  18
ENDBRANCH   5  17
TORSDOF 5
ENDMDL
MODEL 3
REMARK VINA RESULT:    -7.319      3.228      9.254
REMARK INTER + INTRA:         -10.395
REMARK INTER:                  -9.444
REMARK INTRA:                  -0.950
REMARK UNBOUND:                -0.937
REMARK  Name = 
REMARK  6 active torsions:
REMARK  status: ('A' for Active; 'I' for Inactive)
REMARK    1  A    between atoms: C_1  and  C_2
REMARK    2  A    between atoms: C_2  and  N_3
REMARK    3  A    between atoms: C_2  and  C_24
REMARK    4  A    between atoms: C_7  and  C_8
REMARK    5  A    between atoms: C_8  and  N_9
REMARK    6  A    between atoms: C_10  and  C_12
REMARK                            x       y       z     vdW  Elec       q    Type
REMARK                         _______ _______ _______ _____ _____    ______ ____
ROOT
ATOM      1  N   UNL     1      51.087   3.028  18.276  0.00  0.00    +0.000 N 
ATOM      2  C   UNL     1      50.610   4.181  17.644  0.00  0.00    +0.000 A 
ATOM      3  C   UNL     1      49.232   4.380  17.654  0.00  0.00    +0.000 A 
ATOM      4  C   UNL     1      48.687   5.498  17.030  0.00  0.00    +0.000 A 
ATOM      5  C   UNL     1      49.535   6.440  16.453  0.00  0.00    +0.000 A 
ATOM      6  C   UNL     1      50.900   6.179  16.517  0.00  0.00    +0.000 A 
ATOM      7  N   UNL     1      51.447   5.076  17.090  0.00  0.00    +0.000 NA
ATOM      8  H   UNL     1      51.089   3.215  19.277  0.00  0.00    +0.000 HD
ENDROOT
BRANCH   1  10
ATOM      9  C   UNL     1      52.287   1.052  17.400  0.00  0.00    +0.000 C 
ATOM     10  C   UNL     1      52.398   2.512  17.854  0.00  0.00    +0.000 C 
BRANCH  10  11
ATOM     11  C   UNL     1      53.354   2.611  19.053  0.00  0.00    +0.000 A 
ATOM     12  C   UNL     1      53.293   3.705  19.922  0.00  0.00    +0.000 A 
ATOM     13  C   UNL     1      54.200   3.791  20.976  0.00  0.00    +0.000 A 
ATOM     14  C   UNL     1      55.147   2.790  21.139  0.00  0.00    +0.000 A 
ATOM     15  C   UNL     1      55.144   1.737  20.241  0.00  0.00    +0.000 A 
ATOM     16  N   UNL     1      54.280   1.626  19.206  0.00  0.00    +0.000 NA
ENDBRANCH  10  11
ENDBRANCH   1  10
BRANCH   5  17
ATOM     17  C   UNL     1      48.989   7.664  15.784  0.00  0.00    +0.000 C 
BRANCH  17  18
ATOM     18  N   UNL     1      47.888   7.358  14.905  0.00  0.00    +0.000 N 
ATOM     19  C   UNL     1      48.056   6.810  13.658  0.00  0.00    +0.000 C 
ATOM     20  O   UNL     1      49.169   6.562  13.202  0.00  0.00    +0.000 OA
ATOM     21  H   UNL     1      46.969   7.686  15.187  0.00  0.00    +0.000 HD
BRANCH  19  22
ATOM     22  C   UNL     1      46.831   6.462  12.920  0.00  0.00    +0.000 A 
ATOM     23  C   UNL     1      46.119   7.461  12.271  0.00  0.00    +0.000 A 
ATOM     24  S   UNL     1      44.746   6.896  11.435  0.00  0.00    +0.000 S 
ATOM     25  C   UNL     1      45.024   5.298  11.948  0.00  0.00    +0.000 A 
ATOM     26  N   UNL     1      44.173   4.298  11.604  0.00  0.00    +0.000 NA
ATOM     27  C   UNL     1      44.478   3.141  12.090  0.00  0.00    +0.000 A 
ATOM     28  N   UNL     1      45.566   2.898  12.881  0.00  0.00    +0.000 N 
ATOM     29  C   UNL     1      46.495   3.860  13.196  0.00  0.00    +0.000 A 
ATOM     30  O   UNL     1      47.522   3.583  13.809  0.00  0.00    +0.000 OA
ATOM     31  C   UNL     1      46.167   5.193  12.719  0.00  0.00    +0.000 A 
ATOM     32  H   UNL     1      45.767   1.963  13.211  0.00  0.00    +0.000 HD
ENDBRANCH  19  22
ENDBRANCH  17  18
ENDBRANCH   5  17
TORSDOF 5
ENDMDL
MODEL 4
REMARK VINA RESULT:    -7.185      2.909      4.233
REMARK INTER + INTRA:         -10.222
REMARK INTER:                  -9.189
REMARK INTRA:                  -1.033
REMARK UNBOUND:                -0.937
REMARK  Name = 
REMARK  6 active torsions:
REMARK  status: ('A' for Active; 'I' for Inactive)
REMARK    1  A    between atoms: C_1  and  C_2
REMARK    2  A    between atoms: C_2  and  N_3
REMARK    3  A    between atoms: C_2  and  C_24
REMARK    4  A    between atoms: C_7  and  C_8
REMARK    5  A    between atoms: C_8  and  N_9
REMARK    6  A    between atoms: C_10  and  C_12
REMARK                            x       y       z     vdW  Elec       q    Type
REMARK                         _______ _______ _______ _____ _____    ______ ____
ROOT
ATOM      1  N   UNL     1      45.309   2.864  10.706  0.00  0.00    +0.000 N 
ATOM      2  C   UNL     1      45.347   4.173  11.197  0.00  0.00    +0.000 A 
ATOM      3  C   UNL     1      45.509   4.325  12.572  0.00  0.00    +0.000 A 
ATOM      4  C   UNL     1      45.539   5.599  13.131  0.00  0.00    +0.000 A 
ATOM      5  C   UNL     1      45.468   6.712  12.298  0.00  0.00    +0.000 A 
ATOM      6  C   UNL     1      45.340   6.470  10.934  0.00  0.00    +0.000 A 
ATOM      7  N   UNL     1      45.274   5.235  10.375  0.00  0.00    +0.000 NA
ATOM      8  H   UNL     1      46.271   2.534  10.662  0.00  0.00    +0.000 HD
ENDROOT
BRANCH   1  10
ATOM      9  C   UNL     1      43.768   1.375   9.472  0.00  0.00    +0.000 C 
ATOM     10  C   UNL     1      44.636   2.639   9.418  0.00  0.00    +0.000 C 
BRANCH  10  11
ATOM     11  C   UNL     1      45.719   2.478   8.340  0.00  0.00    +0.000 A 
ATOM     12  C   UNL     1      45.991   3.519   7.446  0.00  0.00    +0.000 A 
ATOM     13  C   UNL     1      46.947   3.331   6.449  0.00  0.00    +0.000 A 
ATOM     14  C   UNL     1      47.607   2.113   6.364  0.00  0.00    +0.000 A 
ATOM     15  C   UNL     1      47.286   1.132   7.286  0.00  0.00    +0.000 A 
ATOM     16  N   UNL     1      46.361   1.281   8.261  0.00  0.00    +0.000 NA
ENDBRANCH  10  11
ENDBRANCH   1  10
BRANCH   5  17
ATOM     17  C   UNL     1      45.512   8.101  12.859  0.00  0.00    +0.000 C 
BRANCH  17  18
ATOM     18  N   UNL     1      46.476   8.227  13.924  0.00  0.00    +0.000 N 
ATOM     19  C   UNL     1      47.731   8.750  13.739  0.00  0.00    +0.000 C 
ATOM     20  O   UNL     1      48.121   9.129  12.639  0.00  0.00    +0.000 OA
ATOM     21  H   UNL     1      46.243   7.788  14.810  0.00  0.00    +0.000 HD
BRANCH  19  22
ATOM     22  C   UNL     1      48.565   8.905  14.942  0.00  0.00    +0.000 A 
ATOM     23  C   UNL     1      48.952  10.176  15.344  0.00  0.00    +0.000 A 
ATOM     24  S   UNL     1      49.886  10.193  16.769  0.00  0.00    +0.000 S 
ATOM     25  C   UNL     1      49.849   8.496  16.878  0.00  0.00    +0.000 A 
ATOM     26  N   UNL     1      50.503   7.847  17.876  0.00  0.00    +0.000 NA
ATOM     27  C   UNL     1      50.427   6.559  17.820  0.00  0.00    +0.000 A 
ATOM     28  N   UNL     1      49.745   5.867  16.859  0.00  0.00    +0.000 N 
ATOM     29  C   UNL     1      49.008   6.478  15.873  0.00  0.00    +0.000 A 
ATOM     30  O   UNL     1      48.312   5.828  15.098  0.00  0.00    +0.000 OA
ATOM     31  C   UNL     1      49.107   7.927  15.858  0.00  0.00    +0.000 A 
ATOM     32  H   UNL     1      49.701   4.856  16.883  0.00  0.00    +0.000 HD
ENDBRANCH  19  22
ENDBRANCH  17  18
ENDBRANCH   5  17
TORSDOF 5
ENDMDL
MODEL 5
REMARK VINA RESULT:    -7.163      3.371      8.612
REMARK INTER + INTRA:         -10.194
REMARK INTER:                  -9.428
REMARK INTRA:                  -0.766
REMARK UNBOUND:                -0.937
REMARK  Name = 
REMARK  6 active torsions:
REMARK  status: ('A' for Active; 'I' for Inactive)
REMARK    1  A    between atoms: C_1  and  C_2
REMARK    2  A    between atoms: C_2  and  N_3
REMARK    3  A    between atoms: C_2  and  C_24
REMARK    4  A    between atoms: C_7  and  C_8
REMARK    5  A    between atoms: C_8  and  N_9
REMARK    6  A    between atoms: C_10  and  C_12
REMARK                            x       y       z     vdW  Elec       q    Type
REMARK                         _______ _______ _______ _____ _____    ______ ____
ROOT
ATOM      1  N   UNL     1      51.236   6.566  16.693  0.00  0.00    +0.000 N 
ATOM      2  C   UNL     1      50.474   6.924  15.576  0.00  0.00    +0.000 A 
ATOM      3  C   UNL     1      50.968   7.955  14.781  0.00  0.00    +0.000 A 
ATOM      4  C   UNL     1      50.254   8.374  13.663  0.00  0.00    +0.000 A 
ATOM      5  C   UNL     1      49.079   7.713  13.316  0.00  0.00    +0.000 A 
ATOM      6  C   UNL     1      48.674   6.673  14.147  0.00  0.00    +0.000 A 
ATOM      7  N   UNL     1      49.340   6.275  15.261  0.00  0.00    +0.000 NA
ATOM      8  H   UNL     1      52.001   5.984  16.358  0.00  0.00    +0.000 HD
ENDROOT
BRANCH   1  10
ATOM      9  C   UNL     1      51.059   6.416  19.154  0.00  0.00    +0.000 C 
ATOM     10  C   UNL     1      50.542   5.900  17.806  0.00  0.00    +0.000 C 
BRANCH  10  11
ATOM     11  C   UNL     1      50.805   4.391  17.692  0.00  0.00    +0.000 A 
ATOM     12  C   UNL     1      52.059   3.862  18.014  0.00  0.00    +0.000 A 
ATOM     13  C   UNL     1      52.283   2.495  17.860  0.00  0.00    +0.000 A 
ATOM     14  C   UNL     1      51.257   1.689  17.389  0.00  0.00    +0.000 A 
ATOM     15  C   UNL     1      50.043   2.284  17.095  0.00  0.00    +0.000 A 
ATOM     16  N   UNL     1      49.794   3.606  17.229  0.00  0.00    +0.000 NA
ENDBRANCH  10  11
ENDBRANCH   1  10
BRANCH   5  17
ATOM     17  C   UNL     1      48.287   8.124  12.112  0.00  0.00    +0.000 C 
BRANCH  17  18
ATOM     18  N   UNL     1      47.573   7.016  11.528  0.00  0.00    +0.000 N 
ATOM     19  C   UNL     1      46.226   6.818  11.703  0.00  0.00    +0.000 C 
ATOM     20  O   UNL     1      45.543   7.571  12.392  0.00  0.00    +0.000 OA
ATOM     21  H   UNL     1      48.130   6.295  11.078  0.00  0.00    +0.000 HD
BRANCH  19  22
ATOM     22  C   UNL     1      45.621   5.699  10.962  0.00  0.00    +0.000 A 
ATOM     23  C   UNL     1      45.722   5.664   9.578  0.00  0.00    +0.000 A 
ATOM     24  S   UNL     1      45.002   4.292   8.870  0.00  0.00    +0.000 S 
ATOM     25  C   UNL     1      44.485   3.715  10.385  0.00  0.00    +0.000 A 
ATOM     26  N   UNL     1      43.761   2.570  10.484  0.00  0.00    +0.000 NA
ATOM     27  C   UNL     1      43.400   2.265  11.686  0.00  0.00    +0.000 A 
ATOM     28  N   UNL     1      43.710   3.000  12.796  0.00  0.00    +0.000 N 
ATOM     29  C   UNL     1      44.499   4.124  12.756  0.00  0.00    +0.000 A 
ATOM     30  O   UNL     1      44.856   4.693  13.784  0.00  0.00    +0.000 OA
ATOM     31  C   UNL     1      44.886   4.542  11.418  0.00  0.00    +0.000 A 
ATOM     32  H   UNL     1      43.419   2.696  13.716  0.00  0.00    +0.000 HD
ENDBRANCH  19  22
ENDBRANCH  17  18
ENDBRANCH   5  17
TORSDOF 5
ENDMDL
MODEL 6
REMARK VINA RESULT:    -7.051      3.002      4.362
REMARK INTER + INTRA:         -10.050
REMARK INTER:                 -10.370
REMARK INTRA:                   0.320
REMARK UNBOUND:                -0.937
REMARK  Name = 
REMARK  6 active torsions:
REMARK  status: ('A' for Active; 'I' for Inactive)
REMARK    1  A    between atoms: C_1  and  C_2
REMARK    2  A    between atoms: C_2  and  N_3
REMARK    3  A    between atoms: C_2  and  C_24
REMARK    4  A    between atoms: C_7  and  C_8
REMARK    5  A    between atoms: C_8  and  N_9
REMARK    6  A    between atoms: C_10  and  C_12
REMARK                            x       y       z     vdW  Elec       q    Type
REMARK                         _______ _______ _______ _____ _____    ______ ____
ROOT
ATOM      1  N   UNL     1      43.962   5.290  10.606  0.00  0.00    +0.000 N 
ATOM      2  C   UNL     1      45.053   5.658  11.401  0.00  0.00    +0.000 A 
ATOM      3  C   UNL     1      45.558   6.943  11.220  0.00  0.00    +0.000 A 
ATOM      4  C   UNL     1      46.652   7.371  11.964  0.00  0.00    +0.000 A 
ATOM      5  C   UNL     1      47.194   6.527  12.930  0.00  0.00    +0.000 A 
ATOM      6  C   UNL     1      46.608   5.272  13.067  0.00  0.00    +0.000 A 
ATOM      7  N   UNL     1      45.563   4.826  12.325  0.00  0.00    +0.000 NA
ATOM      8  H   UNL     1      43.134   5.708  11.024  0.00  0.00    +0.000 HD
ENDROOT
BRANCH   1  10
ATOM      9  C   UNL     1      43.911   3.062  11.677  0.00  0.00    +0.000 C 
ATOM     10  C   UNL     1      43.742   3.854  10.374  0.00  0.00    +0.000 C 
BRANCH  10  11
ATOM     11  C   UNL     1      44.774   3.378   9.340  0.00  0.00    +0.000 A 
ATOM     12  C   UNL     1      45.320   4.274   8.417  0.00  0.00    +0.000 A 
ATOM     13  C   UNL     1      46.220   3.807   7.461  0.00  0.00    +0.000 A 
ATOM     14  C   UNL     1      46.554   2.461   7.446  0.00  0.00    +0.000 A 
ATOM     15  C   UNL     1      45.974   1.634   8.393  0.00  0.00    +0.000 A 
ATOM     16  N   UNL     1      45.095   2.056   9.330  0.00  0.00    +0.000 NA
ENDBRANCH  10  11
ENDBRANCH   1  10
BRANCH   5  17
ATOM     17  C   UNL     1      48.363   6.954  13.763  0.00  0.00    +0.000 C 
BRANCH  17  18
ATOM     18  N   UNL     1      48.106   6.810  15.175  0.00  0.00    +0.000 N 
ATOM     19  C   UNL     1      49.081   6.483  16.083  0.00  0.00    +0.000 C 
ATOM     20  O   UNL     1      50.242   6.271  15.743  0.00  0.00    +0.000 OA
ATOM     21  H   UNL     1      47.134   6.831  15.470  0.00  0.00    +0.000 HD
BRANCH  19  22
ATOM     22  C   UNL     1      48.685   6.471  17.501  0.00  0.00    +0.000 A 
ATOM     23  C   UNL     1      48.755   5.284  18.218  0.00  0.00    +0.000 A 
ATOM     24  S   UNL     1      48.295   5.439  19.851  0.00  0.00    +0.000 S 
ATOM     25  C   UNL     1      47.940   7.091  19.651  0.00  0.00    +0.000 A 
ATOM     26  N   UNL     1      47.453   7.829  20.682  0.00  0.00    +0.000 NA
ATOM     27  C   UNL     1      47.189   9.057  20.386  0.00  0.00    +0.000 A 
ATOM     28  N   UNL     1      47.379   9.613  19.151  0.00  0.00    +0.000 N 
ATOM     29  C   UNL     1      47.935   8.928  18.097  0.00  0.00    +0.000 A 
ATOM     30  O   UNL     1      48.202   9.489  17.038  0.00  0.00    +0.000 OA
ATOM     31  C   UNL     1      48.199   7.524  18.363  0.00  0.00    +0.000 A 
ATOM     32  H   UNL     1      47.177  10.590  18.987  0.00  0.00    +0.000 HD
ENDBRANCH  19  22
ENDBRANCH  17  18
ENDBRANCH   5  17
TORSDOF 5
ENDMDL
MODEL 7
REMARK VINA RESULT:    -6.802      3.436      8.922
REMARK INTER + INTRA:          -9.727
REMARK INTER:                  -9.132
REMARK INTRA:                  -0.595
REMARK UNBOUND:                -0.937
REMARK  Name = 
REMARK  6 active torsions:
REMARK  status: ('A' for Active; 'I' for Inactive)
REMARK    1  A    between atoms: C_1  and  C_2
REMARK    2  A    between atoms: C_2  and  N_3
REMARK    3  A    between atoms: C_2  and  C_24
REMARK    4  A    between atoms: C_7  and  C_8
REMARK    5  A    between atoms: C_8  and  N_9
REMARK    6  A    between atoms: C_10  and  C_12
REMARK                            x       y       z     vdW  Elec       q    Type
REMARK                         _______ _______ _______ _____ _____    ______ ____
ROOT
ATOM      1  N   UNL     1      50.924   6.872  16.707  0.00  0.00    +0.000 N 
ATOM      2  C   UNL     1      50.063   7.006  15.613  0.00  0.00    +0.000 A 
ATOM      3  C   UNL     1      50.374   7.997  14.686  0.00  0.00    +0.000 A 
ATOM      4  C   UNL     1      49.552   8.197  13.581  0.00  0.00    +0.000 A 
ATOM      5  C   UNL     1      48.457   7.360  13.384  0.00  0.00    +0.000 A 
ATOM      6  C   UNL     1      48.237   6.375  14.342  0.00  0.00    +0.000 A 
ATOM      7  N   UNL     1      49.009   6.189  15.444  0.00  0.00    +0.000 NA
ATOM      8  H   UNL     1      51.740   6.357  16.383  0.00  0.00    +0.000 HD
ENDROOT
BRANCH   1  10
ATOM      9  C   UNL     1      51.164   6.716  19.163  0.00  0.00    +0.000 C 
ATOM     10  C   UNL     1      50.385   6.251  17.927  0.00  0.00    +0.000 C 
BRANCH  10  11
ATOM     11  C   UNL     1      50.510   4.727  17.778  0.00  0.00    +0.000 A 
ATOM     12  C   UNL     1      51.769   4.118  17.738  0.00  0.00    +0.000 A 
ATOM     13  C   UNL     1      51.855   2.739  17.558  0.00  0.00    +0.000 A 
ATOM     14  C   UNL     1      50.690   1.999  17.420  0.00  0.00    +0.000 A 
ATOM     15  C   UNL     1      49.481   2.672  17.472  0.00  0.00    +0.000 A 
ATOM     16  N   UNL     1      49.363   4.008  17.642  0.00  0.00    +0.000 NA
ENDBRANCH  10  11
ENDBRANCH   1  10
BRANCH   5  17
ATOM     17  C   UNL     1      47.555   7.533  12.200  0.00  0.00    +0.000 C 
BRANCH  17  18
ATOM     18  N   UNL     1      46.803   6.337  11.910  0.00  0.00    +0.000 N 
ATOM     19  C   UNL     1      45.435   6.320  11.806  0.00  0.00    +0.000 C 
ATOM     20  O   UNL     1      44.758   7.330  11.975  0.00  0.00    +0.000 OA
ATOM     21  H   UNL     1      47.315   5.460  11.913  0.00  0.00    +0.000 HD
BRANCH  19  22
ATOM     22  C   UNL     1      44.819   5.044  11.408  0.00  0.00    +0.000 A 
ATOM     23  C   UNL     1      43.993   4.376  12.302  0.00  0.00    +0.000 A 
ATOM     24  S   UNL     1      43.332   2.933  11.684  0.00  0.00    +0.000 S 
ATOM     25  C   UNL     1      44.162   3.121  10.211  0.00  0.00    +0.000 A 
ATOM     26  N   UNL     1      44.059   2.188   9.229  0.00  0.00    +0.000 NA
ATOM     27  C   UNL     1      44.770   2.432   8.179  0.00  0.00    +0.000 A 
ATOM     28  N   UNL     1      45.565   3.533   8.023  0.00  0.00    +0.000 N 
ATOM     29  C   UNL     1      45.646   4.539   8.955  0.00  0.00    +0.000 A 
ATOM     30  O   UNL     1      46.277   5.569   8.733  0.00  0.00    +0.000 OA
ATOM     31  C   UNL     1      44.908   4.285  10.181  0.00  0.00    +0.000 A 
ATOM     32  H   UNL     1      46.080   3.681   7.165  0.00  0.00    +0.000 HD
ENDBRANCH  19  22
ENDBRANCH  17  18
ENDBRANCH   5  17
TORSDOF 5
ENDMDL
MODEL 8
REMARK VINA RESULT:    -6.774      3.344      4.798
REMARK INTER + INTRA:          -9.691
REMARK INTER:                 -10.074
REMARK INTRA:                   0.384
REMARK UNBOUND:                -0.937
REMARK  Name = 
REMARK  6 active torsions:
REMARK  status: ('A' for Active; 'I' for Inactive)
REMARK    1  A    between atoms: C_1  and  C_2
REMARK    2  A    between atoms: C_2  and  N_3
REMARK    3  A    between atoms: C_2  and  C_24
REMARK    4  A    between atoms: C_7  and  C_8
REMARK    5  A    between atoms: C_8  and  N_9
REMARK    6  A    between atoms: C_10  and  C_12
REMARK                            x       y       z     vdW  Elec       q    Type
REMARK                         _______ _______ _______ _____ _____    ______ ____
ROOT
ATOM      1  N   UNL     1      44.682   4.814   9.532  0.00  0.00    +0.000 N 
ATOM      2  C   UNL     1      45.278   4.849  10.797  0.00  0.00    +0.000 A 
ATOM      3  C   UNL     1      46.016   5.987  11.113  0.00  0.00    +0.000 A 
ATOM      4  C   UNL     1      46.650   6.083  12.348  0.00  0.00    +0.000 A 
ATOM      5  C   UNL     1      46.486   5.062  13.281  0.00  0.00    +0.000 A 
ATOM      6  C   UNL     1      45.705   3.976  12.895  0.00  0.00    +0.000 A 
ATOM      7  N   UNL     1      45.110   3.851  11.681  0.00  0.00    +0.000 NA
ATOM      8  H   UNL     1      43.841   5.385   9.582  0.00  0.00    +0.000 HD
ENDROOT
BRANCH   1  10
ATOM      9  C   UNL     1      44.145   2.463  10.078  0.00  0.00    +0.000 C 
ATOM     10  C   UNL     1      44.366   3.494   8.964  0.00  0.00    +0.000 C 
BRANCH  10  11
ATOM     11  C   UNL     1      45.548   3.061   8.084  0.00  0.00    +0.000 A 
ATOM     12  C   UNL     1      46.054   1.760   8.164  0.00  0.00    +0.000 A 
ATOM     13  C   UNL     1      47.155   1.406   7.387  0.00  0.00    +0.000 A 
ATOM     14  C   UNL     1      47.727   2.354   6.551  0.00  0.00    +0.000 A 
ATOM     15  C   UNL     1      47.169   3.621   6.523  0.00  0.00    +0.000 A 
ATOM     16  N   UNL     1      46.104   3.996   7.267  0.00  0.00    +0.000 NA
ENDBRANCH  10  11
ENDBRANCH   1  10
BRANCH   5  17
ATOM     17  C   UNL     1      47.139   5.133  14.628  0.00  0.00    +0.000 C 
BRANCH  17  18
ATOM     18  N   UNL     1      47.817   6.388  14.837  0.00  0.00    +0.000 N 
ATOM     19  C   UNL     1      48.917   6.518  15.647  0.00  0.00    +0.000 C 
ATOM     20  O   UNL     1      49.385   5.566  16.265  0.00  0.00    +0.000 OA
ATOM     21  H   UNL     1      47.370   7.220  14.463  0.00  0.00    +0.000 HD
BRANCH  19  22
ATOM     22  C   UNL     1      49.559   7.842  15.681  0.00  0.00    +0.000 A 
ATOM     23  C   UNL     1      49.728   8.487  16.899  0.00  0.00    +0.000 A 
ATOM     24  S   UNL     1      50.514   9.994  16.778  0.00  0.00    +0.000 S 
ATOM     25  C   UNL     1      50.616   9.865  15.084  0.00  0.00    +0.000 A 
ATOM     26  N   UNL     1      51.162  10.862  14.341  0.00  0.00    +0.000 NA
ATOM     27  C   UNL     1      51.142  10.655  13.067  0.00  0.00    +0.000 A 
ATOM     28  N   UNL     1      50.635   9.533  12.474  0.00  0.00    +0.000 N 
ATOM     29  C   UNL     1      50.139   8.467  13.185  0.00  0.00    +0.000 A 
ATOM     30  O   UNL     1      49.800   7.427  12.627  0.00  0.00    +0.000 OA
ATOM     31  C   UNL     1      50.087   8.673  14.623  0.00  0.00    +0.000 A 
ATOM     32  H   UNL     1      50.671   9.417  11.470  0.00  0.00    +0.000 HD
ENDBRANCH  19  22
ENDBRANCH  17  18
ENDBRANCH   5  17
TORSDOF 5
ENDMDL
