MODEL 1
REMARK VINA RESULT:    -7.318      0.000      0.000
REMARK INTER + INTRA:         -11.562
REMARK INTER:                 -10.741
REMARK INTRA:                  -0.822
REMARK UNBOUND:                -0.822
REMARK  Name = 
REMARK  9 active torsions:
REMARK  status: ('A' for Active; 'I' for Inactive)
REMARK    1  A    between atoms: C_1  and  O_2
REMARK    2  A    between atoms: O_2  and  C_3
REMARK    3  A    between atoms: C_3  and  C_4
REMARK    4  A    between atoms: C_4  and  N_5
REMARK    5  A    between atoms: N_5  and  C_6
REMARK    6  A    between atoms: C_6  and  C_7
REMARK    7  A    between atoms: C_10  and  C_11
REMARK    8  A    between atoms: C_11  and  N_12
REMARK    9  A    between atoms: C_17  and  C_18
REMARK                            x       y       z     vdW  Elec       q    Type
REMARK                         _______ _______ _______ _____ _____    ______ ____
ROOT
ATOM      1  C   UNL     1      44.220   5.649  11.170  0.00  0.00    +0.000 C 
ENDROOT
BRANCH   1   2
ATOM      2  N   UNL     1      44.246   4.334  10.531  0.00  0.00    +0.000 N 
ATOM      3  C   UNL     1      43.804   3.193  11.170  0.00  0.00    +0.000 A 
ATOM      4  C   UNL     1      43.998   2.130  10.322  0.00  0.00    +0.000 A 
ATOM      5  C   UNL     1      44.909   2.568   9.334  0.00  0.00    +0.000 A 
ATOM      6  C   UNL     1      45.754   1.901   8.445  0.00  0.00    +0.000 A 
ATOM      7  C   UNL     1      46.570   2.689   7.658  0.00  0.00    +0.000 A 
ATOM      8  N   UNL     1      46.484   4.053   7.579  0.00  0.00    +0.000 NA
ATOM      9  C   UNL     1      45.632   4.702   8.416  0.00  0.00    +0.000 A 
ATOM     10  C   UNL     1      44.947   3.970   9.382  0.00  0.00    +0.000 A 
BRANCH   7  11
ATOM     11  C   UNL     1      47.711   2.028   6.938  0.00  0.00    +0.000 C 
ATOM     12  N   UNL     1      48.659   2.867   6.409  0.00  0.00    +0.000 N 
ATOM     13  O   UNL     1      47.821   0.809   6.856  0.00  0.00    +0.000 OA
ATOM     14  H   UNL     1      48.576   3.854   6.531  0.00  0.00    +0.000 HD
ATOM     15  H   UNL     1      49.490   2.464   5.978  0.00  0.00    +0.000 HD
ENDBRANCH   7  11
ENDBRANCH   1   2
BRANCH   1  19
ATOM     16  C   UNL     1      47.751   6.470  13.453  0.00  0.00    +0.000 A 
ATOM     17  C   UNL     1      46.825   5.543  13.941  0.00  0.00    +0.000 A 
ATOM     18  C   UNL     1      45.670   5.258  13.207  0.00  0.00    +0.000 A 
ATOM     19  C   UNL     1      45.446   5.912  12.004  0.00  0.00    +0.000 A 
ATOM     20  N   UNL     1      46.348   6.797  11.492  0.00  0.00    +0.000 NA
ATOM     21  C   UNL     1      47.462   7.053  12.220  0.00  0.00    +0.000 A 
BRANCH  16  22
ATOM     22  C   UNL     1      48.967   6.898  14.238  0.00  0.00    +0.000 C 
BRANCH  22  23
ATOM     23  N   UNL     1      48.659   7.167  15.643  0.00  0.00    +0.000 NA
ATOM     24  H   UNL     1      48.820   8.154  15.836  0.00  0.00    +0.000 HD
BRANCH  23  25
ATOM     25  C   UNL     1      49.508   6.365  16.536  0.00  0.00    +0.000 C 
BRANCH  25  26
ATOM     26  C   UNL     1      48.682   5.265  17.216  0.00  0.00    +0.000 C 
BRANCH  26  28
ATOM     27  C   UNL     1      47.870   3.136  16.639  0.00  0.00    +0.000 C 
ATOM     28  O   UNL     1      49.008   3.992  16.656  0.00  0.00    +0.000 OA
ENDBRANCH  26  28
ENDBRANCH  25  26
ENDBRANCH  23  25
ENDBRANCH  22  23
ENDBRANCH  16  22
ENDBRANCH   1  19
TORSDOF 8
ENDMDL
MODEL 2
REMARK VINA RESULT:    -6.733      1.961      2.615
REMARK INTER + INTRA:         -10.703
REMARK INTER:                  -9.899
REMARK INTRA:                  -0.804
REMARK UNBOUND:                -0.822
REMARK  Name = 
REMARK  9 active torsions:
REMARK  status: ('A' for Active; 'I' for Inactive)
REMARK    1  A    between atoms: C_1  and  O_2
REMARK    2  A    between atoms: O_2  and  C_3
REMARK    3  A    between atoms: C_3  and  C_4
REMARK    4  A    between atoms: C_4  and  N_5
REMARK    5  A    between atoms: N_5  and  C_6
REMARK    6  A    between atoms: C_6  and  C_7
REMARK    7  A    between atoms: C_10  and  C_11
REMARK    8  A    between atoms: C_11  and  N_12
REMARK    9  A    between atoms: C_17  and  C_18
REMARK                            x       y       z     vdW  Elec       q    Type
REMARK                         _______ _______ _______ _____ _____    ______ ____
ROOT
ATOM      1  C   UNL     1      44.247   5.629  11.159  0.00  0.00    +0.000 C 
ENDROOT
BRANCH   1   2
ATOM      2  N   UNL     1      44.264   4.323  10.501  0.00  0.00    +0.000 N 
ATOM      3  C   UNL     1      43.804   3.179  11.119  0.00  0.00    +0.000 A 
ATOM      4  C   UNL     1      43.994   2.126  10.258  0.00  0.00    +0.000 A 
ATOM      5  C   UNL     1      44.920   2.567   9.285  0.00  0.00    +0.000 A 
ATOM      6  C   UNL     1      45.766   1.903   8.395  0.00  0.00    +0.000 A 
ATOM      7  C   UNL     1      46.598   2.693   7.627  0.00  0.00    +0.000 A 
ATOM      8  N   UNL     1      46.528   4.058   7.567  0.00  0.00    +0.000 NA
ATOM      9  C   UNL     1      45.675   4.706   8.404  0.00  0.00    +0.000 A 
ATOM     10  C   UNL     1      44.972   3.968   9.354  0.00  0.00    +0.000 A 
BRANCH   7  11
ATOM     11  C   UNL     1      47.738   2.030   6.909  0.00  0.00    +0.000 C 
ATOM     12  N   UNL     1      48.627   2.867   6.283  0.00  0.00    +0.000 N 
ATOM     13  O   UNL     1      47.899   0.813   6.910  0.00  0.00    +0.000 OA
ATOM     14  H   UNL     1      48.505   3.856   6.337  0.00  0.00    +0.000 HD
ATOM     15  H   UNL     1      49.458   2.468   5.846  0.00  0.00    +0.000 HD
ENDBRANCH   7  11
ENDBRANCH   1   2
BRANCH   1  19
ATOM     16  C   UNL     1      47.906   6.519  13.201  0.00  0.00    +0.000 A 
ATOM     17  C   UNL     1      47.021   5.595  13.762  0.00  0.00    +0.000 A 
ATOM     18  C   UNL     1      45.825   5.287  13.108  0.00  0.00    +0.000 A 
ATOM     19  C   UNL     1      45.520   5.917  11.909  0.00  0.00    +0.000 A 
ATOM     20  N   UNL     1      46.381   6.800  11.325  0.00  0.00    +0.000 NA
ATOM     21  C   UNL     1      47.536   7.078  11.978  0.00  0.00    +0.000 A 
BRANCH  16  22
ATOM     22  C   UNL     1      49.165   6.972  13.900  0.00  0.00    +0.000 C 
BRANCH  22  23
ATOM     23  N   UNL     1      50.207   7.387  12.960  0.00  0.00    +0.000 NA
ATOM     24  H   UNL     1      50.796   6.586  12.740  0.00  0.00    +0.000 HD
BRANCH  23  25
ATOM     25  C   UNL     1      51.046   8.450  13.532  0.00  0.00    +0.000 C 
BRANCH  25  26
ATOM     26  C   UNL     1      50.427   9.827  13.261  0.00  0.00    +0.000 C 
BRANCH  26  28
ATOM     27  C   UNL     1      50.955   9.883  15.552  0.00  0.00    +0.000 C 
ATOM     28  O   UNL     1      50.286  10.550  14.486  0.00  0.00    +0.000 OA
ENDBRANCH  26  28
ENDBRANCH  25  26
ENDBRANCH  23  25
ENDBRANCH  22  23
ENDBRANCH  16  22
ENDBRANCH   1  19
TORSDOF 8
ENDMDL
MODEL 3
REMARK VINA RESULT:    -6.622      2.209      2.996
REMARK INTER + INTRA:         -10.540
REMARK INTER:                  -9.797
REMARK INTRA:                  -0.743
REMARK UNBOUND:                -0.822
REMARK  Name = 
REMARK  9 active torsions:
REMARK  status: ('A' for Active; 'I' for Inactive)
REMARK    1  A    between atoms: C_1  and  O_2
REMARK    2  A    between atoms: O_2  and  C_3
REMARK    3  A    between atoms: C_3  and  C_4
REMARK    4  A    between atoms: C_4  and  N_5
REMARK    5  A    between atoms: N_5  and  C_6
REMARK    6  A    between atoms: C_6  and  C_7
REMARK    7  A    between atoms: C_10  and  C_11
REMARK    8  A    between atoms: C_11  and  N_12
REMARK    9  A    between atoms: C_17  and  C_18
REMARK                            x       y       z     vdW  Elec       q    Type
REMARK                         _______ _______ _______ _____ _____    ______ ____
ROOT
ATOM      1  C   UNL     1      44.261   5.640  11.202  0.00  0.00    +0.000 C 
ENDROOT
BRANCH   1   2
ATOM      2  N   UNL     1      44.271   4.327  10.557  0.00  0.00    +0.000 N 
ATOM      3  C   UNL     1      43.835   3.187  11.199  0.00  0.00    +0.000 A 
ATOM      4  C   UNL     1      44.009   2.126  10.344  0.00  0.00    +0.000 A 
ATOM      5  C   UNL     1      44.906   2.563   9.342  0.00  0.00    +0.000 A 
ATOM      6  C   UNL     1      45.732   1.896   8.437  0.00  0.00    +0.000 A 
ATOM      7  C   UNL     1      46.538   2.683   7.639  0.00  0.00    +0.000 A 
ATOM      8  N   UNL     1      46.457   4.048   7.567  0.00  0.00    +0.000 NA
ATOM      9  C   UNL     1      45.622   4.698   8.420  0.00  0.00    +0.000 A 
ATOM     10  C   UNL     1      44.950   3.965   9.396  0.00  0.00    +0.000 A 
BRANCH   7  11
ATOM     11  C   UNL     1      47.663   2.021   6.897  0.00  0.00    +0.000 C 
ATOM     12  N   UNL     1      48.639   2.853   6.409  0.00  0.00    +0.000 N 
ATOM     13  O   UNL     1      47.739   0.803   6.764  0.00  0.00    +0.000 OA
ATOM     14  H   UNL     1      48.584   3.836   6.572  0.00  0.00    +0.000 HD
ATOM     15  H   UNL     1      49.461   2.444   5.965  0.00  0.00    +0.000 HD
ENDBRANCH   7  11
ENDBRANCH   1   2
BRANCH   1  19
ATOM     16  C   UNL     1      47.949   6.565  13.176  0.00  0.00    +0.000 A 
ATOM     17  C   UNL     1      47.115   5.583  13.718  0.00  0.00    +0.000 A 
ATOM     18  C   UNL     1      45.910   5.264  13.085  0.00  0.00    +0.000 A 
ATOM     19  C   UNL     1      45.546   5.938  11.928  0.00  0.00    +0.000 A 
ATOM     20  N   UNL     1      46.357   6.878  11.362  0.00  0.00    +0.000 NA
ATOM     21  C   UNL     1      47.522   7.167  11.994  0.00  0.00    +0.000 A 
BRANCH  16  22
ATOM     22  C   UNL     1      49.212   7.029  13.859  0.00  0.00    +0.000 C 
BRANCH  22  23
ATOM     23  N   UNL     1      49.646   8.347  13.395  0.00  0.00    +0.000 NA
ATOM     24  H   UNL     1      49.035   8.652  12.640  0.00  0.00    +0.000 HD
BRANCH  23  25
ATOM     25  C   UNL     1      51.029   8.309  12.899  0.00  0.00    +0.000 C 
BRANCH  25  26
ATOM     26  C   UNL     1      51.089   8.785  11.442  0.00  0.00    +0.000 C 
BRANCH  26  28
ATOM     27  C   UNL     1      53.234   8.036  10.835  0.00  0.00    +0.000 C 
ATOM     28  O   UNL     1      51.833   7.854  10.653  0.00  0.00    +0.000 OA
ENDBRANCH  26  28
ENDBRANCH  25  26
ENDBRANCH  23  25
ENDBRANCH  22  23
ENDBRANCH  16  22
ENDBRANCH   1  19
TORSDOF 8
ENDMDL
MODEL 4
REMARK VINA RESULT:    -6.017      4.087      5.634
REMARK INTER + INTRA:          -9.652
REMARK INTER:                  -9.292
REMARK INTRA:                  -0.360
REMARK UNBOUND:                -0.822
REMARK  Name = 
REMARK  9 active torsions:
REMARK  status: ('A' for Active; 'I' for Inactive)
REMARK    1  A    between atoms: C_1  and  O_2
REMARK    2  A    between atoms: O_2  and  C_3
REMARK    3  A    between atoms: C_3  and  C_4
REMARK    4  A    between atoms: C_4  and  N_5
REMARK    5  A    between atoms: N_5  and  C_6
REMARK    6  A    between atoms: C_6  and  C_7
REMARK    7  A    between atoms: C_10  and  C_11
REMARK    8  A    between atoms: C_11  and  N_12
REMARK    9  A    between atoms: C_17  and  C_18
REMARK                            x       y       z     vdW  Elec       q    Type
REMARK                         _______ _______ _______ _____ _____    ______ ____
ROOT
ATOM      1  C   UNL     1      45.586   5.627  12.362  0.00  0.00    +0.000 C 
ENDROOT
BRANCH   1   2
ATOM      2  N   UNL     1      44.988   4.667  11.435  0.00  0.00    +0.000 N 
ATOM      3  C   UNL     1      44.249   3.586  11.866  0.00  0.00    +0.000 A 
ATOM      4  C   UNL     1      43.867   2.865  10.762  0.00  0.00    +0.000 A 
ATOM      5  C   UNL     1      44.699   3.289   9.700  0.00  0.00    +0.000 A 
ATOM      6  C   UNL     1      45.054   2.723   8.475  0.00  0.00    +0.000 A 
ATOM      7  C   UNL     1      45.970   3.422   7.714  0.00  0.00    +0.000 A 
ATOM      8  N   UNL     1      46.413   4.684   8.004  0.00  0.00    +0.000 NA
ATOM      9  C   UNL     1      46.035   5.255   9.178  0.00  0.00    +0.000 A 
ATOM     10  C   UNL     1      45.289   4.504  10.084  0.00  0.00    +0.000 A 
BRANCH   7  11
ATOM     11  C   UNL     1      46.624   2.710   6.564  0.00  0.00    +0.000 C 
ATOM     12  N   UNL     1      46.965   3.488   5.486  0.00  0.00    +0.000 N 
ATOM     13  O   UNL     1      46.882   1.511   6.592  0.00  0.00    +0.000 OA
ATOM     14  H   UNL     1      46.792   4.471   5.504  0.00  0.00    +0.000 HD
ATOM     15  H   UNL     1      47.479   3.064   4.714  0.00  0.00    +0.000 HD
ENDBRANCH   7  11
ENDBRANCH   1   2
BRANCH   1  19
ATOM     16  C   UNL     1      44.222   9.606  11.545  0.00  0.00    +0.000 A 
ATOM     17  C   UNL     1      45.385   9.426  12.299  0.00  0.00    +0.000 A 
ATOM     18  C   UNL     1      45.849   8.136  12.571  0.00  0.00    +0.000 A 
ATOM     19  C   UNL     1      45.138   7.041  12.100  0.00  0.00    +0.000 A 
ATOM     20  N   UNL     1      44.017   7.189  11.337  0.00  0.00    +0.000 NA
ATOM     21  C   UNL     1      43.591   8.451  11.084  0.00  0.00    +0.000 A 
BRANCH  16  22
ATOM     22  C   UNL     1      43.611  10.963  11.298  0.00  0.00    +0.000 C 
BRANCH  22  23
ATOM     23  N   UNL     1      42.412  11.192  12.105  0.00  0.00    +0.000 NA
ATOM     24  H   UNL     1      42.251  10.381  12.700  0.00  0.00    +0.000 HD
BRANCH  23  25
ATOM     25  C   UNL     1      41.230  11.397  11.256  0.00  0.00    +0.000 C 
BRANCH  25  26
ATOM     26  C   UNL     1      40.441  10.089  11.109  0.00  0.00    +0.000 C 
BRANCH  26  28
ATOM     27  C   UNL     1      39.005  11.480  12.347  0.00  0.00    +0.000 C 
ATOM     28  O   UNL     1      39.234  10.157  11.871  0.00  0.00    +0.000 OA
ENDBRANCH  26  28
ENDBRANCH  25  26
ENDBRANCH  23  25
ENDBRANCH  22  23
ENDBRANCH  16  22
ENDBRANCH   1  19
TORSDOF 8
ENDMDL
MODEL 5
REMARK VINA RESULT:    -5.793      4.311      6.394
REMARK INTER + INTRA:          -9.324
REMARK INTER:                  -8.850
REMARK INTRA:                  -0.474
REMARK UNBOUND:                -0.822
REMARK  Name = 
REMARK  9 active torsions:
REMARK  status: ('A' for Active; 'I' for Inactive)
REMARK    1  A    between atoms: C_1  and  O_2
REMARK    2  A    between atoms: O_2  and  C_3
REMARK    3  A    between atoms: C_3  and  C_4
REMARK    4  A    between atoms: C_4  and  N_5
REMARK    5  A    between atoms: N_5  and  C_6
REMARK    6  A    between atoms: C_6  and  C_7
REMARK    7  A    between atoms: C_10  and  C_11
REMARK    8  A    between atoms: C_11  and  N_12
REMARK    9  A    between atoms: C_17  and  C_18
REMARK                            x       y       z     vdW  Elec       q    Type
REMARK                         _______ _______ _______ _____ _____    ______ ____
ROOT
ATOM      1  C   UNL     1      47.174   4.001  16.086  0.00  0.00    +0.000 C 
ENDROOT
BRANCH   1   2
ATOM      2  N   UNL     1      47.272   4.754  14.836  0.00  0.00    +0.000 N 
ATOM      3  C   UNL     1      47.795   6.029  14.782  0.00  0.00    +0.000 A 
ATOM      4  C   UNL     1      47.710   6.468  13.484  0.00  0.00    +0.000 A 
ATOM      5  C   UNL     1      46.784   5.618  12.835  0.00  0.00    +0.000 A 
ATOM      6  C   UNL     1      46.017   5.743  11.675  0.00  0.00    +0.000 A 
ATOM      7  C   UNL     1      45.154   4.704  11.391  0.00  0.00    +0.000 A 
ATOM      8  N   UNL     1      45.126   3.515  12.069  0.00  0.00    +0.000 NA
ATOM      9  C   UNL     1      45.903   3.376  13.175  0.00  0.00    +0.000 A 
ATOM     10  C   UNL     1      46.628   4.474  13.632  0.00  0.00    +0.000 A 
BRANCH   7  11
ATOM     11  C   UNL     1      44.088   4.933  10.358  0.00  0.00    +0.000 C 
ATOM     12  N   UNL     1      44.363   4.476   9.093  0.00  0.00    +0.000 N 
ATOM     13  O   UNL     1      43.013   5.459  10.626  0.00  0.00    +0.000 OA
ATOM     14  H   UNL     1      45.224   4.006   8.908  0.00  0.00    +0.000 HD
ATOM     15  H   UNL     1      43.641   4.541   8.376  0.00  0.00    +0.000 HD
ENDBRANCH   7  11
ENDBRANCH   1   2
BRANCH   1  19
ATOM     16  C   UNL     1      50.973   2.581  17.467  0.00  0.00    +0.000 A 
ATOM     17  C   UNL     1      50.525   3.839  17.881  0.00  0.00    +0.000 A 
ATOM     18  C   UNL     1      49.286   4.316  17.445  0.00  0.00    +0.000 A 
ATOM     19  C   UNL     1      48.516   3.540  16.591  0.00  0.00    +0.000 A 
ATOM     20  N   UNL     1      48.916   2.297  16.197  0.00  0.00    +0.000 NA
ATOM     21  C   UNL     1      50.120   1.855  16.637  0.00  0.00    +0.000 A 
BRANCH  16  22
ATOM     22  C   UNL     1      52.340   2.046  17.818  0.00  0.00    +0.000 C 
BRANCH  22  23
ATOM     23  N   UNL     1      52.320   0.613  18.113  0.00  0.00    +0.000 NA
ATOM     24  H   UNL     1      52.252   0.481  19.121  0.00  0.00    +0.000 HD
BRANCH  23  25
ATOM     25  C   UNL     1      53.541  -0.047  17.630  0.00  0.00    +0.000 C 
BRANCH  25  26
ATOM     26  C   UNL     1      54.565  -0.177  18.766  0.00  0.00    +0.000 C 
BRANCH  26  28
ATOM     27  C   UNL     1      54.232  -2.482  19.091  0.00  0.00    +0.000 C 
ATOM     28  O   UNL     1      54.151  -1.190  19.685  0.00  0.00    +0.000 OA
ENDBRANCH  26  28
ENDBRANCH  25  26
ENDBRANCH  23  25
ENDBRANCH  22  23
ENDBRANCH  16  22
ENDBRANCH   1  19
TORSDOF 8
ENDMDL
MODEL 6
REMARK VINA RESULT:    -5.446      3.732      6.206
REMARK INTER + INTRA:          -8.815
REMARK INTER:                  -8.109
REMARK INTRA:                  -0.706
REMARK UNBOUND:                -0.822
REMARK  Name = 
REMARK  9 active torsions:
REMARK  status: ('A' for Active; 'I' for Inactive)
REMARK    1  A    between atoms: C_1  and  O_2
REMARK    2  A    between atoms: O_2  and  C_3
REMARK    3  A    between atoms: C_3  and  C_4
REMARK    4  A    between atoms: C_4  and  N_5
REMARK    5  A    between atoms: N_5  and  C_6
REMARK    6  A    between atoms: C_6  and  C_7
REMARK    7  A    between atoms: C_10  and  C_11
REMARK    8  A    between atoms: C_11  and  N_12
REMARK    9  A    between atoms: C_17  and  C_18
REMARK                            x       y       z     vdW  Elec       q    Type
REMARK                         _______ _______ _______ _____ _____    ______ ____
ROOT
ATOM      1  C   UNL     1      47.378   4.361  16.255  0.00  0.00    +0.000 C 
ENDROOT
BRANCH   1   2
ATOM      2  N   UNL     1      47.470   5.016  14.951  0.00  0.00    +0.000 N 
ATOM      3  C   UNL     1      48.026   6.269  14.792  0.00  0.00    +0.000 A 
ATOM      4  C   UNL     1      47.925   6.612  13.466  0.00  0.00    +0.000 A 
ATOM      5  C   UNL     1      46.964   5.743  12.900  0.00  0.00    +0.000 A 
ATOM      6  C   UNL     1      46.176   5.803  11.749  0.00  0.00    +0.000 A 
ATOM      7  C   UNL     1      45.280   4.770  11.560  0.00  0.00    +0.000 A 
ATOM      8  N   UNL     1      45.234   3.636  12.325  0.00  0.00    +0.000 NA
ATOM      9  C   UNL     1      46.030   3.558  13.424  0.00  0.00    +0.000 A 
ATOM     10  C   UNL     1      46.793   4.666  13.784  0.00  0.00    +0.000 A 
BRANCH   7  11
ATOM     11  C   UNL     1      44.198   4.951  10.533  0.00  0.00    +0.000 C 
ATOM     12  N   UNL     1      43.258   5.912  10.808  0.00  0.00    +0.000 N 
ATOM     13  O   UNL     1      44.170   4.312   9.486  0.00  0.00    +0.000 OA
ATOM     14  H   UNL     1      43.328   6.455  11.642  0.00  0.00    +0.000 HD
ATOM     15  H   UNL     1      42.548   6.124  10.107  0.00  0.00    +0.000 HD
ENDBRANCH   7  11
ENDBRANCH   1   2
BRANCH   1  19
ATOM     16  C   UNL     1      51.018   2.398  17.373  0.00  0.00    +0.000 A 
ATOM     17  C   UNL     1      50.782   3.700  17.822  0.00  0.00    +0.000 A 
ATOM     18  C   UNL     1      49.597   4.355  17.472  0.00  0.00    +0.000 A 
ATOM     19  C   UNL     1      48.671   3.707  16.667  0.00  0.00    +0.000 A 
ATOM     20  N   UNL     1      48.864   2.426  16.242  0.00  0.00    +0.000 NA
ATOM     21  C   UNL     1      50.019   1.812  16.598  0.00  0.00    +0.000 A 
BRANCH  16  22
ATOM     22  C   UNL     1      52.315   1.670  17.629  0.00  0.00    +0.000 C 
BRANCH  22  23
ATOM     23  N   UNL     1      52.911   2.026  18.917  0.00  0.00    +0.000 NA
ATOM     24  H   UNL     1      52.363   2.770  19.344  0.00  0.00    +0.000 HD
BRANCH  23  25
ATOM     25  C   UNL     1      54.296   2.492  18.753  0.00  0.00    +0.000 C 
BRANCH  25  26
ATOM     26  C   UNL     1      54.800   2.188  17.336  0.00  0.00    +0.000 C 
BRANCH  26  28
ATOM     27  C   UNL     1      54.810   4.539  17.280  0.00  0.00    +0.000 C 
ATOM     28  O   UNL     1      55.411   3.351  16.774  0.00  0.00    +0.000 OA
ENDBRANCH  26  28
ENDBRANCH  25  26
ENDBRANCH  23  25
ENDBRANCH  22  23
ENDBRANCH  16  22
ENDBRANCH   1  19
TORSDOF 8
ENDMDL
MODEL 7
REMARK VINA RESULT:    -5.443      3.888      5.709
REMARK INTER + INTRA:          -8.810
REMARK INTER:                  -7.711
REMARK INTRA:                  -1.100
REMARK UNBOUND:                -0.822
REMARK  Name = 
REMARK  9 active torsions:
REMARK  status: ('A' for Active; 'I' for Inactive)
REMARK    1  A    between atoms: C_1  and  O_2
REMARK    2  A    between atoms: O_2  and  C_3
REMARK    3  A    between atoms: C_3  and  C_4
REMARK    4  A    between atoms: C_4  and  N_5
REMARK    5  A    between atoms: N_5  and  C_6
REMARK    6  A    between atoms: C_6  and  C_7
REMARK    7  A    between atoms: C_10  and  C_11
REMARK    8  A    between atoms: C_11  and  N_12
REMARK    9  A    between atoms: C_17  and  C_18
REMARK                            x       y       z     vdW  Elec       q    Type
REMARK                         _______ _______ _______ _____ _____    ______ ____
ROOT
ATOM      1  C   UNL     1      49.403   8.549  13.529  0.00  0.00    +0.000 C 
ENDROOT
BRANCH   1   2
ATOM      2  N   UNL     1      48.077   8.535  12.913  0.00  0.00    +0.000 N 
ATOM      3  C   UNL     1      47.344   9.686  12.712  0.00  0.00    +0.000 A 
ATOM      4  C   UNL     1      46.140   9.330  12.156  0.00  0.00    +0.000 A 
ATOM      5  C   UNL     1      45.990   7.942  12.382  0.00  0.00    +0.000 A 
ATOM      6  C   UNL     1      44.887   7.086  12.392  0.00  0.00    +0.000 A 
ATOM      7  C   UNL     1      45.131   5.770  12.730  0.00  0.00    +0.000 A 
ATOM      8  N   UNL     1      46.379   5.231  12.889  0.00  0.00    +0.000 NA
ATOM      9  C   UNL     1      47.457   6.057  12.839  0.00  0.00    +0.000 A 
ATOM     10  C   UNL     1      47.252   7.429  12.720  0.00  0.00    +0.000 A 
BRANCH   7  11
ATOM     11  C   UNL     1      43.956   4.899  13.074  0.00  0.00    +0.000 C 
ATOM     12  N   UNL     1      42.727   5.510  13.066  0.00  0.00    +0.000 N 
ATOM     13  O   UNL     1      44.071   3.700  13.310  0.00  0.00    +0.000 OA
ATOM     14  H   UNL     1      42.651   6.474  12.822  0.00  0.00    +0.000 HD
ATOM     15  H   UNL     1      41.893   4.944  13.219  0.00  0.00    +0.000 HD
ENDBRANCH   7  11
ENDBRANCH   1   2
BRANCH   1  19
ATOM     16  C   UNL     1      49.451   6.924  17.493  0.00  0.00    +0.000 A 
ATOM     17  C   UNL     1      48.642   8.030  17.221  0.00  0.00    +0.000 A 
ATOM     18  C   UNL     1      48.609   8.571  15.932  0.00  0.00    +0.000 A 
ATOM     19  C   UNL     1      49.395   8.010  14.935  0.00  0.00    +0.000 A 
ATOM     20  N   UNL     1      50.169   6.912  15.167  0.00  0.00    +0.000 NA
ATOM     21  C   UNL     1      50.181   6.404  16.424  0.00  0.00    +0.000 A 
BRANCH  16  22
ATOM     22  C   UNL     1      49.611   6.352  18.880  0.00  0.00    +0.000 C 
BRANCH  22  23
ATOM     23  N   UNL     1      49.847   4.908  18.865  0.00  0.00    +0.000 NA
ATOM     24  H   UNL     1      50.490   4.683  18.108  0.00  0.00    +0.000 HD
BRANCH  23  25
ATOM     25  C   UNL     1      48.595   4.166  18.659  0.00  0.00    +0.000 C 
BRANCH  25  26
ATOM     26  C   UNL     1      48.812   3.010  17.674  0.00  0.00    +0.000 C 
BRANCH  26  28
ATOM     27  C   UNL     1      47.213   4.156  16.387  0.00  0.00    +0.000 C 
ATOM     28  O   UNL     1      48.425   3.409  16.357  0.00  0.00    +0.000 OA
ENDBRANCH  26  28
ENDBRANCH  25  26
ENDBRANCH  23  25
ENDBRANCH  22  23
ENDBRANCH  16  22
ENDBRANCH   1  19
TORSDOF 8
ENDMDL
MODEL 8
REMARK VINA RESULT:    -5.365      3.254      5.650
REMARK INTER + INTRA:          -8.696
REMARK INTER:                  -7.655
REMARK INTRA:                  -1.041
REMARK UNBOUND:                -0.822
REMARK  Name = 
REMARK  9 active torsions:
REMARK  status: ('A' for Active; 'I' for Inactive)
REMARK    1  A    between atoms: C_1  and  O_2
REMARK    2  A    between atoms: O_2  and  C_3
REMARK    3  A    between atoms: C_3  and  C_4
REMARK    4  A    between atoms: C_4  and  N_5
REMARK    5  A    between atoms: N_5  and  C_6
REMARK    6  A    between atoms: C_6  and  C_7
REMARK    7  A    between atoms: C_10  and  C_11
REMARK    8  A    between atoms: C_11  and  N_12
REMARK    9  A    between atoms: C_17  and  C_18
REMARK                            x       y       z     vdW  Elec       q    Type
REMARK                         _______ _______ _______ _____ _____    ______ ____
ROOT
ATOM      1  C   UNL     1      48.299   7.981  15.281  0.00  0.00    +0.000 C 
ENDROOT
BRANCH   1   2
ATOM      2  N   UNL     1      48.038   7.411  13.960  0.00  0.00    +0.000 N 
ATOM      3  C   UNL     1      48.214   8.132  12.797  0.00  0.00    +0.000 A 
ATOM      4  C   UNL     1      47.849   7.332  11.743  0.00  0.00    +0.000 A 
ATOM      5  C   UNL     1      47.087   6.273  12.289  0.00  0.00    +0.000 A 
ATOM      6  C   UNL     1      46.165   5.376  11.748  0.00  0.00    +0.000 A 
ATOM      7  C   UNL     1      45.558   4.505  12.631  0.00  0.00    +0.000 A 
ATOM      8  N   UNL     1      45.919   4.360  13.943  0.00  0.00    +0.000 NA
ATOM      9  C   UNL     1      46.847   5.207  14.463  0.00  0.00    +0.000 A 
ATOM     10  C   UNL     1      47.329   6.246  13.672  0.00  0.00    +0.000 A 
BRANCH   7  11
ATOM     11  C   UNL     1      44.341   3.759  12.165  0.00  0.00    +0.000 C 
ATOM     12  N   UNL     1      43.858   4.102  10.927  0.00  0.00    +0.000 N 
ATOM     13  O   UNL     1      43.822   2.865  12.826  0.00  0.00    +0.000 OA
ATOM     14  H   UNL     1      44.325   4.798  10.384  0.00  0.00    +0.000 HD
ATOM     15  H   UNL     1      43.080   3.572  10.536  0.00  0.00    +0.000 HD
ENDBRANCH   7  11
ENDBRANCH   1   2
BRANCH   1  19
ATOM     16  C   UNL     1      51.248   5.825  17.520  0.00  0.00    +0.000 A 
ATOM     17  C   UNL     1      51.613   6.421  16.309  0.00  0.00    +0.000 A 
ATOM     18  C   UNL     1      50.666   7.133  15.568  0.00  0.00    +0.000 A 
ATOM     19  C   UNL     1      49.364   7.230  16.036  0.00  0.00    +0.000 A 
ATOM     20  N   UNL     1      48.989   6.684  17.229  0.00  0.00    +0.000 NA
ATOM     21  C   UNL     1      49.927   6.002  17.930  0.00  0.00    +0.000 A 
BRANCH  16  22
ATOM     22  C   UNL     1      52.190   4.960  18.320  0.00  0.00    +0.000 C 
BRANCH  22  23
ATOM     23  N   UNL     1      51.583   3.689  18.714  0.00  0.00    +0.000 NA
ATOM     24  H   UNL     1      52.007   3.372  19.584  0.00  0.00    +0.000 HD
BRANCH  23  25
ATOM     25  C   UNL     1      51.788   2.659  17.686  0.00  0.00    +0.000 C 
BRANCH  25  26
ATOM     26  C   UNL     1      50.452   2.004  17.309  0.00  0.00    +0.000 C 
BRANCH  26  28
ATOM     27  C   UNL     1      48.282   2.554  16.593  0.00  0.00    +0.000 C 
ATOM     28  O   UNL     1      49.659   2.914  16.545  0.00  0.00    +0.000 OA
ENDBRANCH  26  28
ENDBRANCH  25  26
ENDBRANCH  23  25
ENDBRANCH  22  23
ENDBRANCH  16  22
ENDBRANCH   1  19
TORSDOF 8
ENDMDL
MODEL 9
REMARK VINA RESULT:    -5.285      3.415      5.962
REMARK INTER + INTRA:          -8.578
REMARK INTER:                  -7.970
REMARK INTRA:                  -0.608
REMARK UNBOUND:                -0.822
REMARK  Name = 
REMARK  9 active torsions:
REMARK  status: ('A' for Active; 'I' for Inactive)
REMARK    1  A    between atoms: C_1  and  O_2
REMARK    2  A    between atoms: O_2  and  C_3
REMARK    3  A    between atoms: C_3  and  C_4
REMARK    4  A    between atoms: C_4  and  N_5
REMARK    5  A    between atoms: N_5  and  C_6
REMARK    6  A    between atoms: C_6  and  C_7
REMARK    7  A    between atoms: C_10  and  C_11
REMARK    8  A    between atoms: C_11  and  N_12
REMARK    9  A    between atoms: C_17  and  C_18
REMARK                            x       y       z     vdW  Elec       q    Type
REMARK                         _______ _______ _______ _____ _____    ______ ____
ROOT
ATOM      1  C   UNL     1      48.250   7.566  15.343  0.00  0.00    +0.000 C 
ENDROOT
BRANCH   1   2
ATOM      2  N   UNL     1      48.056   7.224  13.935  0.00  0.00    +0.000 N 
ATOM      3  C   UNL     1      48.502   8.032  12.910  0.00  0.00    +0.000 A 
ATOM      4  C   UNL     1      48.131   7.454  11.721  0.00  0.00    +0.000 A 
ATOM      5  C   UNL     1      47.128   6.507  12.033  0.00  0.00    +0.000 A 
ATOM      6  C   UNL     1      46.133   5.881  11.280  0.00  0.00    +0.000 A 
ATOM      7  C   UNL     1      45.275   5.044  11.966  0.00  0.00    +0.000 A 
ATOM      8  N   UNL     1      45.438   4.672  13.273  0.00  0.00    +0.000 NA
ATOM      9  C   UNL     1      46.432   5.251  13.997  0.00  0.00    +0.000 A 
ATOM     10  C   UNL     1      47.189   6.265  13.414  0.00  0.00    +0.000 A 
BRANCH   7  11
ATOM     11  C   UNL     1      44.009   4.614  11.280  0.00  0.00    +0.000 C 
ATOM     12  N   UNL     1      43.403   5.554  10.484  0.00  0.00    +0.000 N 
ATOM     13  O   UNL     1      43.555   3.479  11.385  0.00  0.00    +0.000 OA
ATOM     14  H   UNL     1      43.816   6.455  10.373  0.00  0.00    +0.000 HD
ATOM     15  H   UNL     1      42.584   5.286   9.939  0.00  0.00    +0.000 HD
ENDBRANCH   7  11
ENDBRANCH   1   2
BRANCH   1  19
ATOM     16  C   UNL     1      50.746   4.759  17.403  0.00  0.00    +0.000 A 
ATOM     17  C   UNL     1      51.337   5.849  16.758  0.00  0.00    +0.000 A 
ATOM     18  C   UNL     1      50.538   6.779  16.086  0.00  0.00    +0.000 A 
ATOM     19  C   UNL     1      49.162   6.600  16.053  0.00  0.00    +0.000 A 
ATOM     20  N   UNL     1      48.559   5.562  16.700  0.00  0.00    +0.000 NA
ATOM     21  C   UNL     1      49.356   4.677  17.348  0.00  0.00    +0.000 A 
BRANCH  16  22
ATOM     22  C   UNL     1      51.553   3.666  18.062  0.00  0.00    +0.000 C 
BRANCH  22  23
ATOM     23  N   UNL     1      50.845   2.385  18.084  0.00  0.00    +0.000 NA
ATOM     24  H   UNL     1      50.691   2.107  19.051  0.00  0.00    +0.000 HD
BRANCH  23  25
ATOM     25  C   UNL     1      51.621   1.336  17.407  0.00  0.00    +0.000 C 
BRANCH  25  26
ATOM     26  C   UNL     1      53.111   1.466  17.748  0.00  0.00    +0.000 C 
BRANCH  26  28
ATOM     27  C   UNL     1      54.373  -0.488  18.091  0.00  0.00    +0.000 C 
ATOM     28  O   UNL     1      53.488   0.457  18.686  0.00  0.00    +0.000 OA
ENDBRANCH  26  28
ENDBRANCH  25  26
ENDBRANCH  23  25
ENDBRANCH  22  23
ENDBRANCH  16  22
ENDBRANCH   1  19
TORSDOF 8
ENDMDL
