MODEL 1
REMARK VINA RESULT:    -8.206      0.000      0.000
REMARK INTER + INTRA:         -11.190
REMARK INTER:                 -10.605
REMARK INTRA:                  -0.585
REMARK UNBOUND:                -0.585
REMARK  Name = 
REMARK  6 active torsions:
REMARK  status: ('A' for Active; 'I' for Inactive)
REMARK    1  A    between atoms: C_1  and  O_2
REMARK    2  A    between atoms: O_2  and  C_3
REMARK    3  A    between atoms: C_6  and  C_7
REMARK    4  A    between atoms: C_7  and  N_8
REMARK    5  A    between atoms: N_8  and  C_9
REMARK    6  A    between atoms: C_12  and  C_13
REMARK                            x       y       z     vdW  Elec       q    Type
REMARK                         _______ _______ _______ _____ _____    ______ ____
ROOT
ATOM      1  N   UNL     1      43.754   3.748  10.563  0.00  0.00    +0.000 N 
ATOM      2  H   UNL     1      43.537   2.913  11.105  0.00  0.00    +0.000 HD
ENDROOT
BRANCH   1   3
ATOM      3  C   UNL     1      44.743   3.459   9.595  0.00  0.00    +0.000 A 
ATOM      4  C   UNL     1      45.307   4.419   8.750  0.00  0.00    +0.000 A 
ATOM      5  C   UNL     1      46.185   4.046   7.722  0.00  0.00    +0.000 A 
ATOM      6  C   UNL     1      46.508   2.700   7.518  0.00  0.00    +0.000 A 
ATOM      7  C   UNL     1      45.939   1.729   8.345  0.00  0.00    +0.000 A 
ATOM      8  C   UNL     1      45.059   2.110   9.364  0.00  0.00    +0.000 A 
BRANCH   6   9
ATOM      9  C   UNL     1      47.407   2.347   6.393  0.00  0.00    +0.000 C 
ATOM     10  N   UNL     1      47.323   3.096   5.251  0.00  0.00    +0.000 N 
ATOM     11  O   UNL     1      48.191   1.406   6.459  0.00  0.00    +0.000 OA
ATOM     12  H   UNL     1      46.550   3.714   5.060  0.00  0.00    +0.000 HD
ATOM     13  H   UNL     1      47.882   2.789   4.465  0.00  0.00    +0.000 HD
ENDBRANCH   6   9
ENDBRANCH   1   3
BRANCH   1  14
ATOM     14  C   UNL     1      43.789   4.964  11.418  0.00  0.00    +0.000 C 
ATOM     15  C   UNL     1      43.050   6.239  11.046  0.00  0.00    +0.000 C 
ATOM     16  C   UNL     1      42.453   5.318  12.060  0.00  0.00    +0.000 C 
BRANCH  14  20
ATOM     17  C   UNL     1      47.291   5.433  13.829  0.00  0.00    +0.000 A 
ATOM     18  C   UNL     1      46.437   4.362  13.945  0.00  0.00    +0.000 A 
ATOM     19  N   UNL     1      45.353   4.178  13.167  0.00  0.00    +0.000 NA
ATOM     20  C   UNL     1      45.079   5.125  12.242  0.00  0.00    +0.000 A 
ATOM     21  N   UNL     1      45.844   6.228  12.068  0.00  0.00    +0.000 NA
ATOM     22  C   UNL     1      46.931   6.348  12.866  0.00  0.00    +0.000 A 
BRANCH  17  24
ATOM     23  C   UNL     1      48.846   7.032  14.563  0.00  0.00    +0.000 C 
ATOM     24  O   UNL     1      48.404   5.676  14.573  0.00  0.00    +0.000 OA
ENDBRANCH  17  24
ENDBRANCH  14  20
ENDBRANCH   1  14
TORSDOF 5
ENDMDL
MODEL 2
REMARK VINA RESULT:    -8.014      0.951      1.449
REMARK INTER + INTRA:         -10.942
REMARK INTER:                 -10.791
REMARK INTRA:                  -0.151
REMARK UNBOUND:                -0.585
REMARK  Name = 
REMARK  6 active torsions:
REMARK  status: ('A' for Active; 'I' for Inactive)
REMARK    1  A    between atoms: C_1  and  O_2
REMARK    2  A    between atoms: O_2  and  C_3
REMARK    3  A    between atoms: C_6  and  C_7
REMARK    4  A    between atoms: C_7  and  N_8
REMARK    5  A    between atoms: N_8  and  C_9
REMARK    6  A    between atoms: C_12  and  C_13
REMARK                            x       y       z     vdW  Elec       q    Type
REMARK                         _______ _______ _______ _____ _____    ______ ____
ROOT
ATOM      1  N   UNL     1      43.799   4.814   9.919  0.00  0.00    +0.000 N 
ATOM      2  H   UNL     1      42.865   4.577   9.592  0.00  0.00    +0.000 HD
ENDROOT
BRANCH   1   3
ATOM      3  C   UNL     1      44.767   4.035   9.245  0.00  0.00    +0.000 A 
ATOM      4  C   UNL     1      45.669   4.553   8.311  0.00  0.00    +0.000 A 
ATOM      5  C   UNL     1      46.514   3.706   7.580  0.00  0.00    +0.000 A 
ATOM      6  C   UNL     1      46.465   2.321   7.768  0.00  0.00    +0.000 A 
ATOM      7  C   UNL     1      45.557   1.789   8.686  0.00  0.00    +0.000 A 
ATOM      8  C   UNL     1      44.714   2.641   9.407  0.00  0.00    +0.000 A 
BRANCH   6   9
ATOM      9  C   UNL     1      47.346   1.459   6.943  0.00  0.00    +0.000 C 
ATOM     10  N   UNL     1      48.407   2.051   6.313  0.00  0.00    +0.000 N 
ATOM     11  O   UNL     1      47.135   0.259   6.804  0.00  0.00    +0.000 OA
ATOM     12  H   UNL     1      48.488   3.050   6.204  0.00  0.00    +0.000 HD
ATOM     13  H   UNL     1      48.948   1.466   5.689  0.00  0.00    +0.000 HD
ENDBRANCH   6   9
ENDBRANCH   1   3
BRANCH   1  14
ATOM     14  C   UNL     1      43.823   5.043  11.389  0.00  0.00    +0.000 C 
ATOM     15  C   UNL     1      42.595   5.499  12.159  0.00  0.00    +0.000 C 
ATOM     16  C   UNL     1      42.983   4.057  12.191  0.00  0.00    +0.000 C 
BRANCH  14  20
ATOM     17  C   UNL     1      47.689   6.218  12.796  0.00  0.00    +0.000 A 
ATOM     18  C   UNL     1      47.019   6.882  11.795  0.00  0.00    +0.000 A 
ATOM     19  N   UNL     1      45.785   6.551  11.368  0.00  0.00    +0.000 NA
ATOM     20  C   UNL     1      45.192   5.480  11.941  0.00  0.00    +0.000 A 
ATOM     21  N   UNL     1      45.779   4.746  12.916  0.00  0.00    +0.000 NA
ATOM     22  C   UNL     1      47.010   5.139  13.317  0.00  0.00    +0.000 A 
BRANCH  17  24
ATOM     23  C   UNL     1      48.950   6.992  14.619  0.00  0.00    +0.000 C 
ATOM     24  O   UNL     1      48.927   6.502  13.280  0.00  0.00    +0.000 OA
ENDBRANCH  17  24
ENDBRANCH  14  20
ENDBRANCH   1  14
TORSDOF 5
ENDMDL
MODEL 3
REMARK VINA RESULT:    -6.997      1.908      2.645
REMARK INTER + INTRA:          -9.628
REMARK INTER:                  -9.922
REMARK INTRA:                   0.294
REMARK UNBOUND:                -0.585
REMARK  Name = 
REMARK  6 active torsions:
REMARK  status: ('A' for Active; 'I' for Inactive)
REMARK    1  A    between atoms: C_1  and  O_2
REMARK    2  A    between atoms: O_2  and  C_3
REMARK    3  A    between atoms: C_6  and  C_7
REMARK    4  A    between atoms: C_7  and  N_8
REMARK    5  A    between atoms: N_8  and  C_9
REMARK    6  A    between atoms: C_12  and  C_13
REMARK                            x       y       z     vdW  Elec       q    Type
REMARK                         _______ _______ _______ _____ _____    ______ ____
ROOT
ATOM      1  N   UNL     1      43.855   4.169  10.322  0.00  0.00    +0.000 N 
ATOM      2  H   UNL     1      42.963   3.676  10.331  0.00  0.00    +0.000 HD
ENDROOT
BRANCH   1   3
ATOM      3  C   UNL     1      44.703   3.628   9.329  0.00  0.00    +0.000 A 
ATOM      4  C   UNL     1      44.960   2.261   9.186  0.00  0.00    +0.000 A 
ATOM      5  C   UNL     1      45.913   1.800   8.267  0.00  0.00    +0.000 A 
ATOM      6  C   UNL     1      46.633   2.703   7.479  0.00  0.00    +0.000 A 
ATOM      7  C   UNL     1      46.399   4.072   7.623  0.00  0.00    +0.000 A 
ATOM      8  C   UNL     1      45.450   4.523   8.546  0.00  0.00    +0.000 A 
BRANCH   6   9
ATOM      9  C   UNL     1      47.662   2.175   6.551  0.00  0.00    +0.000 C 
ATOM     10  N   UNL     1      47.968   2.923   5.446  0.00  0.00    +0.000 N 
ATOM     11  O   UNL     1      48.217   1.098   6.741  0.00  0.00    +0.000 OA
ATOM     12  H   UNL     1      47.387   3.682   5.124  0.00  0.00    +0.000 HD
ATOM     13  H   UNL     1      48.609   2.509   4.781  0.00  0.00    +0.000 HD
ENDBRANCH   6   9
ENDBRANCH   1   3
BRANCH   1  14
ATOM     14  C   UNL     1      44.320   4.486  11.699  0.00  0.00    +0.000 C 
ATOM     15  C   UNL     1      43.716   3.831  12.930  0.00  0.00    +0.000 C 
ATOM     16  C   UNL     1      45.024   3.334  12.405  0.00  0.00    +0.000 C 
BRANCH  14  20
ATOM     17  C   UNL     1      45.790   8.456  12.314  0.00  0.00    +0.000 A 
ATOM     18  C   UNL     1      46.297   7.357  12.966  0.00  0.00    +0.000 A 
ATOM     19  N   UNL     1      45.875   6.096  12.755  0.00  0.00    +0.000 NA
ATOM     20  C   UNL     1      44.868   5.914  11.871  0.00  0.00    +0.000 A 
ATOM     21  N   UNL     1      44.285   6.934  11.198  0.00  0.00    +0.000 NA
ATOM     22  C   UNL     1      44.766   8.176  11.437  0.00  0.00    +0.000 A 
BRANCH  17  24
ATOM     23  C   UNL     1      45.477  10.687  11.652  0.00  0.00    +0.000 C 
ATOM     24  O   UNL     1      46.174   9.751  12.472  0.00  0.00    +0.000 OA
ENDBRANCH  17  24
ENDBRANCH  14  20
ENDBRANCH   1  14
TORSDOF 5
ENDMDL
MODEL 4
REMARK VINA RESULT:    -6.703      2.050      6.796
REMARK INTER + INTRA:          -9.247
REMARK INTER:                  -8.886
REMARK INTRA:                  -0.362
REMARK UNBOUND:                -0.585
REMARK  Name = 
REMARK  6 active torsions:
REMARK  status: ('A' for Active; 'I' for Inactive)
REMARK    1  A    between atoms: C_1  and  O_2
REMARK    2  A    between atoms: O_2  and  C_3
REMARK    3  A    between atoms: C_6  and  C_7
REMARK    4  A    between atoms: C_7  and  N_8
REMARK    5  A    between atoms: N_8  and  C_9
REMARK    6  A    between atoms: C_12  and  C_13
REMARK                            x       y       z     vdW  Elec       q    Type
REMARK                         _______ _______ _______ _____ _____    ______ ____
ROOT
ATOM      1  N   UNL     1      44.578   6.124  10.626  0.00  0.00    +0.000 N 
ATOM      2  H   UNL     1      44.647   6.430   9.657  0.00  0.00    +0.000 HD
ENDROOT
BRANCH   1   3
ATOM      3  C   UNL     1      45.495   6.840  11.431  0.00  0.00    +0.000 A 
ATOM      4  C   UNL     1      46.762   6.362  11.778  0.00  0.00    +0.000 A 
ATOM      5  C   UNL     1      47.570   7.059  12.688  0.00  0.00    +0.000 A 
ATOM      6  C   UNL     1      47.118   8.246  13.273  0.00  0.00    +0.000 A 
ATOM      7  C   UNL     1      45.847   8.726  12.948  0.00  0.00    +0.000 A 
ATOM      8  C   UNL     1      45.046   8.021  12.044  0.00  0.00    +0.000 A 
BRANCH   6   9
ATOM      9  C   UNL     1      47.987   8.929  14.261  0.00  0.00    +0.000 C 
ATOM     10  N   UNL     1      47.512   9.068  15.538  0.00  0.00    +0.000 N 
ATOM     11  O   UNL     1      49.088   9.376  13.959  0.00  0.00    +0.000 OA
ATOM     12  H   UNL     1      46.542   8.934  15.776  0.00  0.00    +0.000 HD
ATOM     13  H   UNL     1      48.081   9.609  16.177  0.00  0.00    +0.000 HD
ENDBRANCH   6   9
ENDBRANCH   1   3
BRANCH   1  14
ATOM     14  C   UNL     1      44.391   4.652  10.725  0.00  0.00    +0.000 C 
ATOM     15  C   UNL     1      44.267   3.938  12.061  0.00  0.00    +0.000 C 
ATOM     16  C   UNL     1      43.032   4.228  11.271  0.00  0.00    +0.000 C 
BRANCH  14  20
ATOM     17  C   UNL     1      46.229   2.393   7.592  0.00  0.00    +0.000 A 
ATOM     18  C   UNL     1      45.674   1.816   8.709  0.00  0.00    +0.000 A 
ATOM     19  N   UNL     1      45.055   2.507   9.685  0.00  0.00    +0.000 NA
ATOM     20  C   UNL     1      45.012   3.853   9.566  0.00  0.00    +0.000 A 
ATOM     21  N   UNL     1      45.552   4.518   8.517  0.00  0.00    +0.000 NA
ATOM     22  C   UNL     1      46.143   3.767   7.558  0.00  0.00    +0.000 A 
BRANCH  17  24
ATOM     23  C   UNL     1      47.426   2.620   5.584  0.00  0.00    +0.000 C 
ATOM     24  O   UNL     1      46.860   1.757   6.568  0.00  0.00    +0.000 OA
ENDBRANCH  17  24
ENDBRANCH  14  20
ENDBRANCH   1  14
TORSDOF 5
ENDMDL
MODEL 5
REMARK VINA RESULT:    -6.251      1.757      6.898
REMARK INTER + INTRA:          -8.663
REMARK INTER:                  -8.459
REMARK INTRA:                  -0.205
REMARK UNBOUND:                -0.585
REMARK  Name = 
REMARK  6 active torsions:
REMARK  status: ('A' for Active; 'I' for Inactive)
REMARK    1  A    between atoms: C_1  and  O_2
REMARK    2  A    between atoms: O_2  and  C_3
REMARK    3  A    between atoms: C_6  and  C_7
REMARK    4  A    between atoms: C_7  and  N_8
REMARK    5  A    between atoms: N_8  and  C_9
REMARK    6  A    between atoms: C_12  and  C_13
REMARK                            x       y       z     vdW  Elec       q    Type
REMARK                         _______ _______ _______ _____ _____    ______ ____
ROOT
ATOM      1  N   UNL     1      45.506   5.879  11.533  0.00  0.00    +0.000 N 
ATOM      2  H   UNL     1      46.075   6.333  10.821  0.00  0.00    +0.000 HD
ENDROOT
BRANCH   1   3
ATOM      3  C   UNL     1      46.279   5.626  12.690  0.00  0.00    +0.000 A 
ATOM      4  C   UNL     1      46.100   4.511  13.515  0.00  0.00    +0.000 A 
ATOM      5  C   UNL     1      46.808   4.386  14.719  0.00  0.00    +0.000 A 
ATOM      6  C   UNL     1      47.705   5.382  15.121  0.00  0.00    +0.000 A 
ATOM      7  C   UNL     1      47.880   6.508  14.314  0.00  0.00    +0.000 A 
ATOM      8  C   UNL     1      47.165   6.627  13.118  0.00  0.00    +0.000 A 
BRANCH   6   9
ATOM      9  C   UNL     1      48.401   5.230  16.421  0.00  0.00    +0.000 C 
ATOM     10  N   UNL     1      47.816   5.789  17.526  0.00  0.00    +0.000 N 
ATOM     11  O   UNL     1      49.473   4.644  16.520  0.00  0.00    +0.000 OA
ATOM     12  H   UNL     1      47.074   6.469  17.465  0.00  0.00    +0.000 HD
ATOM     13  H   UNL     1      48.344   5.749  18.388  0.00  0.00    +0.000 HD
ENDBRANCH   6   9
ENDBRANCH   1   3
BRANCH   1  14
ATOM     14  C   UNL     1      44.583   4.874  10.940  0.00  0.00    +0.000 C 
ATOM     15  C   UNL     1      43.485   4.203  11.749  0.00  0.00    +0.000 C 
ATOM     16  C   UNL     1      43.134   5.335  10.840  0.00  0.00    +0.000 C 
BRANCH  14  20
ATOM     17  C   UNL     1      46.160   2.663   7.635  0.00  0.00    +0.000 A 
ATOM     18  C   UNL     1      46.188   4.036   7.703  0.00  0.00    +0.000 A 
ATOM     19  N   UNL     1      45.734   4.746   8.753  0.00  0.00    +0.000 NA
ATOM     20  C   UNL     1      45.189   4.061   9.783  0.00  0.00    +0.000 A 
ATOM     21  N   UNL     1      45.092   2.710   9.799  0.00  0.00    +0.000 NA
ATOM     22  C   UNL     1      45.584   2.051   8.725  0.00  0.00    +0.000 A 
BRANCH  17  24
ATOM     23  C   UNL     1      47.948   2.147   6.202  0.00  0.00    +0.000 C 
ATOM     24  O   UNL     1      46.608   1.885   6.613  0.00  0.00    +0.000 OA
ENDBRANCH  17  24
ENDBRANCH  14  20
ENDBRANCH   1  14
TORSDOF 5
ENDMDL
MODEL 6
REMARK VINA RESULT:    -5.883      2.344      6.365
REMARK INTER + INTRA:          -8.188
REMARK INTER:                  -8.223
REMARK INTRA:                   0.035
REMARK UNBOUND:                -0.585
REMARK  Name = 
REMARK  6 active torsions:
REMARK  status: ('A' for Active; 'I' for Inactive)
REMARK    1  A    between atoms: C_1  and  O_2
REMARK    2  A    between atoms: O_2  and  C_3
REMARK    3  A    between atoms: C_6  and  C_7
REMARK    4  A    between atoms: C_7  and  N_8
REMARK    5  A    between atoms: N_8  and  C_9
REMARK    6  A    between atoms: C_12  and  C_13
REMARK                            x       y       z     vdW  Elec       q    Type
REMARK                         _______ _______ _______ _____ _____    ______ ____
ROOT
ATOM      1  N   UNL     1      45.450   4.645  12.538  0.00  0.00    +0.000 N 
ATOM      2  H   UNL     1      45.227   4.528  13.525  0.00  0.00    +0.000 HD
ENDROOT
BRANCH   1   3
ATOM      3  C   UNL     1      45.900   5.962  12.290  0.00  0.00    +0.000 A 
ATOM      4  C   UNL     1      47.248   6.315  12.183  0.00  0.00    +0.000 A 
ATOM      5  C   UNL     1      47.634   7.659  12.070  0.00  0.00    +0.000 A 
ATOM      6  C   UNL     1      46.672   8.675  12.069  0.00  0.00    +0.000 A 
ATOM      7  C   UNL     1      45.323   8.337  12.192  0.00  0.00    +0.000 A 
ATOM      8  C   UNL     1      44.948   6.994  12.310  0.00  0.00    +0.000 A 
BRANCH   6   9
ATOM      9  C   UNL     1      47.126  10.084  11.990  0.00  0.00    +0.000 C 
ATOM     10  N   UNL     1      46.258  11.057  12.405  0.00  0.00    +0.000 N 
ATOM     11  O   UNL     1      48.231  10.387  11.553  0.00  0.00    +0.000 OA
ATOM     12  H   UNL     1      45.275  10.886  12.547  0.00  0.00    +0.000 HD
ATOM     13  H   UNL     1      46.551  12.016  12.267  0.00  0.00    +0.000 HD
ENDBRANCH   6   9
ENDBRANCH   1   3
BRANCH   1  14
ATOM     14  C   UNL     1      44.464   3.948  11.667  0.00  0.00    +0.000 C 
ATOM     15  C   UNL     1      43.425   2.990  12.225  0.00  0.00    +0.000 C 
ATOM     16  C   UNL     1      43.020   4.386  11.880  0.00  0.00    +0.000 C 
BRANCH  14  20
ATOM     17  C   UNL     1      45.967   3.142   7.744  0.00  0.00    +0.000 A 
ATOM     18  C   UNL     1      45.586   2.154   8.621  0.00  0.00    +0.000 A 
ATOM     19  N   UNL     1      45.072   2.390   9.844  0.00  0.00    +0.000 NA
ATOM     20  C   UNL     1      44.961   3.679  10.236  0.00  0.00    +0.000 A 
ATOM     21  N   UNL     1      45.333   4.722   9.456  0.00  0.00    +0.000 NA
ATOM     22  C   UNL     1      45.823   4.422   8.231  0.00  0.00    +0.000 A 
BRANCH  17  24
ATOM     23  C   UNL     1      47.780   2.382   6.459  0.00  0.00    +0.000 C 
ATOM     24  O   UNL     1      46.483   2.975   6.497  0.00  0.00    +0.000 OA
ENDBRANCH  17  24
ENDBRANCH  14  20
ENDBRANCH   1  14
TORSDOF 5
ENDMDL
MODEL 7
REMARK VINA RESULT:    -5.766      2.791      4.362
REMARK INTER + INTRA:          -8.037
REMARK INTER:                  -7.925
REMARK INTRA:                  -0.111
REMARK UNBOUND:                -0.585
REMARK  Name = 
REMARK  6 active torsions:
REMARK  status: ('A' for Active; 'I' for Inactive)
REMARK    1  A    between atoms: C_1  and  O_2
REMARK    2  A    between atoms: O_2  and  C_3
REMARK    3  A    between atoms: C_6  and  C_7
REMARK    4  A    between atoms: C_7  and  N_8
REMARK    5  A    between atoms: N_8  and  C_9
REMARK    6  A    between atoms: C_12  and  C_13
REMARK                            x       y       z     vdW  Elec       q    Type
REMARK                         _______ _______ _______ _____ _____    ______ ____
ROOT
ATOM      1  N   UNL     1      46.086   6.333  13.398  0.00  0.00    +0.000 N 
ATOM      2  H   UNL     1      45.493   6.256  14.222  0.00  0.00    +0.000 HD
ENDROOT
BRANCH   1   3
ATOM      3  C   UNL     1      45.609   5.487  12.371  0.00  0.00    +0.000 A 
ATOM      4  C   UNL     1      45.265   4.145  12.566  0.00  0.00    +0.000 A 
ATOM      5  C   UNL     1      44.926   3.325  11.481  0.00  0.00    +0.000 A 
ATOM      6  C   UNL     1      44.931   3.833  10.177  0.00  0.00    +0.000 A 
ATOM      7  C   UNL     1      45.289   5.167   9.967  0.00  0.00    +0.000 A 
ATOM      8  C   UNL     1      45.631   5.976  11.055  0.00  0.00    +0.000 A 
BRANCH   6   9
ATOM      9  C   UNL     1      44.607   2.920   9.055  0.00  0.00    +0.000 C 
ATOM     10  N   UNL     1      44.361   3.478   7.830  0.00  0.00    +0.000 N 
ATOM     11  O   UNL     1      44.539   1.705   9.206  0.00  0.00    +0.000 OA
ATOM     12  H   UNL     1      44.175   4.461   7.707  0.00  0.00    +0.000 HD
ATOM     13  H   UNL     1      44.060   2.849   7.097  0.00  0.00    +0.000 HD
ENDBRANCH   6   9
ENDBRANCH   1   3
BRANCH   1  14
ATOM     14  C   UNL     1      47.525   6.429  13.766  0.00  0.00    +0.000 C 
ATOM     15  C   UNL     1      48.618   6.591  12.723  0.00  0.00    +0.000 C 
ATOM     16  C   UNL     1      48.154   7.789  13.486  0.00  0.00    +0.000 C 
BRANCH  14  20
ATOM     17  C   UNL     1      48.430   4.360  17.398  0.00  0.00    +0.000 A 
ATOM     18  C   UNL     1      47.703   3.799  16.375  0.00  0.00    +0.000 A 
ATOM     19  N   UNL     1      47.444   4.420  15.208  0.00  0.00    +0.000 NA
ATOM     20  C   UNL     1      47.902   5.683  15.058  0.00  0.00    +0.000 A 
ATOM     21  N   UNL     1      48.604   6.332  16.017  0.00  0.00    +0.000 NA
ATOM     22  C   UNL     1      48.850   5.649  17.159  0.00  0.00    +0.000 A 
BRANCH  17  24
ATOM     23  C   UNL     1      49.347   4.665  19.538  0.00  0.00    +0.000 C 
ATOM     24  O   UNL     1      48.735   3.788  18.594  0.00  0.00    +0.000 OA
ENDBRANCH  17  24
ENDBRANCH  14  20
ENDBRANCH   1  14
TORSDOF 5
ENDMDL
MODEL 8
REMARK VINA RESULT:    -5.629      2.007      6.908
REMARK INTER + INTRA:          -7.860
REMARK INTER:                  -7.436
REMARK INTRA:                  -0.424
REMARK UNBOUND:                -0.585
REMARK  Name = 
REMARK  6 active torsions:
REMARK  status: ('A' for Active; 'I' for Inactive)
REMARK    1  A    between atoms: C_1  and  O_2
REMARK    2  A    between atoms: O_2  and  C_3
REMARK    3  A    between atoms: C_6  and  C_7
REMARK    4  A    between atoms: C_7  and  N_8
REMARK    5  A    between atoms: N_8  and  C_9
REMARK    6  A    between atoms: C_12  and  C_13
REMARK                            x       y       z     vdW  Elec       q    Type
REMARK                         _______ _______ _______ _____ _____    ______ ____
ROOT
ATOM      1  N   UNL     1      46.400   6.369  11.850  0.00  0.00    +0.000 N 
ATOM      2  H   UNL     1      47.113   6.440  11.125  0.00  0.00    +0.000 HD
ENDROOT
BRANCH   1   3
ATOM      3  C   UNL     1      46.966   5.873  13.046  0.00  0.00    +0.000 A 
ATOM      4  C   UNL     1      46.626   4.643  13.616  0.00  0.00    +0.000 A 
ATOM      5  C   UNL     1      47.124   4.269  14.872  0.00  0.00    +0.000 A 
ATOM      6  C   UNL     1      47.968   5.126  15.585  0.00  0.00    +0.000 A 
ATOM      7  C   UNL     1      48.304   6.365  15.035  0.00  0.00    +0.000 A 
ATOM      8  C   UNL     1      47.797   6.733  13.783  0.00  0.00    +0.000 A 
BRANCH   6   9
ATOM      9  C   UNL     1      48.438   4.709  16.928  0.00  0.00    +0.000 C 
ATOM     10  N   UNL     1      47.581   4.876  17.982  0.00  0.00    +0.000 N 
ATOM     11  O   UNL     1      49.558   4.246  17.109  0.00  0.00    +0.000 OA
ATOM     12  H   UNL     1      46.758   5.456  17.929  0.00  0.00    +0.000 HD
ATOM     13  H   UNL     1      47.947   4.665  18.902  0.00  0.00    +0.000 HD
ENDBRANCH   6   9
ENDBRANCH   1   3
BRANCH   1  14
ATOM     14  C   UNL     1      45.107   5.879  11.301  0.00  0.00    +0.000 C 
ATOM     15  C   UNL     1      43.838   5.831  12.136  0.00  0.00    +0.000 C 
ATOM     16  C   UNL     1      44.034   6.953  11.170  0.00  0.00    +0.000 C 
BRANCH  14  20
ATOM     17  C   UNL     1      45.599   2.876   8.295  0.00  0.00    +0.000 A 
ATOM     18  C   UNL     1      45.022   2.628   9.518  0.00  0.00    +0.000 A 
ATOM     19  N   UNL     1      44.822   3.570  10.459  0.00  0.00    +0.000 NA
ATOM     20  C   UNL     1      45.248   4.824  10.190  0.00  0.00    +0.000 A 
ATOM     21  N   UNL     1      45.851   5.163   9.026  0.00  0.00    +0.000 NA
ATOM     22  C   UNL     1      46.006   4.178   8.111  0.00  0.00    +0.000 A 
BRANCH  17  24
ATOM     23  C   UNL     1      47.164   1.497   7.215  0.00  0.00    +0.000 C 
ATOM     24  O   UNL     1      45.824   1.978   7.298  0.00  0.00    +0.000 OA
ENDBRANCH  17  24
ENDBRANCH  14  20
ENDBRANCH   1  14
TORSDOF 5
ENDMDL
MODEL 9
REMARK VINA RESULT:    -5.604      3.274      5.076
REMARK INTER + INTRA:          -7.828
REMARK INTER:                  -7.288
REMARK INTRA:                  -0.540
REMARK UNBOUND:                -0.585
REMARK  Name = 
REMARK  6 active torsions:
REMARK  status: ('A' for Active; 'I' for Inactive)
REMARK    1  A    between atoms: C_1  and  O_2
REMARK    2  A    between atoms: O_2  and  C_3
REMARK    3  A    between atoms: C_6  and  C_7
REMARK    4  A    between atoms: C_7  and  N_8
REMARK    5  A    between atoms: N_8  and  C_9
REMARK    6  A    between atoms: C_12  and  C_13
REMARK                            x       y       z     vdW  Elec       q    Type
REMARK                         _______ _______ _______ _____ _____    ______ ____
ROOT
ATOM      1  N   UNL     1      46.752   7.613  12.611  0.00  0.00    +0.000 N 
ATOM      2  H   UNL     1      46.173   8.035  13.335  0.00  0.00    +0.000 HD
ENDROOT
BRANCH   1   3
ATOM      3  C   UNL     1      46.170   6.405  12.162  0.00  0.00    +0.000 A 
ATOM      4  C   UNL     1      45.826   6.156  10.830  0.00  0.00    +0.000 A 
ATOM      5  C   UNL     1      45.132   4.991  10.473  0.00  0.00    +0.000 A 
ATOM      6  C   UNL     1      44.762   4.058  11.447  0.00  0.00    +0.000 A 
ATOM      7  C   UNL     1      45.085   4.303  12.783  0.00  0.00    +0.000 A 
ATOM      8  C   UNL     1      45.774   5.470  13.132  0.00  0.00    +0.000 A 
BRANCH   6   9
ATOM      9  C   UNL     1      43.992   2.862  11.030  0.00  0.00    +0.000 C 
ATOM     10  N   UNL     1      44.432   2.170   9.934  0.00  0.00    +0.000 N 
ATOM     11  O   UNL     1      42.982   2.501  11.625  0.00  0.00    +0.000 OA
ATOM     12  H   UNL     1      45.102   2.549   9.283  0.00  0.00    +0.000 HD
ATOM     13  H   UNL     1      43.848   1.408   9.615  0.00  0.00    +0.000 HD
ENDBRANCH   6   9
ENDBRANCH   1   3
BRANCH   1  14
ATOM     14  C   UNL     1      48.201   7.750  12.917  0.00  0.00    +0.000 C 
ATOM     15  C   UNL     1      49.281   7.339  11.930  0.00  0.00    +0.000 C 
ATOM     16  C   UNL     1      48.928   8.784  12.065  0.00  0.00    +0.000 C 
BRANCH  14  20
ATOM     17  C   UNL     1      49.050   7.347  17.090  0.00  0.00    +0.000 A 
ATOM     18  C   UNL     1      49.215   6.323  16.187  0.00  0.00    +0.000 A 
ATOM     19  N   UNL     1      48.992   6.445  14.865  0.00  0.00    +0.000 NA
ATOM     20  C   UNL     1      48.548   7.638  14.412  0.00  0.00    +0.000 A 
ATOM     21  N   UNL     1      48.329   8.699  15.225  0.00  0.00    +0.000 NA
ATOM     22  C   UNL     1      48.590   8.523  16.541  0.00  0.00    +0.000 A 
BRANCH  17  24
ATOM     23  C   UNL     1      48.477   6.331  19.129  0.00  0.00    +0.000 C 
ATOM     24  O   UNL     1      49.263   7.296  18.433  0.00  0.00    +0.000 OA
ENDBRANCH  17  24
ENDBRANCH  14  20
ENDBRANCH   1  14
TORSDOF 5
ENDMDL
