MODEL 1
REMARK VINA RESULT:    -8.391      0.000      0.000
REMARK INTER + INTRA:         -12.543
REMARK INTER:                 -11.580
REMARK INTRA:                  -0.963
REMARK UNBOUND:                -0.963
REMARK  Name = 
REMARK  7 active torsions:
REMARK  status: ('A' for Active; 'I' for Inactive)
REMARK    1  A    between atoms: C_2  and  C_19
REMARK    2  A    between atoms: N_3  and  C_4
REMARK    3  A    between atoms: C_4  and  C_5
REMARK    4  A    between atoms: C_8  and  C_9
REMARK    5  A    between atoms: C_9  and  C_10
REMARK    6  A    between atoms: C_10  and  N_11
REMARK    7  A    between atoms: C_14  and  O_15
REMARK                            x       y       z     vdW  Elec       q    Type
REMARK                         _______ _______ _______ _____ _____    ______ ____
ROOT
ATOM      1  C   UNL     1      46.214   7.420  12.711  0.00  0.00    +0.000 C 
ENDROOT
BRANCH   1   2
ATOM      2  C   UNL     1      45.704   6.291  11.865  0.00  0.00    +0.000 A 
ATOM      3  C   UNL     1      44.865   5.299  12.374  0.00  0.00    +0.000 A 
ATOM      4  C   UNL     1      44.426   4.268  11.543  0.00  0.00    +0.000 A 
ATOM      5  C   UNL     1      44.814   4.264  10.205  0.00  0.00    +0.000 A 
ATOM      6  N   UNL     1      45.604   5.235   9.685  0.00  0.00    +0.000 NA
ATOM      7  C   UNL     1      46.026   6.217  10.516  0.00  0.00    +0.000 A 
BRANCH   5   8
ATOM      8  C   UNL     1      44.390   3.162   9.260  0.00  0.00    +0.000 C 
BRANCH   8   9
ATOM      9  C   UNL     1      45.492   2.114   9.038  0.00  0.00    +0.000 C 
BRANCH   9  10
ATOM     10  N   UNL     1      46.482   2.490   8.010  0.00  0.00    +0.000 NA
ATOM     11  C   UNL     1      45.906   3.266   6.900  0.00  0.00    +0.000 C 
ATOM     12  C   UNL     1      46.700   2.884   5.649  0.00  0.00    +0.000 C 
ATOM     13  C   UNL     1      47.710   1.851   6.121  0.00  0.00    +0.000 C 
ATOM     14  C   UNL     1      47.080   1.291   7.392  0.00  0.00    +0.000 C 
BRANCH  13  15
ATOM     15  O   UNL     1      48.949   2.495   6.420  0.00  0.00    +0.000 OA
ATOM     16  H   UNL     1      49.424   2.556   5.571  0.00  0.00    +0.000 HD
ENDBRANCH  13  15
ENDBRANCH   9  10
ENDBRANCH   8   9
ENDBRANCH   5   8
ENDBRANCH   1   2
BRANCH   1  19
ATOM     17  O   UNL     1      48.896   6.650  13.039  0.00  0.00    +0.000 OA
ATOM     18  C   UNL     1      48.150   6.627  14.014  0.00  0.00    +0.000 C 
ATOM     19  N   UNL     1      46.816   6.932  13.926  0.00  0.00    +0.000 N 
ATOM     20  H   UNL     1      46.289   7.086  14.779  0.00  0.00    +0.000 HD
BRANCH  18  21
ATOM     21  C   UNL     1      48.630   6.216  15.338  0.00  0.00    +0.000 A 
ATOM     22  C   UNL     1      49.611   6.959  15.981  0.00  0.00    +0.000 A 
ATOM     23  S   UNL     1      50.061   6.326  17.499  0.00  0.00    +0.000 S 
ATOM     24  C   UNL     1      48.926   5.063  17.371  0.00  0.00    +0.000 A 
ATOM     25  N   UNL     1      48.774   4.157  18.373  0.00  0.00    +0.000 NA
ATOM     26  C   UNL     1      47.847   3.278  18.160  0.00  0.00    +0.000 A 
ATOM     27  N   UNL     1      47.071   3.220  17.033  0.00  0.00    +0.000 N 
ATOM     28  C   UNL     1      47.242   4.066  15.967  0.00  0.00    +0.000 A 
ATOM     29  O   UNL     1      46.624   3.902  14.919  0.00  0.00    +0.000 OA
ATOM     30  C   UNL     1      48.235   5.107  16.174  0.00  0.00    +0.000 A 
ATOM     31  H   UNL     1      46.386   2.488  16.917  0.00  0.00    +0.000 HD
ENDBRANCH  18  21
ENDBRANCH   1  19
TORSDOF 7
ENDMDL
MODEL 2
REMARK VINA RESULT:    -7.412      1.827      2.316
REMARK INTER + INTRA:         -11.191
REMARK INTER:                 -10.622
REMARK INTRA:                  -0.569
REMARK UNBOUND:                -0.963
REMARK  Name = 
REMARK  7 active torsions:
REMARK  status: ('A' for Active; 'I' for Inactive)
REMARK    1  A    between atoms: C_2  and  C_19
REMARK    2  A    between atoms: N_3  and  C_4
REMARK    3  A    between atoms: C_4  and  C_5
REMARK    4  A    between atoms: C_8  and  C_9
REMARK    5  A    between atoms: C_9  and  C_10
REMARK    6  A    between atoms: C_10  and  N_11
REMARK    7  A    between atoms: C_14  and  O_15
REMARK                            x       y       z     vdW  Elec       q    Type
REMARK                         _______ _______ _______ _____ _____    ______ ____
ROOT
ATOM      1  C   UNL     1      46.792   6.410  13.448  0.00  0.00    +0.000 C 
ENDROOT
BRANCH   1   2
ATOM      2  C   UNL     1      46.163   5.481  12.453  0.00  0.00    +0.000 A 
ATOM      3  C   UNL     1      45.816   4.168  12.775  0.00  0.00    +0.000 A 
ATOM      4  C   UNL     1      45.239   3.346  11.808  0.00  0.00    +0.000 A 
ATOM      5  C   UNL     1      44.994   3.862  10.537  0.00  0.00    +0.000 A 
ATOM      6  N   UNL     1      45.297   5.143  10.214  0.00  0.00    +0.000 NA
ATOM      7  C   UNL     1      45.867   5.916  11.167  0.00  0.00    +0.000 A 
BRANCH   5   8
ATOM      8  C   UNL     1      44.392   3.014   9.440  0.00  0.00    +0.000 C 
BRANCH   8   9
ATOM      9  C   UNL     1      45.345   1.910   8.954  0.00  0.00    +0.000 C 
BRANCH   9  10
ATOM     10  N   UNL     1      46.367   2.375   7.995  0.00  0.00    +0.000 NA
ATOM     11  C   UNL     1      45.820   3.227   6.927  0.00  0.00    +0.000 C 
ATOM     12  C   UNL     1      46.666   2.951   5.681  0.00  0.00    +0.000 C 
ATOM     13  C   UNL     1      47.672   1.896   6.111  0.00  0.00    +0.000 C 
ATOM     14  C   UNL     1      47.004   1.234   7.311  0.00  0.00    +0.000 C 
BRANCH  13  15
ATOM     15  O   UNL     1      48.890   2.530   6.505  0.00  0.00    +0.000 OA
ATOM     16  H   UNL     1      48.820   3.450   6.188  0.00  0.00    +0.000 HD
ENDBRANCH  13  15
ENDBRANCH   9  10
ENDBRANCH   8   9
ENDBRANCH   5   8
ENDBRANCH   1   2
BRANCH   1  19
ATOM     17  O   UNL     1      48.918   7.067  15.165  0.00  0.00    +0.000 OA
ATOM     18  C   UNL     1      48.179   6.133  15.468  0.00  0.00    +0.000 C 
ATOM     19  N   UNL     1      47.156   5.714  14.657  0.00  0.00    +0.000 N 
ATOM     20  H   UNL     1      46.462   5.075  15.031  0.00  0.00    +0.000 HD
BRANCH  18  21
ATOM     21  C   UNL     1      48.379   5.366  16.701  0.00  0.00    +0.000 A 
ATOM     22  C   UNL     1      48.300   3.980  16.675  0.00  0.00    +0.000 A 
ATOM     23  S   UNL     1      48.539   3.254  18.200  0.00  0.00    +0.000 S 
ATOM     24  C   UNL     1      48.804   4.765  18.939  0.00  0.00    +0.000 A 
ATOM     25  N   UNL     1      49.099   4.852  20.263  0.00  0.00    +0.000 NA
ATOM     26  C   UNL     1      49.318   6.057  20.682  0.00  0.00    +0.000 A 
ATOM     27  N   UNL     1      49.256   7.179  19.899  0.00  0.00    +0.000 N 
ATOM     28  C   UNL     1      48.888   7.145  18.577  0.00  0.00    +0.000 A 
ATOM     29  O   UNL     1      48.711   8.179  17.939  0.00  0.00    +0.000 OA
ATOM     30  C   UNL     1      48.682   5.810  18.041  0.00  0.00    +0.000 A 
ATOM     31  H   UNL     1      49.406   8.094  20.296  0.00  0.00    +0.000 HD
ENDBRANCH  18  21
ENDBRANCH   1  19
TORSDOF 7
ENDMDL
MODEL 3
REMARK VINA RESULT:    -7.327      2.797      3.736
REMARK INTER + INTRA:         -11.073
REMARK INTER:                 -10.050
REMARK INTRA:                  -1.024
REMARK UNBOUND:                -0.963
REMARK  Name = 
REMARK  7 active torsions:
REMARK  status: ('A' for Active; 'I' for Inactive)
REMARK    1  A    between atoms: C_2  and  C_19
REMARK    2  A    between atoms: N_3  and  C_4
REMARK    3  A    between atoms: C_4  and  C_5
REMARK    4  A    between atoms: C_8  and  C_9
REMARK    5  A    between atoms: C_9  and  C_10
REMARK    6  A    between atoms: C_10  and  N_11
REMARK    7  A    between atoms: C_14  and  O_15
REMARK                            x       y       z     vdW  Elec       q    Type
REMARK                         _______ _______ _______ _____ _____    ______ ____
ROOT
ATOM      1  C   UNL     1      46.477   5.918  13.695  0.00  0.00    +0.000 C 
ENDROOT
BRANCH   1   2
ATOM      2  C   UNL     1      45.933   5.158  12.522  0.00  0.00    +0.000 A 
ATOM      3  C   UNL     1      45.727   5.757  11.278  0.00  0.00    +0.000 A 
ATOM      4  C   UNL     1      45.213   5.003  10.222  0.00  0.00    +0.000 A 
ATOM      5  C   UNL     1      44.938   3.653  10.425  0.00  0.00    +0.000 A 
ATOM      6  N   UNL     1      45.159   3.047  11.616  0.00  0.00    +0.000 NA
ATOM      7  C   UNL     1      45.647   3.803  12.628  0.00  0.00    +0.000 A 
BRANCH   5   8
ATOM      8  C   UNL     1      44.358   2.789   9.327  0.00  0.00    +0.000 C 
BRANCH   8   9
ATOM      9  C   UNL     1      45.358   1.748   8.802  0.00  0.00    +0.000 C 
BRANCH   9  10
ATOM     10  N   UNL     1      46.394   2.304   7.909  0.00  0.00    +0.000 NA
ATOM     11  C   UNL     1      45.852   3.189   6.866  0.00  0.00    +0.000 C 
ATOM     12  C   UNL     1      46.753   3.015   5.642  0.00  0.00    +0.000 C 
ATOM     13  C   UNL     1      47.787   1.980   6.055  0.00  0.00    +0.000 C 
ATOM     14  C   UNL     1      47.103   1.228   7.191  0.00  0.00    +0.000 C 
BRANCH  13  15
ATOM     15  O   UNL     1      48.961   2.640   6.528  0.00  0.00    +0.000 OA
ATOM     16  H   UNL     1      48.724   3.584   6.589  0.00  0.00    +0.000 HD
ENDBRANCH  13  15
ENDBRANCH   9  10
ENDBRANCH   8   9
ENDBRANCH   5   8
ENDBRANCH   1   2
BRANCH   1  19
ATOM     17  O   UNL     1      46.898   8.686  13.457  0.00  0.00    +0.000 OA
ATOM     18  C   UNL     1      47.855   7.929  13.324  0.00  0.00    +0.000 C 
ATOM     19  N   UNL     1      47.723   6.564  13.369  0.00  0.00    +0.000 N 
ATOM     20  H   UNL     1      48.557   5.992  13.446  0.00  0.00    +0.000 HD
BRANCH  18  21
ATOM     21  C   UNL     1      49.204   8.436  13.052  0.00  0.00    +0.000 A 
ATOM     22  C   UNL     1      49.412   9.325  12.006  0.00  0.00    +0.000 A 
ATOM     23  S   UNL     1      51.041   9.795  11.824  0.00  0.00    +0.000 S 
ATOM     24  C   UNL     1      51.518   8.863  13.167  0.00  0.00    +0.000 A 
ATOM     25  N   UNL     1      52.813   8.846  13.581  0.00  0.00    +0.000 NA
ATOM     26  C   UNL     1      53.025   8.130  14.637  0.00  0.00    +0.000 A 
ATOM     27  N   UNL     1      52.062   7.422  15.308  0.00  0.00    +0.000 N 
ATOM     28  C   UNL     1      50.759   7.351  14.881  0.00  0.00    +0.000 A 
ATOM     29  O   UNL     1      49.952   6.602  15.425  0.00  0.00    +0.000 OA
ATOM     30  C   UNL     1      50.454   8.180  13.727  0.00  0.00    +0.000 A 
ATOM     31  H   UNL     1      52.301   6.857  16.108  0.00  0.00    +0.000 HD
ENDBRANCH  18  21
ENDBRANCH   1  19
TORSDOF 7
ENDMDL
MODEL 4
REMARK VINA RESULT:    -7.228      1.335      1.723
REMARK INTER + INTRA:         -10.937
REMARK INTER:                  -9.861
REMARK INTRA:                  -1.076
REMARK UNBOUND:                -0.963
REMARK  Name = 
REMARK  7 active torsions:
REMARK  status: ('A' for Active; 'I' for Inactive)
REMARK    1  A    between atoms: C_2  and  C_19
REMARK    2  A    between atoms: N_3  and  C_4
REMARK    3  A    between atoms: C_4  and  C_5
REMARK    4  A    between atoms: C_8  and  C_9
REMARK    5  A    between atoms: C_9  and  C_10
REMARK    6  A    between atoms: C_10  and  N_11
REMARK    7  A    between atoms: C_14  and  O_15
REMARK                            x       y       z     vdW  Elec       q    Type
REMARK                         _______ _______ _______ _____ _____    ______ ____
ROOT
ATOM      1  C   UNL     1      47.659   7.360  13.495  0.00  0.00    +0.000 C 
ENDROOT
BRANCH   1   2
ATOM      2  C   UNL     1      46.804   6.374  12.755  0.00  0.00    +0.000 A 
ATOM      3  C   UNL     1      46.276   5.238  13.370  0.00  0.00    +0.000 A 
ATOM      4  C   UNL     1      45.492   4.351  12.631  0.00  0.00    +0.000 A 
ATOM      5  C   UNL     1      45.229   4.633  11.293  0.00  0.00    +0.000 A 
ATOM      6  N   UNL     1      45.707   5.746  10.687  0.00  0.00    +0.000 NA
ATOM      7  C   UNL     1      46.475   6.584  11.422  0.00  0.00    +0.000 A 
BRANCH   5   8
ATOM      8  C   UNL     1      44.405   3.699  10.434  0.00  0.00    +0.000 C 
BRANCH   8   9
ATOM      9  C   UNL     1      44.312   4.165   8.973  0.00  0.00    +0.000 C 
BRANCH   9  10
ATOM     10  N   UNL     1      45.033   3.301   8.018  0.00  0.00    +0.000 NA
ATOM     11  C   UNL     1      45.309   1.954   8.543  0.00  0.00    +0.000 C 
ATOM     12  C   UNL     1      46.637   1.514   7.924  0.00  0.00    +0.000 C 
ATOM     13  C   UNL     1      47.082   2.687   7.066  0.00  0.00    +0.000 C 
ATOM     14  C   UNL     1      46.349   3.875   7.678  0.00  0.00    +0.000 C 
BRANCH  13  15
ATOM     15  O   UNL     1      46.659   2.480   5.717  0.00  0.00    +0.000 OA
ATOM     16  H   UNL     1      46.635   3.367   5.313  0.00  0.00    +0.000 HD
ENDBRANCH  13  15
ENDBRANCH   9  10
ENDBRANCH   8   9
ENDBRANCH   5   8
ENDBRANCH   1   2
BRANCH   1  19
ATOM     17  O   UNL     1      50.171   7.000  14.701  0.00  0.00    +0.000 OA
ATOM     18  C   UNL     1      49.161   6.831  15.378  0.00  0.00    +0.000 C 
ATOM     19  N   UNL     1      47.899   6.932  14.850  0.00  0.00    +0.000 N 
ATOM     20  H   UNL     1      47.104   6.976  15.480  0.00  0.00    +0.000 HD
BRANCH  18  21
ATOM     21  C   UNL     1      49.239   6.456  16.794  0.00  0.00    +0.000 A 
ATOM     22  C   UNL     1      49.754   7.352  17.720  0.00  0.00    +0.000 A 
ATOM     23  S   UNL     1      49.787   6.742  19.313  0.00  0.00    +0.000 S 
ATOM     24  C   UNL     1      49.070   5.277  18.826  0.00  0.00    +0.000 A 
ATOM     25  N   UNL     1      48.788   4.303  19.731  0.00  0.00    +0.000 NA
ATOM     26  C   UNL     1      48.206   3.261  19.230  0.00  0.00    +0.000 A 
ATOM     27  N   UNL     1      47.893   3.104  17.905  0.00  0.00    +0.000 N 
ATOM     28  C   UNL     1      48.227   4.027  16.947  0.00  0.00    +0.000 A 
ATOM     29  O   UNL     1      48.055   3.797  15.753  0.00  0.00    +0.000 OA
ATOM     30  C   UNL     1      48.836   5.242  17.463  0.00  0.00    +0.000 A 
ATOM     31  H   UNL     1      47.468   2.251  17.574  0.00  0.00    +0.000 HD
ENDBRANCH  18  21
ENDBRANCH   1  19
TORSDOF 7
ENDMDL
MODEL 5
REMARK VINA RESULT:    -7.113      2.043      2.915
REMARK INTER + INTRA:         -10.779
REMARK INTER:                  -9.933
REMARK INTRA:                  -0.846
REMARK UNBOUND:                -0.963
REMARK  Name = 
REMARK  7 active torsions:
REMARK  status: ('A' for Active; 'I' for Inactive)
REMARK    1  A    between atoms: C_2  and  C_19
REMARK    2  A    between atoms: N_3  and  C_4
REMARK    3  A    between atoms: C_4  and  C_5
REMARK    4  A    between atoms: C_8  and  C_9
REMARK    5  A    between atoms: C_9  and  C_10
REMARK    6  A    between atoms: C_10  and  N_11
REMARK    7  A    between atoms: C_14  and  O_15
REMARK                            x       y       z     vdW  Elec       q    Type
REMARK                         _______ _______ _______ _____ _____    ______ ____
ROOT
ATOM      1  C   UNL     1      45.643   4.229  14.811  0.00  0.00    +0.000 C 
ENDROOT
BRANCH   1   2
ATOM      2  C   UNL     1      45.671   4.517  13.339  0.00  0.00    +0.000 A 
ATOM      3  C   UNL     1      46.174   5.713  12.824  0.00  0.00    +0.000 A 
ATOM      4  C   UNL     1      46.171   5.931  11.446  0.00  0.00    +0.000 A 
ATOM      5  C   UNL     1      45.685   4.933  10.603  0.00  0.00    +0.000 A 
ATOM      6  N   UNL     1      45.220   3.754  11.082  0.00  0.00    +0.000 NA
ATOM      7  C   UNL     1      45.224   3.573  12.424  0.00  0.00    +0.000 A 
BRANCH   5   8
ATOM      8  C   UNL     1      45.634   5.118   9.104  0.00  0.00    +0.000 C 
BRANCH   8   9
ATOM      9  C   UNL     1      44.803   4.033   8.400  0.00  0.00    +0.000 C 
BRANCH   9  10
ATOM     10  N   UNL     1      45.586   3.168   7.495  0.00  0.00    +0.000 NA
ATOM     11  C   UNL     1      45.858   1.834   8.054  0.00  0.00    +0.000 C 
ATOM     12  C   UNL     1      47.224   1.409   7.508  0.00  0.00    +0.000 C 
ATOM     13  C   UNL     1      47.690   2.577   6.655  0.00  0.00    +0.000 C 
ATOM     14  C   UNL     1      46.907   3.761   7.212  0.00  0.00    +0.000 C 
BRANCH  13  15
ATOM     15  O   UNL     1      47.338   2.343   5.291  0.00  0.00    +0.000 OA
ATOM     16  H   UNL     1      46.398   2.081   5.305  0.00  0.00    +0.000 HD
ENDBRANCH  13  15
ENDBRANCH   9  10
ENDBRANCH   8   9
ENDBRANCH   5   8
ENDBRANCH   1   2
BRANCH   1  19
ATOM     17  O   UNL     1      46.502   3.340  17.334  0.00  0.00    +0.000 OA
ATOM     18  C   UNL     1      47.277   3.993  16.641  0.00  0.00    +0.000 C 
ATOM     19  N   UNL     1      46.916   4.511  15.424  0.00  0.00    +0.000 N 
ATOM     20  H   UNL     1      47.638   4.872  14.809  0.00  0.00    +0.000 HD
BRANCH  18  21
ATOM     21  C   UNL     1      48.635   4.308  17.098  0.00  0.00    +0.000 A 
ATOM     22  C   UNL     1      48.935   5.587  17.547  0.00  0.00    +0.000 A 
ATOM     23  S   UNL     1      50.562   5.780  18.020  0.00  0.00    +0.000 S 
ATOM     24  C   UNL     1      50.911   4.147  17.686  0.00  0.00    +0.000 A 
ATOM     25  N   UNL     1      52.152   3.639  17.907  0.00  0.00    +0.000 NA
ATOM     26  C   UNL     1      52.264   2.376  17.649  0.00  0.00    +0.000 A 
ATOM     27  N   UNL     1      51.251   1.582  17.180  0.00  0.00    +0.000 N 
ATOM     28  C   UNL     1      50.006   2.069  16.871  0.00  0.00    +0.000 A 
ATOM     29  O   UNL     1      49.163   1.362  16.326  0.00  0.00    +0.000 OA
ATOM     30  C   UNL     1      49.809   3.473  17.191  0.00  0.00    +0.000 A 
ATOM     31  H   UNL     1      51.414   0.609  16.968  0.00  0.00    +0.000 HD
ENDBRANCH  18  21
ENDBRANCH   1  19
TORSDOF 7
ENDMDL
MODEL 6
REMARK VINA RESULT:    -6.981      2.708      3.529
REMARK INTER + INTRA:         -10.596
REMARK INTER:                  -9.617
REMARK INTRA:                  -0.980
REMARK UNBOUND:                -0.963
REMARK  Name = 
REMARK  7 active torsions:
REMARK  status: ('A' for Active; 'I' for Inactive)
REMARK    1  A    between atoms: C_2  and  C_19
REMARK    2  A    between atoms: N_3  and  C_4
REMARK    3  A    between atoms: C_4  and  C_5
REMARK    4  A    between atoms: C_8  and  C_9
REMARK    5  A    between atoms: C_9  and  C_10
REMARK    6  A    between atoms: C_10  and  N_11
REMARK    7  A    between atoms: C_14  and  O_15
REMARK                            x       y       z     vdW  Elec       q    Type
REMARK                         _______ _______ _______ _____ _____    ______ ____
ROOT
ATOM      1  C   UNL     1      48.359   6.639  14.214  0.00  0.00    +0.000 C 
ENDROOT
BRANCH   1   2
ATOM      2  C   UNL     1      47.298   5.947  13.411  0.00  0.00    +0.000 A 
ATOM      3  C   UNL     1      46.773   6.496  12.240  0.00  0.00    +0.000 A 
ATOM      4  C   UNL     1      45.783   5.811  11.536  0.00  0.00    +0.000 A 
ATOM      5  C   UNL     1      45.352   4.571  12.004  0.00  0.00    +0.000 A 
ATOM      6  N   UNL     1      45.871   4.008  13.122  0.00  0.00    +0.000 NA
ATOM      7  C   UNL     1      46.822   4.699  13.793  0.00  0.00    +0.000 A 
BRANCH   5   8
ATOM      8  C   UNL     1      44.266   3.792  11.298  0.00  0.00    +0.000 C 
BRANCH   8   9
ATOM      9  C   UNL     1      43.945   4.352   9.903  0.00  0.00    +0.000 C 
BRANCH   9  10
ATOM     10  N   UNL     1      44.541   3.583   8.793  0.00  0.00    +0.000 NA
ATOM     11  C   UNL     1      44.829   2.183   9.142  0.00  0.00    +0.000 C 
ATOM     12  C   UNL     1      46.076   1.788   8.345  0.00  0.00    +0.000 C 
ATOM     13  C   UNL     1      46.465   3.038   7.575  0.00  0.00    +0.000 C 
ATOM     14  C   UNL     1      45.832   4.167   8.382  0.00  0.00    +0.000 C 
BRANCH  13  15
ATOM     15  O   UNL     1      45.902   2.986   6.263  0.00  0.00    +0.000 OA
ATOM     16  H   UNL     1      45.070   3.491   6.316  0.00  0.00    +0.000 HD
ENDBRANCH  13  15
ENDBRANCH   9  10
ENDBRANCH   8   9
ENDBRANCH   5   8
ENDBRANCH   1   2
BRANCH   1  19
ATOM     17  O   UNL     1      50.321   6.040  16.134  0.00  0.00    +0.000 OA
ATOM     18  C   UNL     1      49.166   6.227  16.507  0.00  0.00    +0.000 C 
ATOM     19  N   UNL     1      48.140   6.467  15.628  0.00  0.00    +0.000 N 
ATOM     20  H   UNL     1      47.253   6.802  15.988  0.00  0.00    +0.000 HD
BRANCH  18  21
ATOM     21  C   UNL     1      48.795   6.151  17.924  0.00  0.00    +0.000 A 
ATOM     22  C   UNL     1      48.999   4.974  18.631  0.00  0.00    +0.000 A 
ATOM     23  S   UNL     1      48.493   5.059  20.258  0.00  0.00    +0.000 S 
ATOM     24  C   UNL     1      48.027   6.688  20.085  0.00  0.00    +0.000 A 
ATOM     25  N   UNL     1      47.527   7.387  21.139  0.00  0.00    +0.000 NA
ATOM     26  C   UNL     1      47.254   8.624  20.877  0.00  0.00    +0.000 A 
ATOM     27  N   UNL     1      47.427   9.220  19.655  0.00  0.00    +0.000 N 
ATOM     28  C   UNL     1      47.856   8.533  18.547  0.00  0.00    +0.000 A 
ATOM     29  O   UNL     1      47.871   9.061  17.438  0.00  0.00    +0.000 OA
ATOM     30  C   UNL     1      48.227   7.151  18.797  0.00  0.00    +0.000 A 
ATOM     31  H   UNL     1      47.164  10.182  19.509  0.00  0.00    +0.000 HD
ENDBRANCH  18  21
ENDBRANCH   1  19
TORSDOF 7
ENDMDL
MODEL 7
REMARK VINA RESULT:    -6.935      3.566      8.265
REMARK INTER + INTRA:         -10.533
REMARK INTER:                  -9.582
REMARK INTRA:                  -0.951
REMARK UNBOUND:                -0.963
REMARK  Name = 
REMARK  7 active torsions:
REMARK  status: ('A' for Active; 'I' for Inactive)
REMARK    1  A    between atoms: C_2  and  C_19
REMARK    2  A    between atoms: N_3  and  C_4
REMARK    3  A    between atoms: C_4  and  C_5
REMARK    4  A    between atoms: C_8  and  C_9
REMARK    5  A    between atoms: C_9  and  C_10
REMARK    6  A    between atoms: C_10  and  N_11
REMARK    7  A    between atoms: C_14  and  O_15
REMARK                            x       y       z     vdW  Elec       q    Type
REMARK                         _______ _______ _______ _____ _____    ______ ____
ROOT
ATOM      1  C   UNL     1      48.310   8.084  12.042  0.00  0.00    +0.000 C 
ENDROOT
BRANCH   1   2
ATOM      2  C   UNL     1      49.078   7.719  13.278  0.00  0.00    +0.000 A 
ATOM      3  C   UNL     1      50.322   8.279  13.573  0.00  0.00    +0.000 A 
ATOM      4  C   UNL     1      50.996   7.898  14.734  0.00  0.00    +0.000 A 
ATOM      5  C   UNL     1      50.398   6.981  15.595  0.00  0.00    +0.000 A 
ATOM      6  N   UNL     1      49.178   6.450  15.341  0.00  0.00    +0.000 NA
ATOM      7  C   UNL     1      48.551   6.826  14.201  0.00  0.00    +0.000 A 
BRANCH   5   8
ATOM      8  C   UNL     1      51.087   6.513  16.856  0.00  0.00    +0.000 C 
BRANCH   8   9
ATOM      9  C   UNL     1      50.138   6.451  18.063  0.00  0.00    +0.000 C 
BRANCH   9  10
ATOM     10  N   UNL     1      49.799   5.081  18.494  0.00  0.00    +0.000 NA
ATOM     11  C   UNL     1      50.511   4.038  17.738  0.00  0.00    +0.000 C 
ATOM     12  C   UNL     1      49.563   2.840  17.658  0.00  0.00    +0.000 C 
ATOM     13  C   UNL     1      48.300   3.285  18.377  0.00  0.00    +0.000 C 
ATOM     14  C   UNL     1      48.363   4.807  18.297  0.00  0.00    +0.000 C 
BRANCH  13  15
ATOM     15  O   UNL     1      48.347   2.854  19.738  0.00  0.00    +0.000 OA
ATOM     16  H   UNL     1      48.728   1.957  19.715  0.00  0.00    +0.000 HD
ENDBRANCH  13  15
ENDBRANCH   9  10
ENDBRANCH   8   9
ENDBRANCH   5   8
ENDBRANCH   1   2
BRANCH   1  19
ATOM     17  O   UNL     1      45.518   7.902  11.781  0.00  0.00    +0.000 OA
ATOM     18  C   UNL     1      46.211   6.968  11.387  0.00  0.00    +0.000 C 
ATOM     19  N   UNL     1      47.575   6.954  11.530  0.00  0.00    +0.000 N 
ATOM     20  H   UNL     1      48.116   6.261  11.024  0.00  0.00    +0.000 HD
BRANCH  18  21
ATOM     21  C   UNL     1      45.616   5.772  10.781  0.00  0.00    +0.000 A 
ATOM     22  C   UNL     1      45.825   5.500   9.436  0.00  0.00    +0.000 A 
ATOM     23  S   UNL     1      45.044   4.082   8.898  0.00  0.00    +0.000 S 
ATOM     24  C   UNL     1      44.438   3.758  10.456  0.00  0.00    +0.000 A 
ATOM     25  N   UNL     1      43.692   2.647  10.698  0.00  0.00    +0.000 NA
ATOM     26  C   UNL     1      43.334   2.505  11.933  0.00  0.00    +0.000 A 
ATOM     27  N   UNL     1      43.645   3.379  12.942  0.00  0.00    +0.000 N 
ATOM     28  C   UNL     1      44.329   4.549  12.728  0.00  0.00    +0.000 A 
ATOM     29  O   UNL     1      44.473   5.374  13.626  0.00  0.00    +0.000 OA
ATOM     30  C   UNL     1      44.801   4.733  11.366  0.00  0.00    +0.000 A 
ATOM     31  H   UNL     1      43.306   3.225  13.879  0.00  0.00    +0.000 HD
ENDBRANCH  18  21
ENDBRANCH   1  19
TORSDOF 7
ENDMDL
MODEL 8
REMARK VINA RESULT:    -6.922      4.527      9.502
REMARK INTER + INTRA:         -10.515
REMARK INTER:                  -9.765
REMARK INTRA:                  -0.750
REMARK UNBOUND:                -0.963
REMARK  Name = 
REMARK  7 active torsions:
REMARK  status: ('A' for Active; 'I' for Inactive)
REMARK    1  A    between atoms: C_2  and  C_19
REMARK    2  A    between atoms: N_3  and  C_4
REMARK    3  A    between atoms: C_4  and  C_5
REMARK    4  A    between atoms: C_8  and  C_9
REMARK    5  A    between atoms: C_9  and  C_10
REMARK    6  A    between atoms: C_10  and  N_11
REMARK    7  A    between atoms: C_14  and  O_15
REMARK                            x       y       z     vdW  Elec       q    Type
REMARK                         _______ _______ _______ _____ _____    ______ ____
ROOT
ATOM      1  C   UNL     1      47.164   3.400  16.919  0.00  0.00    +0.000 C 
ENDROOT
BRANCH   1   2
ATOM      2  C   UNL     1      48.634   3.335  17.210  0.00  0.00    +0.000 A 
ATOM      3  C   UNL     1      49.393   2.192  16.954  0.00  0.00    +0.000 A 
ATOM      4  C   UNL     1      50.757   2.185  17.250  0.00  0.00    +0.000 A 
ATOM      5  C   UNL     1      51.342   3.335  17.775  0.00  0.00    +0.000 A 
ATOM      6  N   UNL     1      50.628   4.463  18.002  0.00  0.00    +0.000 NA
ATOM      7  C   UNL     1      49.304   4.440  17.717  0.00  0.00    +0.000 A 
BRANCH   5   8
ATOM      8  C   UNL     1      52.809   3.382  18.137  0.00  0.00    +0.000 C 
BRANCH   8   9
ATOM      9  C   UNL     1      53.569   2.120  17.698  0.00  0.00    +0.000 C 
BRANCH   9  10
ATOM     10  N   UNL     1      53.955   1.231  18.811  0.00  0.00    +0.000 NA
ATOM     11  C   UNL     1      54.866   1.867  19.777  0.00  0.00    +0.000 C 
ATOM     12  C   UNL     1      55.775   0.755  20.307  0.00  0.00    +0.000 C 
ATOM     13  C   UNL     1      55.338  -0.500  19.570  0.00  0.00    +0.000 C 
ATOM     14  C   UNL     1      54.669   0.041  18.311  0.00  0.00    +0.000 C 
BRANCH  13  15
ATOM     15  O   UNL     1      54.394  -1.218  20.367  0.00  0.00    +0.000 OA
ATOM     16  H   UNL     1      54.724  -2.135  20.398  0.00  0.00    +0.000 HD
ENDBRANCH  13  15
ENDBRANCH   9  10
ENDBRANCH   8   9
ENDBRANCH   5   8
ENDBRANCH   1   2
BRANCH   1  19
ATOM     17  O   UNL     1      47.274   3.040  14.135  0.00  0.00    +0.000 OA
ATOM     18  C   UNL     1      46.899   4.122  14.577  0.00  0.00    +0.000 C 
ATOM     19  N   UNL     1      46.871   4.397  15.920  0.00  0.00    +0.000 N 
ATOM     20  H   UNL     1      46.378   5.223  16.243  0.00  0.00    +0.000 HD
BRANCH  18  21
ATOM     21  C   UNL     1      46.504   5.219  13.687  0.00  0.00    +0.000 A 
ATOM     22  C   UNL     1      47.397   6.246  13.415  0.00  0.00    +0.000 A 
ATOM     23  S   UNL     1      46.764   7.444  12.379  0.00  0.00    +0.000 S 
ATOM     24  C   UNL     1      45.290   6.607  12.221  0.00  0.00    +0.000 A 
ATOM     25  N   UNL     1      44.296   7.088  11.428  0.00  0.00    +0.000 NA
ATOM     26  C   UNL     1      43.249   6.329  11.367  0.00  0.00    +0.000 A 
ATOM     27  N   UNL     1      43.105   5.143  12.037  0.00  0.00    +0.000 N 
ATOM     28  C   UNL     1      44.050   4.659  12.905  0.00  0.00    +0.000 A 
ATOM     29  O   UNL     1      43.834   3.664  13.592  0.00  0.00    +0.000 OA
ATOM     30  C   UNL     1      45.270   5.446  12.971  0.00  0.00    +0.000 A 
ATOM     31  H   UNL     1      42.248   4.615  11.971  0.00  0.00    +0.000 HD
ENDBRANCH  18  21
ENDBRANCH   1  19
TORSDOF 7
ENDMDL
MODEL 9
REMARK VINA RESULT:    -6.816      2.176      3.661
REMARK INTER + INTRA:         -10.369
REMARK INTER:                  -9.343
REMARK INTRA:                  -1.026
REMARK UNBOUND:                -0.963
REMARK  Name = 
REMARK  7 active torsions:
REMARK  status: ('A' for Active; 'I' for Inactive)
REMARK    1  A    between atoms: C_2  and  C_19
REMARK    2  A    between atoms: N_3  and  C_4
REMARK    3  A    between atoms: C_4  and  C_5
REMARK    4  A    between atoms: C_8  and  C_9
REMARK    5  A    between atoms: C_9  and  C_10
REMARK    6  A    between atoms: C_10  and  N_11
REMARK    7  A    between atoms: C_14  and  O_15
REMARK                            x       y       z     vdW  Elec       q    Type
REMARK                         _______ _______ _______ _____ _____    ______ ____
ROOT
ATOM      1  C   UNL     1      46.886   4.420  14.849  0.00  0.00    +0.000 C 
ENDROOT
BRANCH   1   2
ATOM      2  C   UNL     1      46.315   4.471  13.464  0.00  0.00    +0.000 A 
ATOM      3  C   UNL     1      46.322   5.638  12.698  0.00  0.00    +0.000 A 
ATOM      4  C   UNL     1      45.771   5.630  11.416  0.00  0.00    +0.000 A 
ATOM      5  C   UNL     1      45.244   4.443  10.913  0.00  0.00    +0.000 A 
ATOM      6  N   UNL     1      45.254   3.293  11.629  0.00  0.00    +0.000 NA
ATOM      7  C   UNL     1      45.784   3.331  12.874  0.00  0.00    +0.000 A 
BRANCH   5   8
ATOM      8  C   UNL     1      44.612   4.377   9.540  0.00  0.00    +0.000 C 
BRANCH   8   9
ATOM      9  C   UNL     1      44.530   2.942   8.994  0.00  0.00    +0.000 C 
BRANCH   9  10
ATOM     10  N   UNL     1      45.415   2.685   7.841  0.00  0.00    +0.000 NA
ATOM     11  C   UNL     1      46.228   1.468   7.990  0.00  0.00    +0.000 C 
ATOM     12  C   UNL     1      47.551   1.743   7.269  0.00  0.00    +0.000 C 
ATOM     13  C   UNL     1      47.430   3.166   6.750  0.00  0.00    +0.000 C 
ATOM     14  C   UNL     1      46.376   3.789   7.659  0.00  0.00    +0.000 C 
BRANCH  13  15
ATOM     15  O   UNL     1      46.973   3.144   5.397  0.00  0.00    +0.000 OA
ATOM     16  H   UNL     1      47.092   4.054   5.066  0.00  0.00    +0.000 HD
ENDBRANCH  13  15
ENDBRANCH   9  10
ENDBRANCH   8   9
ENDBRANCH   5   8
ENDBRANCH   1   2
BRANCH   1  19
ATOM     17  O   UNL     1      48.992   4.746  16.681  0.00  0.00    +0.000 OA
ATOM     18  C   UNL     1      48.585   5.728  16.066  0.00  0.00    +0.000 C 
ATOM     19  N   UNL     1      47.525   5.664  15.198  0.00  0.00    +0.000 N 
ATOM     20  H   UNL     1      47.351   6.446  14.576  0.00  0.00    +0.000 HD
BRANCH  18  21
ATOM     21  C   UNL     1      49.178   7.055  16.263  0.00  0.00    +0.000 A 
ATOM     22  C   UNL     1      49.212   7.617  17.531  0.00  0.00    +0.000 A 
ATOM     23  S   UNL     1      49.918   9.170  17.570  0.00  0.00    +0.000 S 
ATOM     24  C   UNL     1      50.244   9.124  15.900  0.00  0.00    +0.000 A 
ATOM     25  N   UNL     1      50.878  10.157  15.284  0.00  0.00    +0.000 NA
ATOM     26  C   UNL     1      51.099   9.970  14.022  0.00  0.00    +0.000 A 
ATOM     27  N   UNL     1      50.732   8.851  13.323  0.00  0.00    +0.000 N 
ATOM     28  C   UNL     1      50.023   7.820  13.887  0.00  0.00    +0.000 A 
ATOM     29  O   UNL     1      49.592   6.896  13.203  0.00  0.00    +0.000 OA
ATOM     30  C   UNL     1      49.794   7.954  15.316  0.00  0.00    +0.000 A 
ATOM     31  H   UNL     1      50.906   8.783  12.332  0.00  0.00    +0.000 HD
ENDBRANCH  18  21
ENDBRANCH   1  19
TORSDOF 7
ENDMDL
