MODEL 1
REMARK VINA RESULT:    -9.607      0.000      0.000
REMARK INTER + INTRA:         -13.419
REMARK INTER:                 -12.415
REMARK INTRA:                  -1.004
REMARK UNBOUND:                -1.004
REMARK  Name = 
REMARK  5 active torsions:
REMARK  status: ('A' for Active; 'I' for Inactive)
REMARK    1  A    between atoms: C_2  and  C_4
REMARK    2  A    between atoms: N_8  and  C_9
REMARK    3  A    between atoms: C_9  and  C_10
REMARK    4  A    between atoms: C_10  and  C_13
REMARK    5  A    between atoms: C_15  and  C_16
REMARK                            x       y       z     vdW  Elec       q    Type
REMARK                         _______ _______ _______ _____ _____    ______ ____
ROOT
ATOM      1  C   UNL     1      43.632   5.472  12.091  0.00  0.00    +0.000 C 
ATOM      2  F   UNL     1      43.008   6.605  11.640  0.00  0.00    +0.000 F 
ATOM      3  F   UNL     1      42.937   5.111  13.217  0.00  0.00    +0.000 F 
ENDROOT
BRANCH   1   4
ATOM      4  C   UNL     1      45.106   5.724  12.402  0.00  0.00    +0.000 A 
ATOM      5  C   UNL     1      45.628   5.284  13.621  0.00  0.00    +0.000 A 
ATOM      6  C   UNL     1      46.974   5.516  13.950  0.00  0.00    +0.000 A 
ATOM      7  C   UNL     1      47.747   6.204  13.006  0.00  0.00    +0.000 A 
ATOM      8  C   UNL     1      47.160   6.624  11.823  0.00  0.00    +0.000 A 
ATOM      9  N   UNL     1      45.867   6.405  11.504  0.00  0.00    +0.000 NA
BRANCH   6  10
ATOM     10  C   UNL     1      47.538   5.068  15.244  0.00  0.00    +0.000 A 
ATOM     11  C   UNL     1      48.572   5.776  15.877  0.00  0.00    +0.000 A 
ATOM     12  C   UNL     1      49.102   5.298  17.068  0.00  0.00    +0.000 A 
ATOM     13  N   UNL     1      48.670   4.183  17.686  0.00  0.00    +0.000 NA
ATOM     14  C   UNL     1      47.668   3.519  17.082  0.00  0.00    +0.000 A 
ATOM     15  F   UNL     1      47.219   2.402  17.672  0.00  0.00    +0.000 F 
ATOM     16  C   UNL     1      47.084   3.911  15.888  0.00  0.00    +0.000 A 
ENDBRANCH   6  10
ENDBRANCH   1   4
BRANCH   1  17
ATOM     17  C   UNL     1      43.458   4.364  11.029  0.00  0.00    +0.000 C 
BRANCH  17  22
ATOM     18  C   UNL     1      46.427   2.322   7.709  0.00  0.00    +0.000 A 
ATOM     19  C   UNL     1      45.521   1.852   8.627  0.00  0.00    +0.000 A 
ATOM     20  N   UNL     1      44.648   2.643   9.281  0.00  0.00    +0.000 NA
ATOM     21  C   UNL     1      44.687   3.960   9.017  0.00  0.00    +0.000 A 
ATOM     22  N   UNL     1      43.799   4.806   9.662  0.00  0.00    +0.000 N 
ATOM     23  N   UNL     1      45.548   4.518   8.157  0.00  0.00    +0.000 NA
ATOM     24  C   UNL     1      46.408   3.684   7.520  0.00  0.00    +0.000 A 
ATOM     25  H   UNL     1      44.157   5.752   9.584  0.00  0.00    +0.000 HD
BRANCH  18  27
ATOM     26  N   UNL     1      48.528   2.033   6.535  0.00  0.00    +0.000 N 
ATOM     27  C   UNL     1      47.374   1.459   6.999  0.00  0.00    +0.000 C 
ATOM     28  O   UNL     1      47.154   0.265   6.848  0.00  0.00    +0.000 OA
ATOM     29  H   UNL     1      49.211   1.404   6.127  0.00  0.00    +0.000 HD
ATOM     30  H   UNL     1      48.867   2.932   6.852  0.00  0.00    +0.000 HD
ENDBRANCH  18  27
ENDBRANCH  17  22
ENDBRANCH   1  17
TORSDOF 5
ENDMDL
MODEL 2
REMARK VINA RESULT:    -9.517      2.322      3.722
REMARK INTER + INTRA:         -13.303
REMARK INTER:                 -12.428
REMARK INTRA:                  -0.875
REMARK UNBOUND:                -1.004
REMARK  Name = 
REMARK  5 active torsions:
REMARK  status: ('A' for Active; 'I' for Inactive)
REMARK    1  A    between atoms: C_2  and  C_4
REMARK    2  A    between atoms: N_8  and  C_9
REMARK    3  A    between atoms: C_9  and  C_10
REMARK    4  A    between atoms: C_10  and  C_13
REMARK    5  A    between atoms: C_15  and  C_16
REMARK                            x       y       z     vdW  Elec       q    Type
REMARK                         _______ _______ _______ _____ _____    ______ ____
ROOT
ATOM      1  C   UNL     1      43.509   5.177  12.290  0.00  0.00    +0.000 C 
ATOM      2  F   UNL     1      43.027   6.378  11.838  0.00  0.00    +0.000 F 
ATOM      3  F   UNL     1      42.645   4.802  13.287  0.00  0.00    +0.000 F 
ENDROOT
BRANCH   1   4
ATOM      4  C   UNL     1      44.939   5.303  12.809  0.00  0.00    +0.000 A 
ATOM      5  C   UNL     1      45.725   6.376  12.381  0.00  0.00    +0.000 A 
ATOM      6  C   UNL     1      47.052   6.514  12.822  0.00  0.00    +0.000 A 
ATOM      7  C   UNL     1      47.535   5.530  13.695  0.00  0.00    +0.000 A 
ATOM      8  C   UNL     1      46.704   4.486  14.067  0.00  0.00    +0.000 A 
ATOM      9  N   UNL     1      45.430   4.349  13.645  0.00  0.00    +0.000 NA
BRANCH   6  10
ATOM     10  C   UNL     1      47.902   7.638  12.365  0.00  0.00    +0.000 A 
ATOM     11  C   UNL     1      47.388   8.938  12.237  0.00  0.00    +0.000 A 
ATOM     12  C   UNL     1      48.207   9.955  11.763  0.00  0.00    +0.000 A 
ATOM     13  N   UNL     1      49.497   9.782  11.424  0.00  0.00    +0.000 NA
ATOM     14  C   UNL     1      49.986   8.536  11.563  0.00  0.00    +0.000 A 
ATOM     15  F   UNL     1      51.269   8.331  11.230  0.00  0.00    +0.000 F 
ATOM     16  C   UNL     1      49.245   7.456  12.017  0.00  0.00    +0.000 A 
ENDBRANCH   6  10
ENDBRANCH   1   4
BRANCH   1  17
ATOM     17  C   UNL     1      43.411   4.150  11.141  0.00  0.00    +0.000 C 
BRANCH  17  22
ATOM     18  C   UNL     1      46.468   2.526   7.674  0.00  0.00    +0.000 A 
ATOM     19  C   UNL     1      45.584   1.941   8.545  0.00  0.00    +0.000 A 
ATOM     20  N   UNL     1      44.676   2.635   9.259  0.00  0.00    +0.000 NA
ATOM     21  C   UNL     1      44.657   3.970   9.108  0.00  0.00    +0.000 A 
ATOM     22  N   UNL     1      43.733   4.719   9.817  0.00  0.00    +0.000 N 
ATOM     23  N   UNL     1      45.495   4.636   8.301  0.00  0.00    +0.000 NA
ATOM     24  C   UNL     1      46.390   3.897   7.600  0.00  0.00    +0.000 A 
ATOM     25  H   UNL     1      44.049   5.684   9.821  0.00  0.00    +0.000 HD
BRANCH  18  27
ATOM     26  N   UNL     1      48.526   2.454   6.394  0.00  0.00    +0.000 N 
ATOM     27  C   UNL     1      47.453   1.768   6.898  0.00  0.00    +0.000 C 
ATOM     28  O   UNL     1      47.334   0.561   6.728  0.00  0.00    +0.000 OA
ATOM     29  H   UNL     1      49.242   1.899   5.938  0.00  0.00    +0.000 HD
ATOM     30  H   UNL     1      48.797   3.373   6.716  0.00  0.00    +0.000 HD
ENDBRANCH  18  27
ENDBRANCH  17  22
ENDBRANCH   1  17
TORSDOF 5
ENDMDL
MODEL 3
REMARK VINA RESULT:    -8.482      2.798      3.417
REMARK INTER + INTRA:         -11.965
REMARK INTER:                 -10.931
REMARK INTRA:                  -1.034
REMARK UNBOUND:                -1.004
REMARK  Name = 
REMARK  5 active torsions:
REMARK  status: ('A' for Active; 'I' for Inactive)
REMARK    1  A    between atoms: C_2  and  C_4
REMARK    2  A    between atoms: N_8  and  C_9
REMARK    3  A    between atoms: C_9  and  C_10
REMARK    4  A    between atoms: C_10  and  C_13
REMARK    5  A    between atoms: C_15  and  C_16
REMARK                            x       y       z     vdW  Elec       q    Type
REMARK                         _______ _______ _______ _____ _____    ______ ____
ROOT
ATOM      1  C   UNL     1      43.749   4.910  12.466  0.00  0.00    +0.000 C 
ATOM      2  F   UNL     1      42.635   5.054  13.251  0.00  0.00    +0.000 F 
ATOM      3  F   UNL     1      44.622   4.175  13.225  0.00  0.00    +0.000 F 
ENDROOT
BRANCH   1   4
ATOM      4  C   UNL     1      44.345   6.261  12.079  0.00  0.00    +0.000 A 
ATOM      5  C   UNL     1      45.681   6.528  12.391  0.00  0.00    +0.000 A 
ATOM      6  C   UNL     1      46.259   7.768  12.068  0.00  0.00    +0.000 A 
ATOM      7  C   UNL     1      45.434   8.704  11.433  0.00  0.00    +0.000 A 
ATOM      8  C   UNL     1      44.114   8.377  11.167  0.00  0.00    +0.000 A 
ATOM      9  N   UNL     1      43.555   7.189  11.476  0.00  0.00    +0.000 NA
BRANCH   6  10
ATOM     10  C   UNL     1      47.669   8.069  12.406  0.00  0.00    +0.000 A 
ATOM     11  C   UNL     1      48.730   7.566  11.637  0.00  0.00    +0.000 A 
ATOM     12  C   UNL     1      50.039   7.836  12.014  0.00  0.00    +0.000 A 
ATOM     13  N   UNL     1      50.372   8.582  13.083  0.00  0.00    +0.000 NA
ATOM     14  C   UNL     1      49.349   9.074  13.806  0.00  0.00    +0.000 A 
ATOM     15  F   UNL     1      49.650   9.819  14.880  0.00  0.00    +0.000 F 
ATOM     16  C   UNL     1      48.013   8.850  13.516  0.00  0.00    +0.000 A 
ENDBRANCH   6  10
ENDBRANCH   1   4
BRANCH   1  17
ATOM     17  C   UNL     1      43.363   4.082  11.220  0.00  0.00    +0.000 C 
BRANCH  17  22
ATOM     18  C   UNL     1      46.421   2.598   7.692  0.00  0.00    +0.000 A 
ATOM     19  C   UNL     1      45.499   1.986   8.504  0.00  0.00    +0.000 A 
ATOM     20  N   UNL     1      44.605   2.661   9.252  0.00  0.00    +0.000 NA
ATOM     21  C   UNL     1      44.640   4.003   9.199  0.00  0.00    +0.000 A 
ATOM     22  N   UNL     1      43.731   4.734   9.947  0.00  0.00    +0.000 N 
ATOM     23  N   UNL     1      45.517   4.693   8.457  0.00  0.00    +0.000 NA
ATOM     24  C   UNL     1      46.396   3.973   7.718  0.00  0.00    +0.000 A 
ATOM     25  H   UNL     1      44.083   5.682  10.027  0.00  0.00    +0.000 HD
BRANCH  18  27
ATOM     26  N   UNL     1      48.505   2.536   6.455  0.00  0.00    +0.000 N 
ATOM     27  C   UNL     1      47.391   1.861   6.878  0.00  0.00    +0.000 C 
ATOM     28  O   UNL     1      47.224   0.678   6.607  0.00  0.00    +0.000 OA
ATOM     29  H   UNL     1      49.207   1.987   5.970  0.00  0.00    +0.000 HD
ATOM     30  H   UNL     1      48.809   3.412   6.857  0.00  0.00    +0.000 HD
ENDBRANCH  18  27
ENDBRANCH  17  22
ENDBRANCH   1  17
TORSDOF 5
ENDMDL
MODEL 4
REMARK VINA RESULT:    -8.257      3.430      8.139
REMARK INTER + INTRA:         -11.674
REMARK INTER:                 -10.779
REMARK INTRA:                  -0.895
REMARK UNBOUND:                -1.004
REMARK  Name = 
REMARK  5 active torsions:
REMARK  status: ('A' for Active; 'I' for Inactive)
REMARK    1  A    between atoms: C_2  and  C_4
REMARK    2  A    between atoms: N_8  and  C_9
REMARK    3  A    between atoms: C_9  and  C_10
REMARK    4  A    between atoms: C_10  and  C_13
REMARK    5  A    between atoms: C_15  and  C_16
REMARK                            x       y       z     vdW  Elec       q    Type
REMARK                         _______ _______ _______ _____ _____    ______ ____
ROOT
ATOM      1  C   UNL     1      45.428   6.075  12.109  0.00  0.00    +0.000 C 
ATOM      2  F   UNL     1      44.408   6.778  12.695  0.00  0.00    +0.000 F 
ATOM      3  F   UNL     1      45.965   6.935  11.186  0.00  0.00    +0.000 F 
ENDROOT
BRANCH   1   4
ATOM      4  C   UNL     1      44.925   4.792  11.451  0.00  0.00    +0.000 A 
ATOM      5  C   UNL     1      45.570   4.319  10.305  0.00  0.00    +0.000 A 
ATOM      6  C   UNL     1      45.123   3.153   9.661  0.00  0.00    +0.000 A 
ATOM      7  C   UNL     1      44.012   2.508  10.219  0.00  0.00    +0.000 A 
ATOM      8  C   UNL     1      43.413   3.041  11.349  0.00  0.00    +0.000 A 
ATOM      9  N   UNL     1      43.838   4.161  11.970  0.00  0.00    +0.000 NA
BRANCH   6  10
ATOM     10  C   UNL     1      45.787   2.648   8.437  0.00  0.00    +0.000 A 
ATOM     11  C   UNL     1      46.239   1.322   8.344  0.00  0.00    +0.000 A 
ATOM     12  C   UNL     1      46.896   0.901   7.195  0.00  0.00    +0.000 A 
ATOM     13  N   UNL     1      47.122   1.690   6.129  0.00  0.00    +0.000 NA
ATOM     14  C   UNL     1      46.673   2.955   6.221  0.00  0.00    +0.000 A 
ATOM     15  F   UNL     1      46.886   3.766   5.174  0.00  0.00    +0.000 F 
ATOM     16  C   UNL     1      46.016   3.469   7.328  0.00  0.00    +0.000 A 
ENDBRANCH   6  10
ENDBRANCH   1   4
BRANCH   1  17
ATOM     17  C   UNL     1      46.496   5.780  13.185  0.00  0.00    +0.000 C 
BRANCH  17  22
ATOM     18  C   UNL     1      48.840   3.858  17.035  0.00  0.00    +0.000 A 
ATOM     19  C   UNL     1      48.405   5.112  16.685  0.00  0.00    +0.000 A 
ATOM     20  N   UNL     1      47.569   5.347  15.654  0.00  0.00    +0.000 NA
ATOM     21  C   UNL     1      47.161   4.289  14.934  0.00  0.00    +0.000 A 
ATOM     22  N   UNL     1      46.294   4.488  13.871  0.00  0.00    +0.000 N 
ATOM     23  N   UNL     1      47.548   3.030  15.180  0.00  0.00    +0.000 NA
ATOM     24  C   UNL     1      48.388   2.840  16.229  0.00  0.00    +0.000 A 
ATOM     25  H   UNL     1      46.335   3.665  13.278  0.00  0.00    +0.000 HD
BRANCH  18  27
ATOM     26  N   UNL     1      50.587   2.527  18.063  0.00  0.00    +0.000 N 
ATOM     27  C   UNL     1      49.748   3.606  18.157  0.00  0.00    +0.000 C 
ATOM     28  O   UNL     1      49.772   4.346  19.132  0.00  0.00    +0.000 OA
ATOM     29  H   UNL     1      51.269   2.422  18.806  0.00  0.00    +0.000 HD
ATOM     30  H   UNL     1      50.782   2.051  17.192  0.00  0.00    +0.000 HD
ENDBRANCH  18  27
ENDBRANCH  17  22
ENDBRANCH   1  17
TORSDOF 5
ENDMDL
MODEL 5
REMARK VINA RESULT:    -7.661      3.608      7.851
REMARK INTER + INTRA:         -10.904
REMARK INTER:                 -10.082
REMARK INTRA:                  -0.821
REMARK UNBOUND:                -1.004
REMARK  Name = 
REMARK  5 active torsions:
REMARK  status: ('A' for Active; 'I' for Inactive)
REMARK    1  A    between atoms: C_2  and  C_4
REMARK    2  A    between atoms: N_8  and  C_9
REMARK    3  A    between atoms: C_9  and  C_10
REMARK    4  A    between atoms: C_10  and  C_13
REMARK    5  A    between atoms: C_15  and  C_16
REMARK                            x       y       z     vdW  Elec       q    Type
REMARK                         _______ _______ _______ _____ _____    ______ ____
ROOT
ATOM      1  C   UNL     1      48.755   8.052  12.443  0.00  0.00    +0.000 C 
ATOM      2  F   UNL     1      49.253   9.123  11.749  0.00  0.00    +0.000 F 
ATOM      3  F   UNL     1      49.545   6.994  12.074  0.00  0.00    +0.000 F 
ENDROOT
BRANCH   1   4
ATOM      4  C   UNL     1      47.287   7.796  12.110  0.00  0.00    +0.000 A 
ATOM      5  C   UNL     1      46.937   6.615  11.449  0.00  0.00    +0.000 A 
ATOM      6  C   UNL     1      45.599   6.354  11.108  0.00  0.00    +0.000 A 
ATOM      7  C   UNL     1      44.655   7.328  11.457  0.00  0.00    +0.000 A 
ATOM      8  C   UNL     1      45.075   8.482  12.100  0.00  0.00    +0.000 A 
ATOM      9  N   UNL     1      46.359   8.737  12.427  0.00  0.00    +0.000 NA
BRANCH   6  10
ATOM     10  C   UNL     1      45.216   5.114  10.393  0.00  0.00    +0.000 A 
ATOM     11  C   UNL     1      44.506   4.089  11.037  0.00  0.00    +0.000 A 
ATOM     12  C   UNL     1      44.204   2.924  10.344  0.00  0.00    +0.000 A 
ATOM     13  N   UNL     1      44.538   2.709   9.059  0.00  0.00    +0.000 NA
ATOM     14  C   UNL     1      45.205   3.703   8.444  0.00  0.00    +0.000 A 
ATOM     15  F   UNL     1      45.554   3.517   7.162  0.00  0.00    +0.000 F 
ATOM     16  C   UNL     1      45.560   4.896   9.054  0.00  0.00    +0.000 A 
ENDBRANCH   6  10
ENDBRANCH   1   4
BRANCH   1  17
ATOM     17  C   UNL     1      48.957   8.313  13.952  0.00  0.00    +0.000 C 
BRANCH  17  22
ATOM     18  C   UNL     1      48.235   4.480  16.918  0.00  0.00    +0.000 A 
ATOM     19  C   UNL     1      47.606   4.986  15.807  0.00  0.00    +0.000 A 
ATOM     20  N   UNL     1      48.140   5.942  15.022  0.00  0.00    +0.000 NA
ATOM     21  C   UNL     1      49.347   6.424  15.365  0.00  0.00    +0.000 A 
ATOM     22  N   UNL     1      49.934   7.401  14.579  0.00  0.00    +0.000 N 
ATOM     23  N   UNL     1      50.029   6.013  16.443  0.00  0.00    +0.000 NA
ATOM     24  C   UNL     1      49.454   5.048  17.203  0.00  0.00    +0.000 A 
ATOM     25  H   UNL     1      50.661   7.848  15.128  0.00  0.00    +0.000 HD
BRANCH  18  27
ATOM     26  N   UNL     1      48.340   3.086  18.898  0.00  0.00    +0.000 N 
ATOM     27  C   UNL     1      47.651   3.440  17.768  0.00  0.00    +0.000 C 
ATOM     28  O   UNL     1      46.576   2.924  17.492  0.00  0.00    +0.000 OA
ATOM     29  H   UNL     1      47.879   2.431  19.520  0.00  0.00    +0.000 HD
ATOM     30  H   UNL     1      49.081   3.649  19.295  0.00  0.00    +0.000 HD
ENDBRANCH  18  27
ENDBRANCH  17  22
ENDBRANCH   1  17
TORSDOF 5
ENDMDL
MODEL 6
REMARK VINA RESULT:    -6.890      3.888      8.150
REMARK INTER + INTRA:          -9.908
REMARK INTER:                  -9.297
REMARK INTRA:                  -0.611
REMARK UNBOUND:                -1.004
REMARK  Name = 
REMARK  5 active torsions:
REMARK  status: ('A' for Active; 'I' for Inactive)
REMARK    1  A    between atoms: C_2  and  C_4
REMARK    2  A    between atoms: N_8  and  C_9
REMARK    3  A    between atoms: C_9  and  C_10
REMARK    4  A    between atoms: C_10  and  C_13
REMARK    5  A    between atoms: C_15  and  C_16
REMARK                            x       y       z     vdW  Elec       q    Type
REMARK                         _______ _______ _______ _____ _____    ______ ____
ROOT
ATOM      1  C   UNL     1      45.778   7.569  12.220  0.00  0.00    +0.000 C 
ATOM      2  F   UNL     1      45.156   8.191  13.271  0.00  0.00    +0.000 F 
ATOM      3  F   UNL     1      45.949   8.553  11.280  0.00  0.00    +0.000 F 
ENDROOT
BRANCH   1   4
ATOM      4  C   UNL     1      44.942   6.414  11.674  0.00  0.00    +0.000 A 
ATOM      5  C   UNL     1      45.493   5.579  10.698  0.00  0.00    +0.000 A 
ATOM      6  C   UNL     1      44.746   4.518  10.158  0.00  0.00    +0.000 A 
ATOM      7  C   UNL     1      43.442   4.351  10.640  0.00  0.00    +0.000 A 
ATOM      8  C   UNL     1      42.955   5.226  11.599  0.00  0.00    +0.000 A 
ATOM      9  N   UNL     1      43.668   6.247  12.120  0.00  0.00    +0.000 NA
BRANCH   6  10
ATOM     10  C   UNL     1      45.312   3.635   9.112  0.00  0.00    +0.000 A 
ATOM     11  C   UNL     1      45.360   2.242   9.279  0.00  0.00    +0.000 A 
ATOM     12  C   UNL     1      45.938   1.453   8.293  0.00  0.00    +0.000 A 
ATOM     13  N   UNL     1      46.455   1.940   7.150  0.00  0.00    +0.000 NA
ATOM     14  C   UNL     1      46.391   3.275   6.991  0.00  0.00    +0.000 A 
ATOM     15  F   UNL     1      46.901   3.791   5.863  0.00  0.00    +0.000 F 
ATOM     16  C   UNL     1      45.844   4.144   7.922  0.00  0.00    +0.000 A 
ENDBRANCH   6  10
ENDBRANCH   1   4
BRANCH   1  17
ATOM     17  C   UNL     1      47.168   7.090  12.691  0.00  0.00    +0.000 C 
BRANCH  17  22
ATOM     18  C   UNL     1      51.060   7.123  15.668  0.00  0.00    +0.000 A 
ATOM     19  C   UNL     1      50.653   7.864  14.587  0.00  0.00    +0.000 A 
ATOM     20  N   UNL     1      49.411   7.803  14.069  0.00  0.00    +0.000 NA
ATOM     21  C   UNL     1      48.540   6.957  14.646  0.00  0.00    +0.000 A 
ATOM     22  N   UNL     1      47.250   6.871  14.149  0.00  0.00    +0.000 N 
ATOM     23  N   UNL     1      48.848   6.174  15.689  0.00  0.00    +0.000 NA
ATOM     24  C   UNL     1      50.109   6.270  16.178  0.00  0.00    +0.000 A 
ATOM     25  H   UNL     1      46.843   6.004  14.485  0.00  0.00    +0.000 HD
BRANCH  18  27
ATOM     26  N   UNL     1      53.435   6.675  15.479  0.00  0.00    +0.000 N 
ATOM     27  C   UNL     1      52.412   7.192  16.228  0.00  0.00    +0.000 C 
ATOM     28  O   UNL     1      52.621   7.715  17.316  0.00  0.00    +0.000 OA
ATOM     29  H   UNL     1      54.372   6.813  15.842  0.00  0.00    +0.000 HD
ATOM     30  H   UNL     1      53.353   6.473  14.492  0.00  0.00    +0.000 HD
ENDBRANCH  18  27
ENDBRANCH  17  22
ENDBRANCH   1  17
TORSDOF 5
ENDMDL
MODEL 7
REMARK VINA RESULT:    -6.791      3.796      7.664
REMARK INTER + INTRA:          -9.780
REMARK INTER:                  -9.080
REMARK INTRA:                  -0.700
REMARK UNBOUND:                -1.004
REMARK  Name = 
REMARK  5 active torsions:
REMARK  status: ('A' for Active; 'I' for Inactive)
REMARK    1  A    between atoms: C_2  and  C_4
REMARK    2  A    between atoms: N_8  and  C_9
REMARK    3  A    between atoms: C_9  and  C_10
REMARK    4  A    between atoms: C_10  and  C_13
REMARK    5  A    between atoms: C_15  and  C_16
REMARK                            x       y       z     vdW  Elec       q    Type
REMARK                         _______ _______ _______ _____ _____    ______ ____
ROOT
ATOM      1  C   UNL     1      45.133   5.795  12.551  0.00  0.00    +0.000 C 
ATOM      2  F   UNL     1      45.908   5.491  13.639  0.00  0.00    +0.000 F 
ATOM      3  F   UNL     1      44.053   6.467  13.064  0.00  0.00    +0.000 F 
ENDROOT
BRANCH   1   4
ATOM      4  C   UNL     1      44.702   4.539  11.797  0.00  0.00    +0.000 A 
ATOM      5  C   UNL     1      45.368   4.194  10.617  0.00  0.00    +0.000 A 
ATOM      6  C   UNL     1      44.986   3.056   9.886  0.00  0.00    +0.000 A 
ATOM      7  C   UNL     1      43.919   2.306  10.394  0.00  0.00    +0.000 A 
ATOM      8  C   UNL     1      43.296   2.714  11.563  0.00  0.00    +0.000 A 
ATOM      9  N   UNL     1      43.658   3.806  12.267  0.00  0.00    +0.000 NA
BRANCH   6  10
ATOM     10  C   UNL     1      45.672   2.687   8.626  0.00  0.00    +0.000 A 
ATOM     11  C   UNL     1      46.158   1.388   8.411  0.00  0.00    +0.000 A 
ATOM     12  C   UNL     1      46.834   1.094   7.234  0.00  0.00    +0.000 A 
ATOM     13  N   UNL     1      47.048   1.987   6.250  0.00  0.00    +0.000 NA
ATOM     14  C   UNL     1      46.566   3.226   6.457  0.00  0.00    +0.000 A 
ATOM     15  F   UNL     1      46.767   4.139   5.495  0.00  0.00    +0.000 F 
ATOM     16  C   UNL     1      45.889   3.617   7.602  0.00  0.00    +0.000 A 
ENDBRANCH   6  10
ENDBRANCH   1   4
BRANCH   1  17
ATOM     17  C   UNL     1      45.927   6.759  11.642  0.00  0.00    +0.000 C 
BRANCH  17  22
ATOM     18  C   UNL     1      50.447   8.372  12.628  0.00  0.00    +0.000 A 
ATOM     19  C   UNL     1      49.847   7.742  11.567  0.00  0.00    +0.000 A 
ATOM     20  N   UNL     1      48.512   7.603  11.444  0.00  0.00    +0.000 NA
ATOM     21  C   UNL     1      47.743   8.102  12.427  0.00  0.00    +0.000 A 
ATOM     22  N   UNL     1      46.366   7.988  12.334  0.00  0.00    +0.000 N 
ATOM     23  N   UNL     1      48.234   8.712  13.514  0.00  0.00    +0.000 NA
ATOM     24  C   UNL     1      49.583   8.832  13.595  0.00  0.00    +0.000 A 
ATOM     25  H   UNL     1      45.977   8.131  13.260  0.00  0.00    +0.000 HD
BRANCH  18  27
ATOM     26  N   UNL     1      52.689   7.800  11.905  0.00  0.00    +0.000 N 
ATOM     27  C   UNL     1      51.898   8.523  12.758  0.00  0.00    +0.000 C 
ATOM     28  O   UNL     1      52.386   9.284  13.584  0.00  0.00    +0.000 OA
ATOM     29  H   UNL     1      53.685   7.984  11.949  0.00  0.00    +0.000 HD
ATOM     30  H   UNL     1      52.341   7.368  11.059  0.00  0.00    +0.000 HD
ENDBRANCH  18  27
ENDBRANCH  17  22
ENDBRANCH   1  17
TORSDOF 5
ENDMDL
