MODEL 1
REMARK VINA RESULT:    -8.682      0.000      0.000
REMARK INTER + INTRA:         -13.536
REMARK INTER:                 -12.234
REMARK INTRA:                  -1.302
REMARK UNBOUND:                -1.302
REMARK  Name = 
REMARK  9 active torsions:
REMARK  status: ('A' for Active; 'I' for Inactive)
REMARK    1  A    between atoms: C_1  and  O_2
REMARK    2  A    between atoms: O_2  and  C_3
REMARK    3  A    between atoms: C_10  and  C_11
REMARK    4  A    between atoms: N_13  and  C_14
REMARK    5  A    between atoms: C_14  and  C_15
REMARK    6  A    between atoms: C_18  and  C_19
REMARK    7  A    between atoms: C_19  and  N_20
REMARK    8  A    between atoms: N_20  and  C_21
REMARK    9  A    between atoms: N_20  and  C_22
REMARK                            x       y       z     vdW  Elec       q    Type
REMARK                         _______ _______ _______ _____ _____    ______ ____
ROOT
ATOM      1  C   UNL     1      47.266   8.254  13.433  0.00  0.00    +0.000 C 
ENDROOT
BRANCH   1   2
ATOM      2  C   UNL     1      46.379   7.519  12.458  0.00  0.00    +0.000 A 
ATOM      3  C   UNL     1      44.987   7.629  12.554  0.00  0.00    +0.000 A 
ATOM      4  C   UNL     1      44.156   6.855  11.740  0.00  0.00    +0.000 A 
ATOM      5  C   UNL     1      44.691   5.944  10.812  0.00  0.00    +0.000 A 
ATOM      6  C   UNL     1      46.083   5.891  10.663  0.00  0.00    +0.000 A 
ATOM      7  C   UNL     1      46.919   6.662  11.487  0.00  0.00    +0.000 A 
BRANCH   5   8
ATOM      8  C   UNL     1      43.764   4.962  10.109  0.00  0.00    +0.000 C 
BRANCH   8   9
ATOM      9  N   UNL     1      44.174   3.552  10.079  0.00  0.00    +0.000 N 
ATOM     10  C   UNL     1      44.509   2.862  11.328  0.00  0.00    +0.000 C 
BRANCH   9  11
ATOM     11  C   UNL     1      44.988   3.121   9.007  0.00  0.00    +0.000 A 
ATOM     12  C   UNL     1      45.483   3.983   8.010  0.00  0.00    +0.000 A 
ATOM     13  C   UNL     1      46.394   3.540   7.039  0.00  0.00    +0.000 A 
ATOM     14  C   UNL     1      46.810   2.214   7.027  0.00  0.00    +0.000 A 
ATOM     15  C   UNL     1      46.298   1.341   7.973  0.00  0.00    +0.000 A 
ATOM     16  F   UNL     1      46.690   0.060   7.966  0.00  0.00    +0.000 F 
ATOM     17  C   UNL     1      45.399   1.778   8.947  0.00  0.00    +0.000 A 
ENDBRANCH   9  11
ENDBRANCH   8   9
ENDBRANCH   5   8
ENDBRANCH   1   2
BRANCH   1  20
ATOM     18  C   UNL     1      48.858   7.042  14.858  0.00  0.00    +0.000 C 
ATOM     19  O   UNL     1      49.783   7.374  14.118  0.00  0.00    +0.000 OA
ATOM     20  N   UNL     1      47.573   7.439  14.590  0.00  0.00    +0.000 N 
ATOM     21  H   UNL     1      46.811   7.150  15.188  0.00  0.00    +0.000 HD
BRANCH  18  29
ATOM     22  C   UNL     1      47.297   4.267  16.210  0.00  0.00    +0.000 A 
ATOM     23  N   UNL     1      46.895   3.215  16.956  0.00  0.00    +0.000 NA
ATOM     24  C   UNL     1      47.581   2.922  18.062  0.00  0.00    +0.000 A 
ATOM     25  N   UNL     1      48.648   3.560  18.530  0.00  0.00    +0.000 NA
ATOM     26  C   UNL     1      49.014   4.603  17.764  0.00  0.00    +0.000 A 
ATOM     27  S   UNL     1      50.359   5.531  18.218  0.00  0.00    +0.000 S 
ATOM     28  C   UNL     1      50.173   6.545  16.870  0.00  0.00    +0.000 A 
ATOM     29  C   UNL     1      49.102   6.209  16.049  0.00  0.00    +0.000 A 
ATOM     30  C   UNL     1      48.410   5.040  16.589  0.00  0.00    +0.000 A 
BRANCH  22  32
ATOM     31  C   UNL     1      47.064   3.808  13.921  0.00  0.00    +0.000 C 
ATOM     32  O   UNL     1      46.609   4.554  15.052  0.00  0.00    +0.000 OA
ENDBRANCH  22  32
ENDBRANCH  18  29
ENDBRANCH   1  20
TORSDOF 7
ENDMDL
MODEL 2
REMARK VINA RESULT:    -8.028      2.507      3.257
REMARK INTER + INTRA:         -12.615
REMARK INTER:                 -11.397
REMARK INTRA:                  -1.218
REMARK UNBOUND:                -1.302
REMARK  Name = 
REMARK  9 active torsions:
REMARK  status: ('A' for Active; 'I' for Inactive)
REMARK    1  A    between atoms: C_1  and  O_2
REMARK    2  A    between atoms: O_2  and  C_3
REMARK    3  A    between atoms: C_10  and  C_11
REMARK    4  A    between atoms: N_13  and  C_14
REMARK    5  A    between atoms: C_14  and  C_15
REMARK    6  A    between atoms: C_18  and  C_19
REMARK    7  A    between atoms: C_19  and  N_20
REMARK    8  A    between atoms: N_20  and  C_21
REMARK    9  A    between atoms: N_20  and  C_22
REMARK                            x       y       z     vdW  Elec       q    Type
REMARK                         _______ _______ _______ _____ _____    ______ ____
ROOT
ATOM      1  C   UNL     1      48.716   6.802  14.134  0.00  0.00    +0.000 C 
ENDROOT
BRANCH   1   2
ATOM      2  C   UNL     1      47.598   6.279  13.266  0.00  0.00    +0.000 A 
ATOM      3  C   UNL     1      47.244   6.957  12.094  0.00  0.00    +0.000 A 
ATOM      4  C   UNL     1      46.130   6.556  11.351  0.00  0.00    +0.000 A 
ATOM      5  C   UNL     1      45.336   5.471  11.761  0.00  0.00    +0.000 A 
ATOM      6  C   UNL     1      45.736   4.746  12.890  0.00  0.00    +0.000 A 
ATOM      7  C   UNL     1      46.849   5.154  13.643  0.00  0.00    +0.000 A 
BRANCH   5   8
ATOM      8  C   UNL     1      44.012   5.206  11.058  0.00  0.00    +0.000 C 
BRANCH   8   9
ATOM      9  N   UNL     1      43.805   3.867  10.491  0.00  0.00    +0.000 N 
ATOM     10  C   UNL     1      43.444   2.750  11.368  0.00  0.00    +0.000 C 
BRANCH   9  11
ATOM     11  C   UNL     1      44.655   3.455   9.439  0.00  0.00    +0.000 A 
ATOM     12  C   UNL     1      45.319   4.350   8.578  0.00  0.00    +0.000 A 
ATOM     13  C   UNL     1      46.255   3.905   7.632  0.00  0.00    +0.000 A 
ATOM     14  C   UNL     1      46.529   2.548   7.508  0.00  0.00    +0.000 A 
ATOM     15  C   UNL     1      45.851   1.649   8.315  0.00  0.00    +0.000 A 
ATOM     16  F   UNL     1      46.104   0.339   8.197  0.00  0.00    +0.000 F 
ATOM     17  C   UNL     1      44.925   2.087   9.264  0.00  0.00    +0.000 A 
ENDBRANCH   9  11
ENDBRANCH   8   9
ENDBRANCH   5   8
ENDBRANCH   1   2
BRANCH   1  20
ATOM     18  C   UNL     1      49.139   6.416  16.523  0.00  0.00    +0.000 C 
ATOM     19  O   UNL     1      50.238   5.930  16.257  0.00  0.00    +0.000 OA
ATOM     20  N   UNL     1      48.319   6.876  15.525  0.00  0.00    +0.000 N 
ATOM     21  H   UNL     1      47.409   7.258  15.742  0.00  0.00    +0.000 HD
BRANCH  18  29
ATOM     22  C   UNL     1      47.764   8.962  18.418  0.00  0.00    +0.000 A 
ATOM     23  N   UNL     1      47.235   9.750  19.380  0.00  0.00    +0.000 NA
ATOM     24  C   UNL     1      47.033   9.226  20.590  0.00  0.00    +0.000 A 
ATOM     25  N   UNL     1      47.295   7.981  20.973  0.00  0.00    +0.000 NA
ATOM     26  C   UNL     1      47.825   7.230  19.991  0.00  0.00    +0.000 A 
ATOM     27  S   UNL     1      48.222   5.612  20.310  0.00  0.00    +0.000 S 
ATOM     28  C   UNL     1      48.775   5.387  18.722  0.00  0.00    +0.000 A 
ATOM     29  C   UNL     1      48.672   6.516  17.918  0.00  0.00    +0.000 A 
ATOM     30  C   UNL     1      48.098   7.621  18.684  0.00  0.00    +0.000 A 
BRANCH  22  32
ATOM     31  C   UNL     1      49.211  10.136  16.992  0.00  0.00    +0.000 C 
ATOM     32  O   UNL     1      47.946   9.491  17.160  0.00  0.00    +0.000 OA
ENDBRANCH  22  32
ENDBRANCH  18  29
ENDBRANCH   1  20
TORSDOF 7
ENDMDL
MODEL 3
REMARK VINA RESULT:    -7.977      1.894      2.320
REMARK INTER + INTRA:         -12.543
REMARK INTER:                 -11.560
REMARK INTRA:                  -0.982
REMARK UNBOUND:                -1.302
REMARK  Name = 
REMARK  9 active torsions:
REMARK  status: ('A' for Active; 'I' for Inactive)
REMARK    1  A    between atoms: C_1  and  O_2
REMARK    2  A    between atoms: O_2  and  C_3
REMARK    3  A    between atoms: C_10  and  C_11
REMARK    4  A    between atoms: N_13  and  C_14
REMARK    5  A    between atoms: C_14  and  C_15
REMARK    6  A    between atoms: C_18  and  C_19
REMARK    7  A    between atoms: C_19  and  N_20
REMARK    8  A    between atoms: N_20  and  C_21
REMARK    9  A    between atoms: N_20  and  C_22
REMARK                            x       y       z     vdW  Elec       q    Type
REMARK                         _______ _______ _______ _____ _____    ______ ____
ROOT
ATOM      1  C   UNL     1      48.663   6.984  13.854  0.00  0.00    +0.000 C 
ENDROOT
BRANCH   1   2
ATOM      2  C   UNL     1      47.538   6.362  13.063  0.00  0.00    +0.000 A 
ATOM      3  C   UNL     1      47.187   6.884  11.813  0.00  0.00    +0.000 A 
ATOM      4  C   UNL     1      46.068   6.400  11.131  0.00  0.00    +0.000 A 
ATOM      5  C   UNL     1      45.264   5.386  11.680  0.00  0.00    +0.000 A 
ATOM      6  C   UNL     1      45.660   4.811  12.894  0.00  0.00    +0.000 A 
ATOM      7  C   UNL     1      46.779   5.304  13.585  0.00  0.00    +0.000 A 
BRANCH   5   8
ATOM      8  C   UNL     1      43.936   5.044  11.019  0.00  0.00    +0.000 C 
BRANCH   8   9
ATOM      9  N   UNL     1      43.806   3.711  10.416  0.00  0.00    +0.000 N 
ATOM     10  C   UNL     1      43.479   2.557  11.258  0.00  0.00    +0.000 C 
BRANCH   9  11
ATOM     11  C   UNL     1      44.699   3.365   9.375  0.00  0.00    +0.000 A 
ATOM     12  C   UNL     1      45.316   4.309   8.533  0.00  0.00    +0.000 A 
ATOM     13  C   UNL     1      46.294   3.935   7.600  0.00  0.00    +0.000 A 
ATOM     14  C   UNL     1      46.659   2.600   7.469  0.00  0.00    +0.000 A 
ATOM     15  C   UNL     1      46.028   1.651   8.258  0.00  0.00    +0.000 A 
ATOM     16  F   UNL     1      46.369   0.362   8.134  0.00  0.00    +0.000 F 
ATOM     17  C   UNL     1      45.061   2.019   9.195  0.00  0.00    +0.000 A 
ENDBRANCH   9  11
ENDBRANCH   8   9
ENDBRANCH   5   8
ENDBRANCH   1   2
BRANCH   1  20
ATOM     18  C   UNL     1      49.218   6.873  16.245  0.00  0.00    +0.000 C 
ATOM     19  O   UNL     1      50.359   6.505  15.970  0.00  0.00    +0.000 OA
ATOM     20  N   UNL     1      48.310   7.135  15.251  0.00  0.00    +0.000 N 
ATOM     21  H   UNL     1      47.368   7.419  15.478  0.00  0.00    +0.000 HD
BRANCH  18  29
ATOM     22  C   UNL     1      48.914   4.724  18.938  0.00  0.00    +0.000 A 
ATOM     23  N   UNL     1      48.691   4.131  20.131  0.00  0.00    +0.000 NA
ATOM     24  C   UNL     1      48.242   4.881  21.139  0.00  0.00    +0.000 A 
ATOM     25  N   UNL     1      47.982   6.183  21.108  0.00  0.00    +0.000 NA
ATOM     26  C   UNL     1      48.211   6.736  19.903  0.00  0.00    +0.000 A 
ATOM     27  S   UNL     1      47.929   8.395  19.688  0.00  0.00    +0.000 S 
ATOM     28  C   UNL     1      48.409   8.311  18.062  0.00  0.00    +0.000 A 
ATOM     29  C   UNL     1      48.794   7.042  17.647  0.00  0.00    +0.000 A 
ATOM     30  C   UNL     1      48.675   6.099  18.757  0.00  0.00    +0.000 A 
BRANCH  22  32
ATOM     31  C   UNL     1      48.385   3.308  17.143  0.00  0.00    +0.000 C 
ATOM     32  O   UNL     1      49.406   3.958  17.904  0.00  0.00    +0.000 OA
ENDBRANCH  22  32
ENDBRANCH  18  29
ENDBRANCH   1  20
TORSDOF 7
ENDMDL
MODEL 4
REMARK VINA RESULT:    -7.682      2.512      3.271
REMARK INTER + INTRA:         -12.128
REMARK INTER:                 -11.024
REMARK INTRA:                  -1.104
REMARK UNBOUND:                -1.302
REMARK  Name = 
REMARK  9 active torsions:
REMARK  status: ('A' for Active; 'I' for Inactive)
REMARK    1  A    between atoms: C_1  and  O_2
REMARK    2  A    between atoms: O_2  and  C_3
REMARK    3  A    between atoms: C_10  and  C_11
REMARK    4  A    between atoms: N_13  and  C_14
REMARK    5  A    between atoms: C_14  and  C_15
REMARK    6  A    between atoms: C_18  and  C_19
REMARK    7  A    between atoms: C_19  and  N_20
REMARK    8  A    between atoms: N_20  and  C_21
REMARK    9  A    between atoms: N_20  and  C_22
REMARK                            x       y       z     vdW  Elec       q    Type
REMARK                         _______ _______ _______ _____ _____    ______ ____
ROOT
ATOM      1  C   UNL     1      49.112   7.104  15.564  0.00  0.00    +0.000 C 
ENDROOT
BRANCH   1   2
ATOM      2  C   UNL     1      48.118   6.345  14.719  0.00  0.00    +0.000 A 
ATOM      3  C   UNL     1      47.619   6.914  13.542  0.00  0.00    +0.000 A 
ATOM      4  C   UNL     1      46.605   6.279  12.821  0.00  0.00    +0.000 A 
ATOM      5  C   UNL     1      46.057   5.059  13.257  0.00  0.00    +0.000 A 
ATOM      6  C   UNL     1      46.611   4.453  14.392  0.00  0.00    +0.000 A 
ATOM      7  C   UNL     1      47.623   5.096  15.123  0.00  0.00    +0.000 A 
BRANCH   5   8
ATOM      8  C   UNL     1      44.810   4.514  12.576  0.00  0.00    +0.000 C 
BRANCH   8   9
ATOM      9  N   UNL     1      44.455   5.080  11.268  0.00  0.00    +0.000 N 
ATOM     10  C   UNL     1      43.158   5.738  11.085  0.00  0.00    +0.000 C 
BRANCH   9  11
ATOM     11  C   UNL     1      44.852   4.374  10.110  0.00  0.00    +0.000 A 
ATOM     12  C   UNL     1      45.617   4.944   9.075  0.00  0.00    +0.000 A 
ATOM     13  C   UNL     1      46.102   4.174   8.007  0.00  0.00    +0.000 A 
ATOM     14  C   UNL     1      45.809   2.817   7.936  0.00  0.00    +0.000 A 
ATOM     15  C   UNL     1      45.019   2.249   8.923  0.00  0.00    +0.000 A 
ATOM     16  F   UNL     1      44.726   0.943   8.859  0.00  0.00    +0.000 F 
ATOM     17  C   UNL     1      44.542   3.008   9.992  0.00  0.00    +0.000 A 
ENDBRANCH   9  11
ENDBRANCH   8   9
ENDBRANCH   5   8
ENDBRANCH   1   2
BRANCH   1  20
ATOM     18  C   UNL     1      50.128   5.785  17.371  0.00  0.00    +0.000 C 
ATOM     19  O   UNL     1      49.219   6.113  18.132  0.00  0.00    +0.000 OA
ATOM     20  N   UNL     1      50.150   6.232  16.074  0.00  0.00    +0.000 N 
ATOM     21  H   UNL     1      50.907   5.977  15.456  0.00  0.00    +0.000 HD
BRANCH  18  29
ATOM     22  C   UNL     1      50.704   2.380  17.181  0.00  0.00    +0.000 A 
ATOM     23  N   UNL     1      51.177   1.117  17.266  0.00  0.00    +0.000 NA
ATOM     24  C   UNL     1      52.344   0.917  17.881  0.00  0.00    +0.000 A 
ATOM     25  N   UNL     1      53.122   1.840  18.435  0.00  0.00    +0.000 NA
ATOM     26  C   UNL     1      52.615   3.082  18.335  0.00  0.00    +0.000 A 
ATOM     27  S   UNL     1      53.481   4.384  18.992  0.00  0.00    +0.000 S 
ATOM     28  C   UNL     1      52.288   5.486  18.498  0.00  0.00    +0.000 A 
ATOM     29  C   UNL     1      51.218   4.904  17.829  0.00  0.00    +0.000 A 
ATOM     30  C   UNL     1      51.419   3.459  17.731  0.00  0.00    +0.000 A 
BRANCH  22  32
ATOM     31  C   UNL     1      48.373   2.563  17.381  0.00  0.00    +0.000 C 
ATOM     32  O   UNL     1      49.514   2.593  16.521  0.00  0.00    +0.000 OA
ENDBRANCH  22  32
ENDBRANCH  18  29
ENDBRANCH   1  20
TORSDOF 7
ENDMDL
MODEL 5
REMARK VINA RESULT:    -7.255      3.238      4.878
REMARK INTER + INTRA:         -11.526
REMARK INTER:                 -10.320
REMARK INTRA:                  -1.205
REMARK UNBOUND:                -1.302
REMARK  Name = 
REMARK  9 active torsions:
REMARK  status: ('A' for Active; 'I' for Inactive)
REMARK    1  A    between atoms: C_1  and  O_2
REMARK    2  A    between atoms: O_2  and  C_3
REMARK    3  A    between atoms: C_10  and  C_11
REMARK    4  A    between atoms: N_13  and  C_14
REMARK    5  A    between atoms: C_14  and  C_15
REMARK    6  A    between atoms: C_18  and  C_19
REMARK    7  A    between atoms: C_19  and  N_20
REMARK    8  A    between atoms: N_20  and  C_21
REMARK    9  A    between atoms: N_20  and  C_22
REMARK                            x       y       z     vdW  Elec       q    Type
REMARK                         _______ _______ _______ _____ _____    ______ ____
ROOT
ATOM      1  C   UNL     1      48.271   6.664  14.415  0.00  0.00    +0.000 C 
ENDROOT
BRANCH   1   2
ATOM      2  C   UNL     1      47.337   6.113  13.365  0.00  0.00    +0.000 A 
ATOM      3  C   UNL     1      47.256   6.724  12.109  0.00  0.00    +0.000 A 
ATOM      4  C   UNL     1      46.304   6.304  11.176  0.00  0.00    +0.000 A 
ATOM      5  C   UNL     1      45.404   5.266  11.473  0.00  0.00    +0.000 A 
ATOM      6  C   UNL     1      45.536   4.605  12.700  0.00  0.00    +0.000 A 
ATOM      7  C   UNL     1      46.486   5.033  13.642  0.00  0.00    +0.000 A 
BRANCH   5   8
ATOM      8  C   UNL     1      44.244   4.990  10.527  0.00  0.00    +0.000 C 
BRANCH   8   9
ATOM      9  N   UNL     1      44.114   3.625  10.001  0.00  0.00    +0.000 N 
ATOM     10  C   UNL     1      43.765   2.523  10.903  0.00  0.00    +0.000 C 
BRANCH   9  11
ATOM     11  C   UNL     1      45.019   3.212   8.996  0.00  0.00    +0.000 A 
ATOM     12  C   UNL     1      45.658   4.102   8.112  0.00  0.00    +0.000 A 
ATOM     13  C   UNL     1      46.648   3.669   7.217  0.00  0.00    +0.000 A 
ATOM     14  C   UNL     1      47.002   2.325   7.168  0.00  0.00    +0.000 A 
ATOM     15  C   UNL     1      46.351   1.428   7.999  0.00  0.00    +0.000 A 
ATOM     16  F   UNL     1      46.681   0.131   7.953  0.00  0.00    +0.000 F 
ATOM     17  C   UNL     1      45.372   1.856   8.897  0.00  0.00    +0.000 A 
ENDBRANCH   9  11
ENDBRANCH   8   9
ENDBRANCH   5   8
ENDBRANCH   1   2
BRANCH   1  20
ATOM     18  C   UNL     1      50.462   7.761  14.583  0.00  0.00    +0.000 C 
ATOM     19  O   UNL     1      50.245   8.030  15.763  0.00  0.00    +0.000 OA
ATOM     20  N   UNL     1      49.532   7.081  13.839  0.00  0.00    +0.000 N 
ATOM     21  H   UNL     1      49.704   6.877  12.864  0.00  0.00    +0.000 HD
BRANCH  18  29
ATOM     22  C   UNL     1      51.276   8.944  11.436  0.00  0.00    +0.000 A 
ATOM     23  N   UNL     1      51.877   9.396  10.313  0.00  0.00    +0.000 NA
ATOM     24  C   UNL     1      53.200   9.567  10.326  0.00  0.00    +0.000 A 
ATOM     25  N   UNL     1      54.022   9.341  11.344  0.00  0.00    +0.000 NA
ATOM     26  C   UNL     1      53.389   8.887  12.440  0.00  0.00    +0.000 A 
ATOM     27  S   UNL     1      54.291   8.544  13.835  0.00  0.00    +0.000 S 
ATOM     28  C   UNL     1      52.895   8.071  14.677  0.00  0.00    +0.000 A 
ATOM     29  C   UNL     1      51.724   8.162  13.934  0.00  0.00    +0.000 A 
ATOM     30  C   UNL     1      52.025   8.655  12.591  0.00  0.00    +0.000 A 
BRANCH  22  32
ATOM     31  C   UNL     1      49.200  10.036  11.365  0.00  0.00    +0.000 C 
ATOM     32  O   UNL     1      49.907   8.795  11.435  0.00  0.00    +0.000 OA
ENDBRANCH  22  32
ENDBRANCH  18  29
ENDBRANCH   1  20
TORSDOF 7
ENDMDL
MODEL 6
REMARK VINA RESULT:    -7.035      1.804      2.391
REMARK INTER + INTRA:         -11.216
REMARK INTER:                  -9.729
REMARK INTRA:                  -1.486
REMARK UNBOUND:                -1.302
REMARK  Name = 
REMARK  9 active torsions:
REMARK  status: ('A' for Active; 'I' for Inactive)
REMARK    1  A    between atoms: C_1  and  O_2
REMARK    2  A    between atoms: O_2  and  C_3
REMARK    3  A    between atoms: C_10  and  C_11
REMARK    4  A    between atoms: N_13  and  C_14
REMARK    5  A    between atoms: C_14  and  C_15
REMARK    6  A    between atoms: C_18  and  C_19
REMARK    7  A    between atoms: C_19  and  N_20
REMARK    8  A    between atoms: N_20  and  C_21
REMARK    9  A    between atoms: N_20  and  C_22
REMARK                            x       y       z     vdW  Elec       q    Type
REMARK                         _______ _______ _______ _____ _____    ______ ____
ROOT
ATOM      1  C   UNL     1      49.232   8.548  14.392  0.00  0.00    +0.000 C 
ENDROOT
BRANCH   1   2
ATOM      2  C   UNL     1      48.109   8.211  13.442  0.00  0.00    +0.000 A 
ATOM      3  C   UNL     1      46.870   8.849  13.566  0.00  0.00    +0.000 A 
ATOM      4  C   UNL     1      45.786   8.453  12.776  0.00  0.00    +0.000 A 
ATOM      5  C   UNL     1      45.908   7.407  11.846  0.00  0.00    +0.000 A 
ATOM      6  C   UNL     1      47.168   6.822  11.668  0.00  0.00    +0.000 A 
ATOM      7  C   UNL     1      48.255   7.212  12.468  0.00  0.00    +0.000 A 
BRANCH   5   8
ATOM      8  C   UNL     1      44.660   6.857  11.171  0.00  0.00    +0.000 C 
BRANCH   8   9
ATOM      9  N   UNL     1      44.298   5.462  11.456  0.00  0.00    +0.000 N 
ATOM     10  C   UNL     1      44.389   4.949  12.826  0.00  0.00    +0.000 C 
BRANCH   9  11
ATOM     11  C   UNL     1      44.647   4.479  10.503  0.00  0.00    +0.000 A 
ATOM     12  C   UNL     1      44.281   3.124  10.613  0.00  0.00    +0.000 A 
ATOM     13  C   UNL     1      44.535   2.206   9.583  0.00  0.00    +0.000 A 
ATOM     14  C   UNL     1      45.186   2.619   8.426  0.00  0.00    +0.000 A 
ATOM     15  C   UNL     1      45.595   3.939   8.320  0.00  0.00    +0.000 A 
ATOM     16  F   UNL     1      46.229   4.344   7.212  0.00  0.00    +0.000 F 
ATOM     17  C   UNL     1      45.337   4.858   9.338  0.00  0.00    +0.000 A 
ENDBRANCH   9  11
ENDBRANCH   8   9
ENDBRANCH   5   8
ENDBRANCH   1   2
BRANCH   1  20
ATOM     18  C   UNL     1      48.684   8.099  16.744  0.00  0.00    +0.000 C 
ATOM     19  O   UNL     1      48.190   9.220  16.851  0.00  0.00    +0.000 OA
ATOM     20  N   UNL     1      49.224   7.683  15.553  0.00  0.00    +0.000 N 
ATOM     21  H   UNL     1      49.646   6.769  15.471  0.00  0.00    +0.000 HD
BRANCH  18  29
ATOM     22  C   UNL     1      48.437   4.663  17.058  0.00  0.00    +0.000 A 
ATOM     23  N   UNL     1      48.358   3.381  17.477  0.00  0.00    +0.000 NA
ATOM     24  C   UNL     1      48.442   3.135  18.786  0.00  0.00    +0.000 A 
ATOM     25  N   UNL     1      48.600   4.028  19.756  0.00  0.00    +0.000 NA
ATOM     26  C   UNL     1      48.668   5.291  19.301  0.00  0.00    +0.000 A 
ATOM     27  S   UNL     1      48.870   6.560  20.408  0.00  0.00    +0.000 S 
ATOM     28  C   UNL     1      48.862   7.711  19.161  0.00  0.00    +0.000 A 
ATOM     29  C   UNL     1      48.712   7.171  17.889  0.00  0.00    +0.000 A 
ATOM     30  C   UNL     1      48.598   5.716  17.977  0.00  0.00    +0.000 A 
BRANCH  22  32
ATOM     31  C   UNL     1      47.152   4.510  15.100  0.00  0.00    +0.000 C 
ATOM     32  O   UNL     1      48.381   4.918  15.706  0.00  0.00    +0.000 OA
ENDBRANCH  22  32
ENDBRANCH  18  29
ENDBRANCH   1  20
TORSDOF 7
ENDMDL
MODEL 7
REMARK VINA RESULT:    -6.876      3.568      7.543
REMARK INTER + INTRA:         -10.991
REMARK INTER:                  -9.359
REMARK INTRA:                  -1.633
REMARK UNBOUND:                -1.302
REMARK  Name = 
REMARK  9 active torsions:
REMARK  status: ('A' for Active; 'I' for Inactive)
REMARK    1  A    between atoms: C_1  and  O_2
REMARK    2  A    between atoms: O_2  and  C_3
REMARK    3  A    between atoms: C_10  and  C_11
REMARK    4  A    between atoms: N_13  and  C_14
REMARK    5  A    between atoms: C_14  and  C_15
REMARK    6  A    between atoms: C_18  and  C_19
REMARK    7  A    between atoms: C_19  and  N_20
REMARK    8  A    between atoms: N_20  and  C_21
REMARK    9  A    between atoms: N_20  and  C_22
REMARK                            x       y       z     vdW  Elec       q    Type
REMARK                         _______ _______ _______ _____ _____    ______ ____
ROOT
ATOM      1  C   UNL     1      48.332   8.151  11.796  0.00  0.00    +0.000 C 
ENDROOT
BRANCH   1   2
ATOM      2  C   UNL     1      48.603   8.046  13.277  0.00  0.00    +0.000 A 
ATOM      3  C   UNL     1      49.627   7.216  13.746  0.00  0.00    +0.000 A 
ATOM      4  C   UNL     1      49.803   7.012  15.118  0.00  0.00    +0.000 A 
ATOM      5  C   UNL     1      48.958   7.628  16.058  0.00  0.00    +0.000 A 
ATOM      6  C   UNL     1      47.984   8.518  15.591  0.00  0.00    +0.000 A 
ATOM      7  C   UNL     1      47.800   8.716  14.213  0.00  0.00    +0.000 A 
BRANCH   5   8
ATOM      8  C   UNL     1      49.036   7.209  17.519  0.00  0.00    +0.000 C 
BRANCH   8   9
ATOM      9  N   UNL     1      48.205   6.073  17.940  0.00  0.00    +0.000 N 
ATOM     10  C   UNL     1      47.472   6.134  19.208  0.00  0.00    +0.000 C 
BRANCH   9  11
ATOM     11  C   UNL     1      48.679   4.769  17.670  0.00  0.00    +0.000 A 
ATOM     12  C   UNL     1      47.882   3.749  17.117  0.00  0.00    +0.000 A 
ATOM     13  C   UNL     1      48.423   2.510  16.743  0.00  0.00    +0.000 A 
ATOM     14  C   UNL     1      49.775   2.253  16.940  0.00  0.00    +0.000 A 
ATOM     15  C   UNL     1      50.566   3.228  17.526  0.00  0.00    +0.000 A 
ATOM     16  F   UNL     1      51.868   2.986  17.726  0.00  0.00    +0.000 F 
ATOM     17  C   UNL     1      50.034   4.466  17.891  0.00  0.00    +0.000 A 
ENDBRANCH   9  11
ENDBRANCH   8   9
ENDBRANCH   5   8
ENDBRANCH   1   2
BRANCH   1  20
ATOM     18  C   UNL     1      46.261   6.953  11.237  0.00  0.00    +0.000 C 
ATOM     19  O   UNL     1      45.595   7.922  11.598  0.00  0.00    +0.000 OA
ATOM     20  N   UNL     1      47.631   6.984  11.300  0.00  0.00    +0.000 N 
ATOM     21  H   UNL     1      48.177   6.181  11.021  0.00  0.00    +0.000 HD
BRANCH  18  29
ATOM     22  C   UNL     1      44.510   4.366  12.721  0.00  0.00    +0.000 A 
ATOM     23  N   UNL     1      43.816   3.245  13.019  0.00  0.00    +0.000 NA
ATOM     24  C   UNL     1      43.484   2.421  12.024  0.00  0.00    +0.000 A 
ATOM     25  N   UNL     1      43.762   2.576  10.735  0.00  0.00    +0.000 NA
ATOM     26  C   UNL     1      44.457   3.698  10.479  0.00  0.00    +0.000 A 
ATOM     27  S   UNL     1      44.897   4.052   8.879  0.00  0.00    +0.000 S 
ATOM     28  C   UNL     1      45.667   5.486   9.360  0.00  0.00    +0.000 A 
ATOM     29  C   UNL     1      45.610   5.733  10.727  0.00  0.00    +0.000 A 
ATOM     30  C   UNL     1      44.879   4.657  11.395  0.00  0.00    +0.000 A 
BRANCH  22  32
ATOM     31  C   UNL     1      46.172   5.097  14.207  0.00  0.00    +0.000 C 
ATOM     32  O   UNL     1      44.827   5.234  13.742  0.00  0.00    +0.000 OA
ENDBRANCH  22  32
ENDBRANCH  18  29
ENDBRANCH   1  20
TORSDOF 7
ENDMDL
MODEL 8
REMARK VINA RESULT:    -6.813      2.702      4.149
REMARK INTER + INTRA:         -10.902
REMARK INTER:                  -9.436
REMARK INTRA:                  -1.466
REMARK UNBOUND:                -1.302
REMARK  Name = 
REMARK  9 active torsions:
REMARK  status: ('A' for Active; 'I' for Inactive)
REMARK    1  A    between atoms: C_1  and  O_2
REMARK    2  A    between atoms: O_2  and  C_3
REMARK    3  A    between atoms: C_10  and  C_11
REMARK    4  A    between atoms: N_13  and  C_14
REMARK    5  A    between atoms: C_14  and  C_15
REMARK    6  A    between atoms: C_18  and  C_19
REMARK    7  A    between atoms: C_19  and  N_20
REMARK    8  A    between atoms: N_20  and  C_21
REMARK    9  A    between atoms: N_20  and  C_22
REMARK                            x       y       z     vdW  Elec       q    Type
REMARK                         _______ _______ _______ _____ _____    ______ ____
ROOT
ATOM      1  C   UNL     1      49.366   7.532  16.656  0.00  0.00    +0.000 C 
ENDROOT
BRANCH   1   2
ATOM      2  C   UNL     1      48.593   7.334  15.375  0.00  0.00    +0.000 A 
ATOM      3  C   UNL     1      48.229   6.046  14.966  0.00  0.00    +0.000 A 
ATOM      4  C   UNL     1      47.627   5.840  13.722  0.00  0.00    +0.000 A 
ATOM      5  C   UNL     1      47.377   6.913  12.849  0.00  0.00    +0.000 A 
ATOM      6  C   UNL     1      47.670   8.209  13.291  0.00  0.00    +0.000 A 
ATOM      7  C   UNL     1      48.284   8.416  14.537  0.00  0.00    +0.000 A 
BRANCH   5   8
ATOM      8  C   UNL     1      46.931   6.626  11.422  0.00  0.00    +0.000 C 
BRANCH   8   9
ATOM      9  N   UNL     1      45.487   6.525  11.174  0.00  0.00    +0.000 N 
ATOM     10  C   UNL     1      44.606   7.645  11.517  0.00  0.00    +0.000 C 
BRANCH   9  11
ATOM     11  C   UNL     1      44.862   5.277  11.403  0.00  0.00    +0.000 A 
ATOM     12  C   UNL     1      44.153   4.966  12.578  0.00  0.00    +0.000 A 
ATOM     13  C   UNL     1      43.437   3.767  12.711  0.00  0.00    +0.000 A 
ATOM     14  C   UNL     1      43.436   2.837  11.677  0.00  0.00    +0.000 A 
ATOM     15  C   UNL     1      44.166   3.107  10.531  0.00  0.00    +0.000 A 
ATOM     16  F   UNL     1      44.175   2.215   9.532  0.00  0.00    +0.000 F 
ATOM     17  C   UNL     1      44.872   4.303  10.390  0.00  0.00    +0.000 A 
ENDBRANCH   9  11
ENDBRANCH   8   9
ENDBRANCH   5   8
ENDBRANCH   1   2
BRANCH   1  20
ATOM     18  C   UNL     1      50.664   6.108  18.180  0.00  0.00    +0.000 C 
ATOM     19  O   UNL     1      50.251   6.751  19.144  0.00  0.00    +0.000 OA
ATOM     20  N   UNL     1      50.271   6.429  16.906  0.00  0.00    +0.000 N 
ATOM     21  H   UNL     1      50.625   5.912  16.114  0.00  0.00    +0.000 HD
BRANCH  18  29
ATOM     22  C   UNL     1      50.579   2.765  17.299  0.00  0.00    +0.000 A 
ATOM     23  N   UNL     1      50.811   1.448  17.101  0.00  0.00    +0.000 NA
ATOM     24  C   UNL     1      51.950   0.928  17.562  0.00  0.00    +0.000 A 
ATOM     25  N   UNL     1      52.914   1.570  18.211  0.00  0.00    +0.000 NA
ATOM     26  C   UNL     1      52.645   2.875  18.393  0.00  0.00    +0.000 A 
ATOM     27  S   UNL     1      53.772   3.846  19.207  0.00  0.00    +0.000 S 
ATOM     28  C   UNL     1      52.784   5.216  19.037  0.00  0.00    +0.000 A 
ATOM     29  C   UNL     1      51.591   4.977  18.366  0.00  0.00    +0.000 A 
ATOM     30  C   UNL     1      51.512   3.569  17.978  0.00  0.00    +0.000 A 
BRANCH  22  32
ATOM     31  C   UNL     1      48.313   3.223  17.699  0.00  0.00    +0.000 C 
ATOM     32  O   UNL     1      49.419   3.311  16.797  0.00  0.00    +0.000 OA
ENDBRANCH  22  32
ENDBRANCH  18  29
ENDBRANCH   1  20
TORSDOF 7
ENDMDL
MODEL 9
REMARK VINA RESULT:    -6.711      3.637      7.812
REMARK INTER + INTRA:         -10.760
REMARK INTER:                  -9.144
REMARK INTRA:                  -1.616
REMARK UNBOUND:                -1.302
REMARK  Name = 
REMARK  9 active torsions:
REMARK  status: ('A' for Active; 'I' for Inactive)
REMARK    1  A    between atoms: C_1  and  O_2
REMARK    2  A    between atoms: O_2  and  C_3
REMARK    3  A    between atoms: C_10  and  C_11
REMARK    4  A    between atoms: N_13  and  C_14
REMARK    5  A    between atoms: C_14  and  C_15
REMARK    6  A    between atoms: C_18  and  C_19
REMARK    7  A    between atoms: C_19  and  N_20
REMARK    8  A    between atoms: N_20  and  C_21
REMARK    9  A    between atoms: N_20  and  C_22
REMARK                            x       y       z     vdW  Elec       q    Type
REMARK                         _______ _______ _______ _____ _____    ______ ____
ROOT
ATOM      1  C   UNL     1      48.055   8.944  14.290  0.00  0.00    +0.000 C 
ENDROOT
BRANCH   1   2
ATOM      2  C   UNL     1      48.755   8.199  15.400  0.00  0.00    +0.000 A 
ATOM      3  C   UNL     1      48.323   8.342  16.723  0.00  0.00    +0.000 A 
ATOM      4  C   UNL     1      49.042   7.761  17.771  0.00  0.00    +0.000 A 
ATOM      5  C   UNL     1      50.215   7.024  17.528  0.00  0.00    +0.000 A 
ATOM      6  C   UNL     1      50.603   6.817  16.198  0.00  0.00    +0.000 A 
ATOM      7  C   UNL     1      49.887   7.410  15.146  0.00  0.00    +0.000 A 
BRANCH   5   8
ATOM      8  C   UNL     1      51.088   6.600  18.701  0.00  0.00    +0.000 C 
BRANCH   8   9
ATOM      9  N   UNL     1      50.782   5.313  19.337  0.00  0.00    +0.000 N 
ATOM     10  C   UNL     1      51.641   4.807  20.412  0.00  0.00    +0.000 C 
BRANCH   9  11
ATOM     11  C   UNL     1      50.295   4.268  18.519  0.00  0.00    +0.000 A 
ATOM     12  C   UNL     1      51.128   3.397  17.792  0.00  0.00    +0.000 A 
ATOM     13  C   UNL     1      50.612   2.292  17.097  0.00  0.00    +0.000 A 
ATOM     14  C   UNL     1      49.243   2.049  17.093  0.00  0.00    +0.000 A 
ATOM     15  C   UNL     1      48.404   2.923  17.766  0.00  0.00    +0.000 A 
ATOM     16  F   UNL     1      47.083   2.700  17.762  0.00  0.00    +0.000 F 
ATOM     17  C   UNL     1      48.913   4.018  18.466  0.00  0.00    +0.000 A 
ENDBRANCH   9  11
ENDBRANCH   8   9
ENDBRANCH   5   8
ENDBRANCH   1   2
BRANCH   1  20
ATOM     18  C   UNL     1      46.957   7.394  12.733  0.00  0.00    +0.000 C 
ATOM     19  O   UNL     1      48.018   7.238  12.130  0.00  0.00    +0.000 OA
ATOM     20  N   UNL     1      46.888   8.225  13.821  0.00  0.00    +0.000 N 
ATOM     21  H   UNL     1      46.013   8.367  14.304  0.00  0.00    +0.000 HD
BRANCH  18  29
ATOM     22  C   UNL     1      45.885   4.110  12.892  0.00  0.00    +0.000 A 
ATOM     23  N   UNL     1      45.225   2.934  12.807  0.00  0.00    +0.000 NA
ATOM     24  C   UNL     1      44.019   2.923  12.235  0.00  0.00    +0.000 A 
ATOM     25  N   UNL     1      43.370   3.963  11.726  0.00  0.00    +0.000 NA
ATOM     26  C   UNL     1      44.060   5.113  11.824  0.00  0.00    +0.000 A 
ATOM     27  S   UNL     1      43.377   6.543  11.221  0.00  0.00    +0.000 S 
ATOM     28  C   UNL     1      44.738   7.444  11.685  0.00  0.00    +0.000 A 
ATOM     29  C   UNL     1      45.732   6.695  12.304  0.00  0.00    +0.000 A 
ATOM     30  C   UNL     1      45.320   5.295  12.388  0.00  0.00    +0.000 A 
BRANCH  22  32
ATOM     31  C   UNL     1      47.054   4.491  14.891  0.00  0.00    +0.000 C 
ATOM     32  O   UNL     1      47.116   4.129  13.510  0.00  0.00    +0.000 OA
ENDBRANCH  22  32
ENDBRANCH  18  29
ENDBRANCH   1  20
TORSDOF 7
ENDMDL
