MODEL 1
REMARK VINA RESULT:    -8.537      0.000      0.000
REMARK INTER + INTRA:         -13.464
REMARK INTER:                 -12.530
REMARK INTRA:                  -0.934
REMARK UNBOUND:                -0.934
REMARK  Name = 
REMARK  9 active torsions:
REMARK  status: ('A' for Active; 'I' for Inactive)
REMARK    1  A    between atoms: C_1  and  O_2
REMARK    2  A    between atoms: O_2  and  C_3
REMARK    3  A    between atoms: C_5  and  C_6
REMARK    4  A    between atoms: C_6  and  N_7
REMARK    5  A    between atoms: C_8  and  C_10
REMARK    6  A    between atoms: C_22  and  C_23
REMARK    7  A    between atoms: C_23  and  N_24
REMARK    8  A    between atoms: N_24  and  C_25
REMARK    9  A    between atoms: C_25  and  C_26
REMARK                            x       y       z     vdW  Elec       q    Type
REMARK                         _______ _______ _______ _____ _____    ______ ____
ROOT
ATOM      1  C   UNL     1      44.626   5.212  11.803  0.00  0.00    +0.000 A 
ATOM      2  C   UNL     1      45.653   6.031  12.311  0.00  0.00    +0.000 A 
ATOM      3  C   UNL     1      46.733   5.492  13.032  0.00  0.00    +0.000 A 
ATOM      4  C   UNL     1      46.776   4.109  13.224  0.00  0.00    +0.000 A 
ATOM      5  C   UNL     1      45.781   3.287  12.689  0.00  0.00    +0.000 A 
ATOM      6  C   UNL     1      44.711   3.816  11.942  0.00  0.00    +0.000 A 
ENDROOT
BRANCH   1   8
ATOM      7  C   UNL     1      42.382   5.962  11.726  0.00  0.00    +0.000 C 
ATOM      8  O   UNL     1      43.657   5.871  11.088  0.00  0.00    +0.000 OA
ENDBRANCH   1   8
BRANCH   3   9
ATOM      9  C   UNL     1      47.853   6.362  13.548  0.00  0.00    +0.000 C 
BRANCH   9  10
ATOM     10  N   UNL     1      47.811   6.475  14.988  0.00  0.00    +0.000 N 
ATOM     11  C   UNL     1      48.953   6.632  15.731  0.00  0.00    +0.000 C 
ATOM     12  O   UNL     1      50.060   6.737  15.207  0.00  0.00    +0.000 OA
ATOM     13  H   UNL     1      46.953   6.191  15.445  0.00  0.00    +0.000 HD
BRANCH  11  14
ATOM     14  C   UNL     1      48.789   6.727  17.194  0.00  0.00    +0.000 A 
ATOM     15  C   UNL     1      48.669   7.977  17.789  0.00  0.00    +0.000 A 
ATOM     16  S   UNL     1      48.413   7.913  19.474  0.00  0.00    +0.000 S 
ATOM     17  C   UNL     1      48.510   6.215  19.480  0.00  0.00    +0.000 A 
ATOM     18  N   UNL     1      48.384   5.514  20.640  0.00  0.00    +0.000 NA
ATOM     19  C   UNL     1      48.511   4.237  20.508  0.00  0.00    +0.000 A 
ATOM     20  N   UNL     1      48.751   3.596  19.320  0.00  0.00    +0.000 N 
ATOM     21  C   UNL     1      48.856   4.260  18.121  0.00  0.00    +0.000 A 
ATOM     22  O   UNL     1      49.035   3.650  17.071  0.00  0.00    +0.000 OA
ATOM     23  C   UNL     1      48.725   5.702  18.213  0.00  0.00    +0.000 A 
ATOM     24  H   UNL     1      48.841   2.592  19.285  0.00  0.00    +0.000 HD
ENDBRANCH  11  14
ENDBRANCH   9  10
ENDBRANCH   3   9
BRANCH   6  25
ATOM     25  C   UNL     1      43.764   2.831  11.290  0.00  0.00    +0.000 C 
BRANCH  25  26
ATOM     26  N   UNL     1      44.305   2.147  10.113  0.00  0.00    +0.000 NA
ATOM     27  H   UNL     1      43.614   1.475   9.778  0.00  0.00    +0.000 HD
BRANCH  26  28
ATOM     28  C   UNL     1      44.599   3.055   9.009  0.00  0.00    +0.000 C 
BRANCH  28  29
ATOM     29  C   UNL     1      45.732   2.499   8.181  0.00  0.00    +0.000 A 
ATOM     30  C   UNL     1      46.042   1.135   8.217  0.00  0.00    +0.000 A 
ATOM     31  C   UNL     1      47.110   0.678   7.460  0.00  0.00    +0.000 A 
ATOM     32  N   UNL     1      47.878   1.471   6.687  0.00  0.00    +0.000 NA
ATOM     33  C   UNL     1      47.577   2.790   6.685  0.00  0.00    +0.000 A 
ATOM     34  C   UNL     1      46.531   3.344   7.408  0.00  0.00    +0.000 A 
ENDBRANCH  28  29
ENDBRANCH  26  28
ENDBRANCH  25  26
ENDBRANCH   6  25
TORSDOF 8
ENDMDL
MODEL 2
REMARK VINA RESULT:    -8.358      1.882      3.253
REMARK INTER + INTRA:         -13.202
REMARK INTER:                 -12.081
REMARK INTRA:                  -1.120
REMARK UNBOUND:                -0.934
REMARK  Name = 
REMARK  9 active torsions:
REMARK  status: ('A' for Active; 'I' for Inactive)
REMARK    1  A    between atoms: C_1  and  O_2
REMARK    2  A    between atoms: O_2  and  C_3
REMARK    3  A    between atoms: C_5  and  C_6
REMARK    4  A    between atoms: C_6  and  N_7
REMARK    5  A    between atoms: C_8  and  C_10
REMARK    6  A    between atoms: C_22  and  C_23
REMARK    7  A    between atoms: C_23  and  N_24
REMARK    8  A    between atoms: N_24  and  C_25
REMARK    9  A    between atoms: C_25  and  C_26
REMARK                            x       y       z     vdW  Elec       q    Type
REMARK                         _______ _______ _______ _____ _____    ______ ____
ROOT
ATOM      1  C   UNL     1      45.515   3.885  11.975  0.00  0.00    +0.000 A 
ATOM      2  C   UNL     1      46.026   3.553  13.245  0.00  0.00    +0.000 A 
ATOM      3  C   UNL     1      46.799   4.464  13.986  0.00  0.00    +0.000 A 
ATOM      4  C   UNL     1      47.042   5.726  13.437  0.00  0.00    +0.000 A 
ATOM      5  C   UNL     1      46.504   6.075  12.195  0.00  0.00    +0.000 A 
ATOM      6  C   UNL     1      45.705   5.178  11.460  0.00  0.00    +0.000 A 
ENDROOT
BRANCH   1   8
ATOM      7  C   UNL     1      43.375   2.892  11.786  0.00  0.00    +0.000 C 
ATOM      8  O   UNL     1      44.746   2.911  11.387  0.00  0.00    +0.000 OA
ENDBRANCH   1   8
BRANCH   3   9
ATOM      9  C   UNL     1      47.320   4.127  15.361  0.00  0.00    +0.000 C 
BRANCH   9  10
ATOM     10  N   UNL     1      47.452   5.310  16.181  0.00  0.00    +0.000 N 
ATOM     11  C   UNL     1      48.622   5.608  16.831  0.00  0.00    +0.000 C 
ATOM     12  O   UNL     1      49.629   4.915  16.707  0.00  0.00    +0.000 OA
ATOM     13  H   UNL     1      46.595   5.773  16.457  0.00  0.00    +0.000 HD
BRANCH  11  14
ATOM     14  C   UNL     1      48.636   6.837  17.647  0.00  0.00    +0.000 A 
ATOM     15  C   UNL     1      48.711   6.740  19.031  0.00  0.00    +0.000 A 
ATOM     16  S   UNL     1      48.790   8.248  19.822  0.00  0.00    +0.000 S 
ATOM     17  C   UNL     1      48.671   9.089  18.349  0.00  0.00    +0.000 A 
ATOM     18  N   UNL     1      48.668  10.450  18.323  0.00  0.00    +0.000 NA
ATOM     19  C   UNL     1      48.538  10.960  17.144  0.00  0.00    +0.000 A 
ATOM     20  N   UNL     1      48.413  10.232  15.989  0.00  0.00    +0.000 N 
ATOM     21  C   UNL     1      48.442   8.858  15.965  0.00  0.00    +0.000 A 
ATOM     22  O   UNL     1      48.364   8.240  14.908  0.00  0.00    +0.000 OA
ATOM     23  C   UNL     1      48.581   8.232  17.267  0.00  0.00    +0.000 A 
ATOM     24  H   UNL     1      48.314  10.693  15.097  0.00  0.00    +0.000 HD
ENDBRANCH  11  14
ENDBRANCH   9  10
ENDBRANCH   3   9
BRANCH   6  25
ATOM     25  C   UNL     1      45.059   5.699  10.194  0.00  0.00    +0.000 C 
BRANCH  25  26
ATOM     26  N   UNL     1      45.661   5.208   8.952  0.00  0.00    +0.000 NA
ATOM     27  H   UNL     1      46.615   4.905   9.148  0.00  0.00    +0.000 HD
BRANCH  26  28
ATOM     28  C   UNL     1      44.951   4.067   8.384  0.00  0.00    +0.000 C 
BRANCH  28  29
ATOM     29  C   UNL     1      45.942   3.088   7.804  0.00  0.00    +0.000 A 
ATOM     30  C   UNL     1      46.788   3.464   6.756  0.00  0.00    +0.000 A 
ATOM     31  C   UNL     1      47.663   2.520   6.239  0.00  0.00    +0.000 A 
ATOM     32  N   UNL     1      47.747   1.250   6.683  0.00  0.00    +0.000 NA
ATOM     33  C   UNL     1      46.903   0.900   7.681  0.00  0.00    +0.000 A 
ATOM     34  C   UNL     1      45.993   1.770   8.262  0.00  0.00    +0.000 A 
ENDBRANCH  28  29
ENDBRANCH  26  28
ENDBRANCH  25  26
ENDBRANCH   6  25
TORSDOF 8
ENDMDL
MODEL 3
REMARK VINA RESULT:    -8.219      1.581      2.334
REMARK INTER + INTRA:         -12.997
REMARK INTER:                 -11.756
REMARK INTRA:                  -1.242
REMARK UNBOUND:                -0.934
REMARK  Name = 
REMARK  9 active torsions:
REMARK  status: ('A' for Active; 'I' for Inactive)
REMARK    1  A    between atoms: C_1  and  O_2
REMARK    2  A    between atoms: O_2  and  C_3
REMARK    3  A    between atoms: C_5  and  C_6
REMARK    4  A    between atoms: C_6  and  N_7
REMARK    5  A    between atoms: C_8  and  C_10
REMARK    6  A    between atoms: C_22  and  C_23
REMARK    7  A    between atoms: C_23  and  N_24
REMARK    8  A    between atoms: N_24  and  C_25
REMARK    9  A    between atoms: C_25  and  C_26
REMARK                            x       y       z     vdW  Elec       q    Type
REMARK                         _______ _______ _______ _____ _____    ______ ____
ROOT
ATOM      1  C   UNL     1      44.905   5.442  12.153  0.00  0.00    +0.000 A 
ATOM      2  C   UNL     1      45.981   6.079  12.800  0.00  0.00    +0.000 A 
ATOM      3  C   UNL     1      46.972   5.343  13.473  0.00  0.00    +0.000 A 
ATOM      4  C   UNL     1      46.875   3.949  13.474  0.00  0.00    +0.000 A 
ATOM      5  C   UNL     1      45.831   3.310  12.800  0.00  0.00    +0.000 A 
ATOM      6  C   UNL     1      44.850   4.039  12.100  0.00  0.00    +0.000 A 
ENDROOT
BRANCH   1   8
ATOM      7  C   UNL     1      44.469   7.642  11.394  0.00  0.00    +0.000 C 
ATOM      8  O   UNL     1      44.035   6.286  11.505  0.00  0.00    +0.000 OA
ENDBRANCH   1   8
BRANCH   3   9
ATOM      9  C   UNL     1      48.146   6.019  14.138  0.00  0.00    +0.000 C 
BRANCH   9  10
ATOM     10  N   UNL     1      47.879   6.286  15.533  0.00  0.00    +0.000 N 
ATOM     11  C   UNL     1      48.804   6.012  16.508  0.00  0.00    +0.000 C 
ATOM     12  O   UNL     1      49.923   5.579  16.239  0.00  0.00    +0.000 OA
ATOM     13  H   UNL     1      46.913   6.445  15.792  0.00  0.00    +0.000 HD
BRANCH  11  14
ATOM     14  C   UNL     1      48.417   6.318  17.898  0.00  0.00    +0.000 A 
ATOM     15  C   UNL     1      48.374   5.295  18.837  0.00  0.00    +0.000 A 
ATOM     16  S   UNL     1      47.980   5.823  20.410  0.00  0.00    +0.000 S 
ATOM     17  C   UNL     1      47.797   7.429  19.884  0.00  0.00    +0.000 A 
ATOM     18  N   UNL     1      47.444   8.412  20.758  0.00  0.00    +0.000 NA
ATOM     19  C   UNL     1      47.307   9.578  20.222  0.00  0.00    +0.000 A 
ATOM     20  N   UNL     1      47.492   9.851  18.891  0.00  0.00    +0.000 N 
ATOM     21  C   UNL     1      47.878   8.897  17.979  0.00  0.00    +0.000 A 
ATOM     22  O   UNL     1      48.070   9.185  16.802  0.00  0.00    +0.000 OA
ATOM     23  C   UNL     1      48.042   7.564  18.529  0.00  0.00    +0.000 A 
ATOM     24  H   UNL     1      47.368  10.786  18.534  0.00  0.00    +0.000 HD
ENDBRANCH  11  14
ENDBRANCH   9  10
ENDBRANCH   3   9
BRANCH   6  25
ATOM     25  C   UNL     1      43.843   3.251  11.290  0.00  0.00    +0.000 C 
BRANCH  25  26
ATOM     26  N   UNL     1      44.412   2.503  10.166  0.00  0.00    +0.000 NA
ATOM     27  H   UNL     1      43.716   1.837   9.830  0.00  0.00    +0.000 HD
BRANCH  26  28
ATOM     28  C   UNL     1      44.777   3.355   9.039  0.00  0.00    +0.000 C 
BRANCH  28  29
ATOM     29  C   UNL     1      45.834   2.671   8.206  0.00  0.00    +0.000 A 
ATOM     30  C   UNL     1      46.030   1.289   8.293  0.00  0.00    +0.000 A 
ATOM     31  C   UNL     1      47.032   0.712   7.528  0.00  0.00    +0.000 A 
ATOM     32  N   UNL     1      47.841   1.405   6.702  0.00  0.00    +0.000 NA
ATOM     33  C   UNL     1      47.651   2.743   6.651  0.00  0.00    +0.000 A 
ATOM     34  C   UNL     1      46.678   3.413   7.376  0.00  0.00    +0.000 A 
ENDBRANCH  28  29
ENDBRANCH  26  28
ENDBRANCH  25  26
ENDBRANCH   6  25
TORSDOF 8
ENDMDL
MODEL 4
REMARK VINA RESULT:    -7.546      2.653      3.403
REMARK INTER + INTRA:         -12.009
REMARK INTER:                 -10.750
REMARK INTRA:                  -1.259
REMARK UNBOUND:                -0.934
REMARK  Name = 
REMARK  9 active torsions:
REMARK  status: ('A' for Active; 'I' for Inactive)
REMARK    1  A    between atoms: C_1  and  O_2
REMARK    2  A    between atoms: O_2  and  C_3
REMARK    3  A    between atoms: C_5  and  C_6
REMARK    4  A    between atoms: C_6  and  N_7
REMARK    5  A    between atoms: C_8  and  C_10
REMARK    6  A    between atoms: C_22  and  C_23
REMARK    7  A    between atoms: C_23  and  N_24
REMARK    8  A    between atoms: N_24  and  C_25
REMARK    9  A    between atoms: C_25  and  C_26
REMARK                            x       y       z     vdW  Elec       q    Type
REMARK                         _______ _______ _______ _____ _____    ______ ____
ROOT
ATOM      1  C   UNL     1      46.685   6.248  12.883  0.00  0.00    +0.000 A 
ATOM      2  C   UNL     1      47.603   6.907  13.723  0.00  0.00    +0.000 A 
ATOM      3  C   UNL     1      48.066   6.316  14.911  0.00  0.00    +0.000 A 
ATOM      4  C   UNL     1      47.602   5.040  15.240  0.00  0.00    +0.000 A 
ATOM      5  C   UNL     1      46.721   4.364  14.390  0.00  0.00    +0.000 A 
ATOM      6  C   UNL     1      46.275   4.938  13.184  0.00  0.00    +0.000 A 
ENDROOT
BRANCH   1   8
ATOM      7  C   UNL     1      45.623   8.142  11.939  0.00  0.00    +0.000 C 
ATOM      8  O   UNL     1      46.352   6.930  11.738  0.00  0.00    +0.000 OA
ENDBRANCH   1   8
BRANCH   3   9
ATOM      9  C   UNL     1      49.076   7.003  15.797  0.00  0.00    +0.000 C 
BRANCH   9  10
ATOM     10  N   UNL     1      50.092   6.081  16.252  0.00  0.00    +0.000 N 
ATOM     11  C   UNL     1      50.323   5.868  17.587  0.00  0.00    +0.000 C 
ATOM     12  O   UNL     1      49.645   6.407  18.459  0.00  0.00    +0.000 OA
ATOM     13  H   UNL     1      50.784   5.791  15.572  0.00  0.00    +0.000 HD
BRANCH  11  14
ATOM     14  C   UNL     1      51.392   4.912  17.933  0.00  0.00    +0.000 A 
ATOM     15  C   UNL     1      52.566   5.378  18.512  0.00  0.00    +0.000 A 
ATOM     16  S   UNL     1      53.669   4.142  18.917  0.00  0.00    +0.000 S 
ATOM     17  C   UNL     1      52.644   2.943  18.282  0.00  0.00    +0.000 A 
ATOM     18  N   UNL     1      53.010   1.631  18.303  0.00  0.00    +0.000 NA
ATOM     19  C   UNL     1      52.155   0.831  17.759  0.00  0.00    +0.000 A 
ATOM     20  N   UNL     1      50.968   1.223  17.198  0.00  0.00    +0.000 N 
ATOM     21  C   UNL     1      50.545   2.531  17.180  0.00  0.00    +0.000 A 
ATOM     22  O   UNL     1      49.458   2.841  16.701  0.00  0.00    +0.000 OA
ATOM     23  C   UNL     1      51.472   3.476  17.776  0.00  0.00    +0.000 A 
ATOM     24  H   UNL     1      50.343   0.546  16.787  0.00  0.00    +0.000 HD
ENDBRANCH  11  14
ENDBRANCH   9  10
ENDBRANCH   3   9
BRANCH   6  25
ATOM     25  C   UNL     1      45.435   4.072  12.271  0.00  0.00    +0.000 C 
BRANCH  25  26
ATOM     26  N   UNL     1      44.646   4.810  11.281  0.00  0.00    +0.000 NA
ATOM     27  H   UNL     1      45.271   5.419  10.753  0.00  0.00    +0.000 HD
BRANCH  26  28
ATOM     28  C   UNL     1      43.973   3.941  10.321  0.00  0.00    +0.000 C 
BRANCH  28  29
ATOM     29  C   UNL     1      44.968   3.444   9.301  0.00  0.00    +0.000 A 
ATOM     30  C   UNL     1      45.626   4.338   8.449  0.00  0.00    +0.000 A 
ATOM     31  C   UNL     1      46.510   3.830   7.510  0.00  0.00    +0.000 A 
ATOM     32  N   UNL     1      46.775   2.517   7.360  0.00  0.00    +0.000 NA
ATOM     33  C   UNL     1      46.111   1.668   8.176  0.00  0.00    +0.000 A 
ATOM     34  C   UNL     1      45.207   2.077   9.145  0.00  0.00    +0.000 A 
ENDBRANCH  28  29
ENDBRANCH  26  28
ENDBRANCH  25  26
ENDBRANCH   6  25
TORSDOF 8
ENDMDL
MODEL 5
REMARK VINA RESULT:    -7.311      3.471      8.551
REMARK INTER + INTRA:         -11.665
REMARK INTER:                 -10.180
REMARK INTRA:                  -1.485
REMARK UNBOUND:                -0.934
REMARK  Name = 
REMARK  9 active torsions:
REMARK  status: ('A' for Active; 'I' for Inactive)
REMARK    1  A    between atoms: C_1  and  O_2
REMARK    2  A    between atoms: O_2  and  C_3
REMARK    3  A    between atoms: C_5  and  C_6
REMARK    4  A    between atoms: C_6  and  N_7
REMARK    5  A    between atoms: C_8  and  C_10
REMARK    6  A    between atoms: C_22  and  C_23
REMARK    7  A    between atoms: C_23  and  N_24
REMARK    8  A    between atoms: N_24  and  C_25
REMARK    9  A    between atoms: C_25  and  C_26
REMARK                            x       y       z     vdW  Elec       q    Type
REMARK                         _______ _______ _______ _____ _____    ______ ____
ROOT
ATOM      1  C   UNL     1      50.847   7.721  14.999  0.00  0.00    +0.000 A 
ATOM      2  C   UNL     1      50.301   8.055  13.745  0.00  0.00    +0.000 A 
ATOM      3  C   UNL     1      49.015   7.628  13.367  0.00  0.00    +0.000 A 
ATOM      4  C   UNL     1      48.276   6.869  14.278  0.00  0.00    +0.000 A 
ATOM      5  C   UNL     1      48.798   6.568  15.539  0.00  0.00    +0.000 A 
ATOM      6  C   UNL     1      50.073   7.016  15.935  0.00  0.00    +0.000 A 
ENDROOT
BRANCH   1   8
ATOM      7  C   UNL     1      52.769   8.777  14.105  0.00  0.00    +0.000 C 
ATOM      8  O   UNL     1      52.095   8.239  15.245  0.00  0.00    +0.000 OA
ENDBRANCH   1   8
BRANCH   3   9
ATOM      9  C   UNL     1      48.411   8.012  12.039  0.00  0.00    +0.000 C 
BRANCH   9  10
ATOM     10  N   UNL     1      47.673   6.913  11.458  0.00  0.00    +0.000 N 
ATOM     11  C   UNL     1      46.303   6.918  11.402  0.00  0.00    +0.000 C 
ATOM     12  O   UNL     1      45.639   7.877  11.792  0.00  0.00    +0.000 OA
ATOM     13  H   UNL     1      48.176   6.045  11.323  0.00  0.00    +0.000 HD
BRANCH  11  14
ATOM     14  C   UNL     1      45.657   5.738  10.796  0.00  0.00    +0.000 A 
ATOM     15  C   UNL     1      45.795   5.507   9.433  0.00  0.00    +0.000 A 
ATOM     16  S   UNL     1      45.052   4.067   8.902  0.00  0.00    +0.000 S 
ATOM     17  C   UNL     1      44.469   3.728  10.462  0.00  0.00    +0.000 A 
ATOM     18  N   UNL     1      43.722   2.614  10.700  0.00  0.00    +0.000 NA
ATOM     19  C   UNL     1      43.316   2.495  11.919  0.00  0.00    +0.000 A 
ATOM     20  N   UNL     1      43.589   3.388  12.923  0.00  0.00    +0.000 N 
ATOM     21  C   UNL     1      44.363   4.509  12.737  0.00  0.00    +0.000 A 
ATOM     22  O   UNL     1      44.618   5.267  13.667  0.00  0.00    +0.000 OA
ATOM     23  C   UNL     1      44.843   4.694  11.379  0.00  0.00    +0.000 A 
ATOM     24  H   UNL     1      43.240   3.236  13.857  0.00  0.00    +0.000 HD
ENDBRANCH  11  14
ENDBRANCH   9  10
ENDBRANCH   3   9
BRANCH   6  25
ATOM     25  C   UNL     1      50.488   6.754  17.368  0.00  0.00    +0.000 C 
BRANCH  25  26
ATOM     26  N   UNL     1      49.408   6.292  18.243  0.00  0.00    +0.000 NA
ATOM     27  H   UNL     1      48.586   6.095  17.673  0.00  0.00    +0.000 HD
BRANCH  26  28
ATOM     28  C   UNL     1      49.741   5.066  18.963  0.00  0.00    +0.000 C 
BRANCH  28  29
ATOM     29  C   UNL     1      49.609   3.882  18.038  0.00  0.00    +0.000 A 
ATOM     30  C   UNL     1      50.711   3.067  17.757  0.00  0.00    +0.000 A 
ATOM     31  C   UNL     1      50.545   2.007  16.879  0.00  0.00    +0.000 A 
ATOM     32  N   UNL     1      49.380   1.711  16.268  0.00  0.00    +0.000 NA
ATOM     33  C   UNL     1      48.334   2.525  16.534  0.00  0.00    +0.000 A 
ATOM     34  C   UNL     1      48.399   3.610  17.396  0.00  0.00    +0.000 A 
ENDBRANCH  28  29
ENDBRANCH  26  28
ENDBRANCH  25  26
ENDBRANCH   6  25
TORSDOF 8
ENDMDL
MODEL 6
REMARK VINA RESULT:    -7.248      3.543      8.316
REMARK INTER + INTRA:         -11.573
REMARK INTER:                  -9.559
REMARK INTRA:                  -2.014
REMARK UNBOUND:                -0.934
REMARK  Name = 
REMARK  9 active torsions:
REMARK  status: ('A' for Active; 'I' for Inactive)
REMARK    1  A    between atoms: C_1  and  O_2
REMARK    2  A    between atoms: O_2  and  C_3
REMARK    3  A    between atoms: C_5  and  C_6
REMARK    4  A    between atoms: C_6  and  N_7
REMARK    5  A    between atoms: C_8  and  C_10
REMARK    6  A    between atoms: C_22  and  C_23
REMARK    7  A    between atoms: C_23  and  N_24
REMARK    8  A    between atoms: N_24  and  C_25
REMARK    9  A    between atoms: C_25  and  C_26
REMARK                            x       y       z     vdW  Elec       q    Type
REMARK                         _______ _______ _______ _____ _____    ______ ____
ROOT
ATOM      1  C   UNL     1      50.301   6.772  16.657  0.00  0.00    +0.000 A 
ATOM      2  C   UNL     1      49.781   7.326  15.471  0.00  0.00    +0.000 A 
ATOM      3  C   UNL     1      48.700   8.225  15.494  0.00  0.00    +0.000 A 
ATOM      4  C   UNL     1      48.155   8.574  16.732  0.00  0.00    +0.000 A 
ATOM      5  C   UNL     1      48.693   8.058  17.914  0.00  0.00    +0.000 A 
ATOM      6  C   UNL     1      49.793   7.179  17.902  0.00  0.00    +0.000 A 
ENDROOT
BRANCH   1   8
ATOM      7  C   UNL     1      52.614   6.595  16.182  0.00  0.00    +0.000 C 
ATOM      8  O   UNL     1      51.380   5.940  16.484  0.00  0.00    +0.000 OA
ENDBRANCH   1   8
BRANCH   3   9
ATOM      9  C   UNL     1      48.162   8.848  14.229  0.00  0.00    +0.000 C 
BRANCH   9  10
ATOM     10  N   UNL     1      46.983   8.155  13.760  0.00  0.00    +0.000 N 
ATOM     11  C   UNL     1      47.037   7.272  12.713  0.00  0.00    +0.000 C 
ATOM     12  O   UNL     1      48.096   6.986  12.157  0.00  0.00    +0.000 OA
ATOM     13  H   UNL     1      46.088   8.522  14.060  0.00  0.00    +0.000 HD
BRANCH  11  14
ATOM     14  C   UNL     1      45.770   6.632  12.316  0.00  0.00    +0.000 A 
ATOM     15  C   UNL     1      44.756   7.404  11.762  0.00  0.00    +0.000 A 
ATOM     16  S   UNL     1      43.386   6.505  11.291  0.00  0.00    +0.000 S 
ATOM     17  C   UNL     1      44.072   5.057  11.861  0.00  0.00    +0.000 A 
ATOM     18  N   UNL     1      43.393   3.881  11.769  0.00  0.00    +0.000 NA
ATOM     19  C   UNL     1      44.014   2.866  12.269  0.00  0.00    +0.000 A 
ATOM     20  N   UNL     1      45.254   2.921  12.852  0.00  0.00    +0.000 N 
ATOM     21  C   UNL     1      45.989   4.079  12.940  0.00  0.00    +0.000 A 
ATOM     22  O   UNL     1      47.111   4.084  13.435  0.00  0.00    +0.000 OA
ATOM     23  C   UNL     1      45.333   5.255  12.395  0.00  0.00    +0.000 A 
ATOM     24  H   UNL     1      45.685   2.089  13.226  0.00  0.00    +0.000 HD
ENDBRANCH  11  14
ENDBRANCH   9  10
ENDBRANCH   3   9
BRANCH   6  25
ATOM     25  C   UNL     1      50.386   6.787  19.239  0.00  0.00    +0.000 C 
BRANCH  25  26
ATOM     26  N   UNL     1      50.533   5.344  19.444  0.00  0.00    +0.000 NA
ATOM     27  H   UNL     1      50.942   5.185  20.365  0.00  0.00    +0.000 HD
BRANCH  26  28
ATOM     28  C   UNL     1      49.263   4.627  19.403  0.00  0.00    +0.000 C 
BRANCH  28  29
ATOM     29  C   UNL     1      49.275   3.635  18.267  0.00  0.00    +0.000 A 
ATOM     30  C   UNL     1      50.444   2.943  17.934  0.00  0.00    +0.000 A 
ATOM     31  C   UNL     1      50.411   2.062  16.864  0.00  0.00    +0.000 A 
ATOM     32  N   UNL     1      49.315   1.831  16.113  0.00  0.00    +0.000 NA
ATOM     33  C   UNL     1      48.202   2.528  16.436  0.00  0.00    +0.000 A 
ATOM     34  C   UNL     1      48.135   3.431  17.487  0.00  0.00    +0.000 A 
ENDBRANCH  28  29
ENDBRANCH  26  28
ENDBRANCH  25  26
ENDBRANCH   6  25
TORSDOF 8
ENDMDL
MODEL 7
REMARK VINA RESULT:    -7.200      3.588      8.485
REMARK INTER + INTRA:         -11.501
REMARK INTER:                  -9.559
REMARK INTRA:                  -1.942
REMARK UNBOUND:                -0.934
REMARK  Name = 
REMARK  9 active torsions:
REMARK  status: ('A' for Active; 'I' for Inactive)
REMARK    1  A    between atoms: C_1  and  O_2
REMARK    2  A    between atoms: O_2  and  C_3
REMARK    3  A    between atoms: C_5  and  C_6
REMARK    4  A    between atoms: C_6  and  N_7
REMARK    5  A    between atoms: C_8  and  C_10
REMARK    6  A    between atoms: C_22  and  C_23
REMARK    7  A    between atoms: C_23  and  N_24
REMARK    8  A    between atoms: N_24  and  C_25
REMARK    9  A    between atoms: C_25  and  C_26
REMARK                            x       y       z     vdW  Elec       q    Type
REMARK                         _______ _______ _______ _____ _____    ______ ____
ROOT
ATOM      1  C   UNL     1      49.136   7.727  18.490  0.00  0.00    +0.000 A 
ATOM      2  C   UNL     1      48.644   8.173  17.248  0.00  0.00    +0.000 A 
ATOM      3  C   UNL     1      49.186   7.713  16.035  0.00  0.00    +0.000 A 
ATOM      4  C   UNL     1      50.226   6.781  16.087  0.00  0.00    +0.000 A 
ATOM      5  C   UNL     1      50.692   6.305  17.315  0.00  0.00    +0.000 A 
ATOM      6  C   UNL     1      50.135   6.739  18.533  0.00  0.00    +0.000 A 
ENDROOT
BRANCH   1   8
ATOM      7  C   UNL     1      47.191   8.782  19.332  0.00  0.00    +0.000 C 
ATOM      8  O   UNL     1      48.485   8.232  19.588  0.00  0.00    +0.000 OA
ENDBRANCH   1   8
BRANCH   3   9
ATOM      9  C   UNL     1      48.640   8.162  14.702  0.00  0.00    +0.000 C 
BRANCH   9  10
ATOM     10  N   UNL     1      47.586   7.286  14.242  0.00  0.00    +0.000 N 
ATOM     11  C   UNL     1      47.788   6.391  13.223  0.00  0.00    +0.000 C 
ATOM     12  O   UNL     1      48.887   6.251  12.689  0.00  0.00    +0.000 OA
ATOM     13  H   UNL     1      46.641   7.522  14.520  0.00  0.00    +0.000 HD
BRANCH  11  14
ATOM     14  C   UNL     1      46.637   5.556  12.832  0.00  0.00    +0.000 A 
ATOM     15  C   UNL     1      46.713   4.175  12.976  0.00  0.00    +0.000 A 
ATOM     16  S   UNL     1      45.277   3.361  12.548  0.00  0.00    +0.000 S 
ATOM     17  C   UNL     1      44.519   4.816  12.101  0.00  0.00    +0.000 A 
ATOM     18  N   UNL     1      43.245   4.820  11.622  0.00  0.00    +0.000 NA
ATOM     19  C   UNL     1      42.804   5.986  11.289  0.00  0.00    +0.000 A 
ATOM     20  N   UNL     1      43.521   7.150  11.392  0.00  0.00    +0.000 N 
ATOM     21  C   UNL     1      44.799   7.198  11.897  0.00  0.00    +0.000 A 
ATOM     22  O   UNL     1      45.398   8.263  12.009  0.00  0.00    +0.000 OA
ATOM     23  C   UNL     1      45.347   5.910  12.283  0.00  0.00    +0.000 A 
ATOM     24  H   UNL     1      43.117   8.031  11.113  0.00  0.00    +0.000 HD
ENDBRANCH  11  14
ENDBRANCH   9  10
ENDBRANCH   3   9
BRANCH   6  25
ATOM     25  C   UNL     1      50.615   6.061  19.799  0.00  0.00    +0.000 C 
BRANCH  25  26
ATOM     26  N   UNL     1      50.270   4.641  19.901  0.00  0.00    +0.000 NA
ATOM     27  H   UNL     1      50.594   4.290  20.803  0.00  0.00    +0.000 HD
BRANCH  26  28
ATOM     28  C   UNL     1      48.834   4.394  19.829  0.00  0.00    +0.000 C 
BRANCH  28  29
ATOM     29  C   UNL     1      48.476   3.873  18.459  0.00  0.00    +0.000 A 
ATOM     30  C   UNL     1      49.227   2.855  17.862  0.00  0.00    +0.000 A 
ATOM     31  C   UNL     1      48.874   2.430  16.590  0.00  0.00    +0.000 A 
ATOM     32  N   UNL     1      47.847   2.943  15.883  0.00  0.00    +0.000 NA
ATOM     33  C   UNL     1      47.150   3.943  16.468  0.00  0.00    +0.000 A 
ATOM     34  C   UNL     1      47.424   4.438  17.734  0.00  0.00    +0.000 A 
ENDBRANCH  28  29
ENDBRANCH  26  28
ENDBRANCH  25  26
ENDBRANCH   6  25
TORSDOF 8
ENDMDL
MODEL 8
REMARK VINA RESULT:    -7.117      3.770      9.711
REMARK INTER + INTRA:         -11.380
REMARK INTER:                  -9.446
REMARK INTRA:                  -1.934
REMARK UNBOUND:                -0.934
REMARK  Name = 
REMARK  9 active torsions:
REMARK  status: ('A' for Active; 'I' for Inactive)
REMARK    1  A    between atoms: C_1  and  O_2
REMARK    2  A    between atoms: O_2  and  C_3
REMARK    3  A    between atoms: C_5  and  C_6
REMARK    4  A    between atoms: C_6  and  N_7
REMARK    5  A    between atoms: C_8  and  C_10
REMARK    6  A    between atoms: C_22  and  C_23
REMARK    7  A    between atoms: C_23  and  N_24
REMARK    8  A    between atoms: N_24  and  C_25
REMARK    9  A    between atoms: C_25  and  C_26
REMARK                            x       y       z     vdW  Elec       q    Type
REMARK                         _______ _______ _______ _____ _____    ______ ____
ROOT
ATOM      1  C   UNL     1      50.426   5.666  17.293  0.00  0.00    +0.000 A 
ATOM      2  C   UNL     1      49.129   5.274  16.906  0.00  0.00    +0.000 A 
ATOM      3  C   UNL     1      48.725   3.929  16.955  0.00  0.00    +0.000 A 
ATOM      4  C   UNL     1      49.640   2.978  17.415  0.00  0.00    +0.000 A 
ATOM      5  C   UNL     1      50.913   3.367  17.838  0.00  0.00    +0.000 A 
ATOM      6  C   UNL     1      51.317   4.716  17.819  0.00  0.00    +0.000 A 
ENDROOT
BRANCH   1   8
ATOM      7  C   UNL     1      49.513   7.835  17.026  0.00  0.00    +0.000 C 
ATOM      8  O   UNL     1      50.667   7.017  17.230  0.00  0.00    +0.000 OA
ENDBRANCH   1   8
BRANCH   3   9
ATOM      9  C   UNL     1      47.327   3.508  16.573  0.00  0.00    +0.000 C 
BRANCH   9  10
ATOM     10  N   UNL     1      46.723   4.451  15.660  0.00  0.00    +0.000 N 
ATOM     11  C   UNL     1      46.724   4.242  14.304  0.00  0.00    +0.000 C 
ATOM     12  O   UNL     1      47.189   3.220  13.805  0.00  0.00    +0.000 OA
ATOM     13  H   UNL     1      46.523   5.375  16.023  0.00  0.00    +0.000 HD
BRANCH  11  14
ATOM     14  C   UNL     1      46.086   5.278  13.470  0.00  0.00    +0.000 A 
ATOM     15  C   UNL     1      46.753   6.475  13.236  0.00  0.00    +0.000 A 
ATOM     16  S   UNL     1      45.916   7.535  12.196  0.00  0.00    +0.000 S 
ATOM     17  C   UNL     1      44.605   6.460  12.066  0.00  0.00    +0.000 A 
ATOM     18  N   UNL     1      43.516   6.777  11.311  0.00  0.00    +0.000 NA
ATOM     19  C   UNL     1      42.580   5.889  11.326  0.00  0.00    +0.000 A 
ATOM     20  N   UNL     1      42.634   4.711  12.025  0.00  0.00    +0.000 N 
ATOM     21  C   UNL     1      43.724   4.336  12.775  0.00  0.00    +0.000 A 
ATOM     22  O   UNL     1      43.753   3.257  13.359  0.00  0.00    +0.000 OA
ATOM     23  C   UNL     1      44.806   5.304  12.798  0.00  0.00    +0.000 A 
ATOM     24  H   UNL     1      41.866   4.058  11.995  0.00  0.00    +0.000 HD
ENDBRANCH  11  14
ENDBRANCH   9  10
ENDBRANCH   3   9
BRANCH   6  25
ATOM     25  C   UNL     1      52.663   5.048  18.427  0.00  0.00    +0.000 C 
BRANCH  25  26
ATOM     26  N   UNL     1      52.642   6.140  19.403  0.00  0.00    +0.000 NA
ATOM     27  H   UNL     1      52.002   6.862  19.072  0.00  0.00    +0.000 HD
BRANCH  26  28
ATOM     28  C   UNL     1      52.179   5.720  20.721  0.00  0.00    +0.000 C 
BRANCH  28  29
ATOM     29  C   UNL     1      50.700   5.988  20.850  0.00  0.00    +0.000 A 
ATOM     30  C   UNL     1      49.798   4.938  21.053  0.00  0.00    +0.000 A 
ATOM     31  C   UNL     1      48.446   5.232  21.137  0.00  0.00    +0.000 A 
ATOM     32  N   UNL     1      47.939   6.476  21.029  0.00  0.00    +0.000 NA
ATOM     33  C   UNL     1      48.825   7.474  20.809  0.00  0.00    +0.000 A 
ATOM     34  C   UNL     1      50.194   7.282  20.709  0.00  0.00    +0.000 A 
ENDBRANCH  28  29
ENDBRANCH  26  28
ENDBRANCH  25  26
ENDBRANCH   6  25
TORSDOF 8
ENDMDL
MODEL 9
REMARK VINA RESULT:    -7.024      1.796      2.121
REMARK INTER + INTRA:         -11.243
REMARK INTER:                  -9.988
REMARK INTRA:                  -1.256
REMARK UNBOUND:                -0.934
REMARK  Name = 
REMARK  9 active torsions:
REMARK  status: ('A' for Active; 'I' for Inactive)
REMARK    1  A    between atoms: C_1  and  O_2
REMARK    2  A    between atoms: O_2  and  C_3
REMARK    3  A    between atoms: C_5  and  C_6
REMARK    4  A    between atoms: C_6  and  N_7
REMARK    5  A    between atoms: C_8  and  C_10
REMARK    6  A    between atoms: C_22  and  C_23
REMARK    7  A    between atoms: C_23  and  N_24
REMARK    8  A    between atoms: N_24  and  C_25
REMARK    9  A    between atoms: C_25  and  C_26
REMARK                            x       y       z     vdW  Elec       q    Type
REMARK                         _______ _______ _______ _____ _____    ______ ____
ROOT
ATOM      1  C   UNL     1      45.451   7.337  12.225  0.00  0.00    +0.000 A 
ATOM      2  C   UNL     1      46.675   7.702  12.818  0.00  0.00    +0.000 A 
ATOM      3  C   UNL     1      47.522   6.744  13.402  0.00  0.00    +0.000 A 
ATOM      4  C   UNL     1      47.127   5.404  13.369  0.00  0.00    +0.000 A 
ATOM      5  C   UNL     1      45.933   5.031  12.747  0.00  0.00    +0.000 A 
ATOM      6  C   UNL     1      45.093   5.981  12.134  0.00  0.00    +0.000 A 
ENDROOT
BRANCH   1   8
ATOM      7  C   UNL     1      45.215   9.681  11.993  0.00  0.00    +0.000 C 
ATOM      8  O   UNL     1      44.747   8.373  11.661  0.00  0.00    +0.000 OA
ENDBRANCH   1   8
BRANCH   3   9
ATOM      9  C   UNL     1      48.850   7.126  14.009  0.00  0.00    +0.000 C 
BRANCH   9  10
ATOM     10  N   UNL     1      48.929   6.730  15.397  0.00  0.00    +0.000 N 
ATOM     11  C   UNL     1      48.820   7.645  16.413  0.00  0.00    +0.000 C 
ATOM     12  O   UNL     1      48.596   8.834  16.196  0.00  0.00    +0.000 OA
ATOM     13  H   UNL     1      49.310   5.812  15.590  0.00  0.00    +0.000 HD
BRANCH  11  14
ATOM     14  C   UNL     1      48.926   7.127  17.789  0.00  0.00    +0.000 A 
ATOM     15  C   UNL     1      47.941   7.443  18.718  0.00  0.00    +0.000 A 
ATOM     16  S   UNL     1      48.171   6.710  20.240  0.00  0.00    +0.000 S 
ATOM     17  C   UNL     1      49.625   5.987  19.733  0.00  0.00    +0.000 A 
ATOM     18  N   UNL     1      50.352   5.214  20.586  0.00  0.00    +0.000 NA
ATOM     19  C   UNL     1      51.449   4.755  20.085  0.00  0.00    +0.000 A 
ATOM     20  N   UNL     1      51.885   4.998  18.808  0.00  0.00    +0.000 N 
ATOM     21  C   UNL     1      51.170   5.748  17.904  0.00  0.00    +0.000 A 
ATOM     22  O   UNL     1      51.573   5.915  16.757  0.00  0.00    +0.000 OA
ATOM     23  C   UNL     1      49.927   6.294  18.418  0.00  0.00    +0.000 A 
ATOM     24  H   UNL     1      52.755   4.610  18.477  0.00  0.00    +0.000 HD
ENDBRANCH  11  14
ENDBRANCH   9  10
ENDBRANCH   3   9
BRANCH   6  25
ATOM     25  C   UNL     1      43.895   5.460  11.369  0.00  0.00    +0.000 C 
BRANCH  25  26
ATOM     26  N   UNL     1      44.184   5.028  10.000  0.00  0.00    +0.000 NA
ATOM     27  H   UNL     1      45.128   5.328   9.754  0.00  0.00    +0.000 HD
BRANCH  26  28
ATOM     28  C   UNL     1      44.133   3.579   9.834  0.00  0.00    +0.000 C 
BRANCH  28  29
ATOM     29  C   UNL     1      45.170   3.145   8.827  0.00  0.00    +0.000 A 
ATOM     30  C   UNL     1      45.557   1.804   8.732  0.00  0.00    +0.000 A 
ATOM     31  C   UNL     1      46.533   1.460   7.810  0.00  0.00    +0.000 A 
ATOM     32  N   UNL     1      47.144   2.344   6.995  0.00  0.00    +0.000 NA
ATOM     33  C   UNL     1      46.773   3.638   7.121  0.00  0.00    +0.000 A 
ATOM     34  C   UNL     1      45.808   4.082   8.012  0.00  0.00    +0.000 A 
ENDBRANCH  28  29
ENDBRANCH  26  28
ENDBRANCH  25  26
ENDBRANCH   6  25
TORSDOF 8
ENDMDL
