MODEL 1
REMARK VINA RESULT:    -7.473      0.000      0.000
REMARK INTER + INTRA:          -9.561
REMARK INTER:                  -9.220
REMARK INTRA:                  -0.341
REMARK UNBOUND:                -0.341
REMARK  Name = 
REMARK  5 active torsions:
REMARK  status: ('A' for Active; 'I' for Inactive)
REMARK    1  A    between atoms: C_1  and  N_2
REMARK    2  A    between atoms: C_5  and  C_6
REMARK    3  A    between atoms: C_6  and  O_7
REMARK    4  A    between atoms: O_7  and  C_8
REMARK    5  A    between atoms: C_11  and  C_12
REMARK                            x       y       z     vdW  Elec       q    Type
REMARK                         _______ _______ _______ _____ _____    ______ ____
ROOT
ATOM      1  C   UNL     1      44.611   3.947   8.923  0.00  0.00    +0.000 A 
ATOM      2  C   UNL     1      44.638   2.581   9.195  0.00  0.00    +0.000 A 
ATOM      3  N   UNL     1      45.534   1.728   8.622  0.00  0.00    +0.000 NA
ATOM      4  C   UNL     1      46.406   2.322   7.756  0.00  0.00    +0.000 A 
ATOM      5  C   UNL     1      46.383   3.682   7.488  0.00  0.00    +0.000 A 
ATOM      6  N   UNL     1      45.487   4.521   8.067  0.00  0.00    +0.000 NA
ENDROOT
BRANCH   4   7
ATOM      7  C   UNL     1      47.411   1.472   7.061  0.00  0.00    +0.000 C 
ATOM      8  N   UNL     1      48.518   2.110   6.577  0.00  0.00    +0.000 N 
ATOM      9  O   UNL     1      47.260   0.263   6.930  0.00  0.00    +0.000 OA
ATOM     10  H   UNL     1      48.632   3.110   6.698  0.00  0.00    +0.000 HD
ATOM     11  H   UNL     1      49.232   1.568   6.110  0.00  0.00    +0.000 HD
ENDBRANCH   4   7
BRANCH   1  12
ATOM     12  O   UNL     1      43.647   4.725   9.535  0.00  0.00    +0.000 OA
BRANCH  12  13
ATOM     13  C   UNL     1      43.346   4.260  10.859  0.00  0.00    +0.000 C 
BRANCH  13  18
ATOM     14  C   UNL     1      47.240   5.831  13.089  0.00  0.00    +0.000 C 
ATOM     15  N   UNL     1      45.798   6.068  12.971  0.00  0.00    +0.000 NA
ATOM     16  C   UNL     1      45.465   6.468  11.597  0.00  0.00    +0.000 C 
ATOM     17  C   UNL     1      43.960   6.682  11.414  0.00  0.00    +0.000 C 
ATOM     18  C   UNL     1      43.148   5.446  11.821  0.00  0.00    +0.000 C 
ATOM     19  C   UNL     1      43.540   5.060  13.255  0.00  0.00    +0.000 C 
ATOM     20  C   UNL     1      45.054   4.881  13.416  0.00  0.00    +0.000 C 
ENDBRANCH  13  18
ENDBRANCH  12  13
ENDBRANCH   1  12
TORSDOF 4
ENDMDL
MODEL 2
REMARK VINA RESULT:    -6.573      1.386      1.919
REMARK INTER + INTRA:          -8.452
REMARK INTER:                  -8.090
REMARK INTRA:                  -0.362
REMARK UNBOUND:                -0.341
REMARK  Name = 
REMARK  5 active torsions:
REMARK  status: ('A' for Active; 'I' for Inactive)
REMARK    1  A    between atoms: C_1  and  N_2
REMARK    2  A    between atoms: C_5  and  C_6
REMARK    3  A    between atoms: C_6  and  O_7
REMARK    4  A    between atoms: O_7  and  C_8
REMARK    5  A    between atoms: C_11  and  C_12
REMARK                            x       y       z     vdW  Elec       q    Type
REMARK                         _______ _______ _______ _____ _____    ______ ____
ROOT
ATOM      1  C   UNL     1      44.871   3.927   9.375  0.00  0.00    +0.000 A 
ATOM      2  C   UNL     1      45.789   4.292   8.393  0.00  0.00    +0.000 A 
ATOM      3  N   UNL     1      46.512   3.384   7.679  0.00  0.00    +0.000 NA
ATOM      4  C   UNL     1      46.266   2.082   8.004  0.00  0.00    +0.000 A 
ATOM      5  C   UNL     1      45.350   1.717   8.978  0.00  0.00    +0.000 A 
ATOM      6  N   UNL     1      44.634   2.631   9.681  0.00  0.00    +0.000 NA
ENDROOT
BRANCH   4   7
ATOM      7  C   UNL     1      47.023   1.014   7.296  0.00  0.00    +0.000 C 
ATOM      8  N   UNL     1      46.727  -0.274   7.643  0.00  0.00    +0.000 N 
ATOM      9  O   UNL     1      47.864   1.271   6.443  0.00  0.00    +0.000 OA
ATOM     10  H   UNL     1      46.024  -0.471   8.346  0.00  0.00    +0.000 HD
ATOM     11  H   UNL     1      47.207  -1.031   7.176  0.00  0.00    +0.000 HD
ENDBRANCH   4   7
BRANCH   1  12
ATOM     12  O   UNL     1      44.204   4.922  10.063  0.00  0.00    +0.000 OA
BRANCH  12  13
ATOM     13  C   UNL     1      45.109   5.899  10.600  0.00  0.00    +0.000 C 
BRANCH  13  18
ATOM     14  C   UNL     1      48.705   6.832  13.566  0.00  0.00    +0.000 C 
ATOM     15  N   UNL     1      47.243   6.744  13.511  0.00  0.00    +0.000 NA
ATOM     16  C   UNL     1      46.714   7.748  12.578  0.00  0.00    +0.000 C 
ATOM     17  C   UNL     1      45.190   7.663  12.453  0.00  0.00    +0.000 C 
ATOM     18  C   UNL     1      44.723   6.260  12.046  0.00  0.00    +0.000 C 
ATOM     19  C   UNL     1      45.311   5.247  13.039  0.00  0.00    +0.000 C 
ATOM     20  C   UNL     1      46.833   5.375  13.168  0.00  0.00    +0.000 C 
ENDBRANCH  13  18
ENDBRANCH  12  13
ENDBRANCH   1  12
TORSDOF 4
ENDMDL
MODEL 3
REMARK VINA RESULT:    -6.197      4.143      6.338
REMARK INTER + INTRA:          -7.988
REMARK INTER:                  -7.655
REMARK INTRA:                  -0.333
REMARK UNBOUND:                -0.341
REMARK  Name = 
REMARK  5 active torsions:
REMARK  status: ('A' for Active; 'I' for Inactive)
REMARK    1  A    between atoms: C_1  and  N_2
REMARK    2  A    between atoms: C_5  and  C_6
REMARK    3  A    between atoms: C_6  and  O_7
REMARK    4  A    between atoms: O_7  and  C_8
REMARK    5  A    between atoms: C_11  and  C_12
REMARK                            x       y       z     vdW  Elec       q    Type
REMARK                         _______ _______ _______ _____ _____    ______ ____
ROOT
ATOM      1  C   UNL     1      46.390   3.940  13.603  0.00  0.00    +0.000 A 
ATOM      2  C   UNL     1      46.054   5.283  13.454  0.00  0.00    +0.000 A 
ATOM      3  N   UNL     1      45.139   5.723  12.543  0.00  0.00    +0.000 NA
ATOM      4  C   UNL     1      44.577   4.737  11.785  0.00  0.00    +0.000 A 
ATOM      5  C   UNL     1      44.906   3.400  11.936  0.00  0.00    +0.000 A 
ATOM      6  N   UNL     1      45.817   2.974  12.848  0.00  0.00    +0.000 NA
ENDROOT
BRANCH   4   7
ATOM      7  C   UNL     1      43.581   5.117  10.746  0.00  0.00    +0.000 C 
ATOM      8  N   UNL     1      43.802   4.636   9.486  0.00  0.00    +0.000 N 
ATOM      9  O   UNL     1      42.611   5.821  11.002  0.00  0.00    +0.000 OA
ATOM     10  H   UNL     1      44.605   4.050   9.291  0.00  0.00    +0.000 HD
ATOM     11  H   UNL     1      43.143   4.858   8.753  0.00  0.00    +0.000 HD
ENDBRANCH   4   7
BRANCH   1  12
ATOM     12  O   UNL     1      47.347   3.595  14.537  0.00  0.00    +0.000 OA
BRANCH  12  13
ATOM     13  C   UNL     1      47.445   4.570  15.586  0.00  0.00    +0.000 C 
BRANCH  13  18
ATOM     14  C   UNL     1      50.973   4.659  18.772  0.00  0.00    +0.000 C 
ATOM     15  N   UNL     1      49.593   4.204  18.586  0.00  0.00    +0.000 NA
ATOM     16  C   UNL     1      48.709   5.356  18.360  0.00  0.00    +0.000 C 
ATOM     17  C   UNL     1      47.261   4.925  18.114  0.00  0.00    +0.000 C 
ATOM     18  C   UNL     1      47.145   3.929  16.954  0.00  0.00    +0.000 C 
ATOM     19  C   UNL     1      48.094   2.753  17.228  0.00  0.00    +0.000 C 
ATOM     20  C   UNL     1      49.529   3.215  17.500  0.00  0.00    +0.000 C 
ENDBRANCH  13  18
ENDBRANCH  12  13
ENDBRANCH   1  12
TORSDOF 4
ENDMDL
MODEL 4
REMARK VINA RESULT:    -6.016      2.922      6.638
REMARK INTER + INTRA:          -7.764
REMARK INTER:                  -7.389
REMARK INTRA:                  -0.375
REMARK UNBOUND:                -0.341
REMARK  Name = 
REMARK  5 active torsions:
REMARK  status: ('A' for Active; 'I' for Inactive)
REMARK    1  A    between atoms: C_1  and  N_2
REMARK    2  A    between atoms: C_5  and  C_6
REMARK    3  A    between atoms: C_6  and  O_7
REMARK    4  A    between atoms: O_7  and  C_8
REMARK    5  A    between atoms: C_11  and  C_12
REMARK                            x       y       z     vdW  Elec       q    Type
REMARK                         _______ _______ _______ _____ _____    ______ ____
ROOT
ATOM      1  C   UNL     1      45.878   4.478  13.571  0.00  0.00    +0.000 A 
ATOM      2  C   UNL     1      46.284   5.688  13.014  0.00  0.00    +0.000 A 
ATOM      3  N   UNL     1      47.255   6.470  13.565  0.00  0.00    +0.000 NA
ATOM      4  C   UNL     1      47.800   5.971  14.712  0.00  0.00    +0.000 A 
ATOM      5  C   UNL     1      47.401   4.765  15.266  0.00  0.00    +0.000 A 
ATOM      6  N   UNL     1      46.433   3.994  14.706  0.00  0.00    +0.000 NA
ENDROOT
BRANCH   4   7
ATOM      7  C   UNL     1      48.855   6.762  15.404  0.00  0.00    +0.000 C 
ATOM      8  N   UNL     1      48.436   7.588  16.408  0.00  0.00    +0.000 N 
ATOM      9  O   UNL     1      50.038   6.677  15.095  0.00  0.00    +0.000 OA
ATOM     10  H   UNL     1      47.455   7.643  16.656  0.00  0.00    +0.000 HD
ATOM     11  H   UNL     1      49.121   8.133  16.914  0.00  0.00    +0.000 HD
ENDBRANCH   4   7
BRANCH   1  12
ATOM     12  O   UNL     1      44.867   3.769  12.952  0.00  0.00    +0.000 OA
BRANCH  12  13
ATOM     13  C   UNL     1      45.309   3.166  11.727  0.00  0.00    +0.000 C 
BRANCH  13  18
ATOM     14  C   UNL     1      46.729   3.690   7.220  0.00  0.00    +0.000 C 
ATOM     15  N   UNL     1      45.526   3.555   8.046  0.00  0.00    +0.000 NA
ATOM     16  C   UNL     1      45.526   2.250   8.723  0.00  0.00    +0.000 C 
ATOM     17  C   UNL     1      44.308   2.082   9.636  0.00  0.00    +0.000 C 
ATOM     18  C   UNL     1      44.197   3.215  10.664  0.00  0.00    +0.000 C 
ATOM     19  C   UNL     1      44.215   4.554   9.912  0.00  0.00    +0.000 C 
ATOM     20  C   UNL     1      45.428   4.683   8.983  0.00  0.00    +0.000 C 
ENDBRANCH  13  18
ENDBRANCH  12  13
ENDBRANCH   1  12
TORSDOF 4
ENDMDL
MODEL 5
REMARK VINA RESULT:    -5.694      4.315      7.527
REMARK INTER + INTRA:          -7.367
REMARK INTER:                  -7.064
REMARK INTRA:                  -0.303
REMARK UNBOUND:                -0.341
REMARK  Name = 
REMARK  5 active torsions:
REMARK  status: ('A' for Active; 'I' for Inactive)
REMARK    1  A    between atoms: C_1  and  N_2
REMARK    2  A    between atoms: C_5  and  C_6
REMARK    3  A    between atoms: C_6  and  O_7
REMARK    4  A    between atoms: O_7  and  C_8
REMARK    5  A    between atoms: C_11  and  C_12
REMARK                            x       y       z     vdW  Elec       q    Type
REMARK                         _______ _______ _______ _____ _____    ______ ____
ROOT
ATOM      1  C   UNL     1      47.202   5.099  14.803  0.00  0.00    +0.000 A 
ATOM      2  C   UNL     1      48.282   5.847  15.266  0.00  0.00    +0.000 A 
ATOM      3  N   UNL     1      48.968   5.534  16.402  0.00  0.00    +0.000 NA
ATOM      4  C   UNL     1      48.511   4.425  17.052  0.00  0.00    +0.000 A 
ATOM      5  C   UNL     1      47.440   3.677  16.590  0.00  0.00    +0.000 A 
ATOM      6  N   UNL     1      46.765   3.998  15.456  0.00  0.00    +0.000 NA
ENDROOT
BRANCH   4   7
ATOM      7  C   UNL     1      49.180   4.012  18.316  0.00  0.00    +0.000 C 
ATOM      8  N   UNL     1      48.451   3.225  19.162  0.00  0.00    +0.000 N 
ATOM      9  O   UNL     1      50.325   4.354  18.586  0.00  0.00    +0.000 OA
ATOM     10  H   UNL     1      47.506   2.946  18.922  0.00  0.00    +0.000 HD
ATOM     11  H   UNL     1      48.872   2.911  20.025  0.00  0.00    +0.000 HD
ENDBRANCH   4   7
BRANCH   1  12
ATOM     12  O   UNL     1      46.554   5.512  13.654  0.00  0.00    +0.000 OA
BRANCH  12  13
ATOM     13  C   UNL     1      45.735   4.471  13.100  0.00  0.00    +0.000 C 
BRANCH  13  18
ATOM     14  C   UNL     1      44.481   2.451   8.983  0.00  0.00    +0.000 C 
ATOM     15  N   UNL     1      44.105   3.525   9.907  0.00  0.00    +0.000 NA
ATOM     16  C   UNL     1      43.725   2.958  11.208  0.00  0.00    +0.000 C 
ATOM     17  C   UNL     1      43.368   4.048  12.223  0.00  0.00    +0.000 C 
ATOM     18  C   UNL     1      44.501   5.067  12.397  0.00  0.00    +0.000 C 
ATOM     19  C   UNL     1      44.872   5.619  11.013  0.00  0.00    +0.000 C 
ATOM     20  C   UNL     1      45.195   4.506  10.010  0.00  0.00    +0.000 C 
ENDBRANCH  13  18
ENDBRANCH  12  13
ENDBRANCH   1  12
TORSDOF 4
ENDMDL
MODEL 6
REMARK VINA RESULT:    -5.415      3.895      6.262
REMARK INTER + INTRA:          -7.022
REMARK INTER:                  -6.725
REMARK INTRA:                  -0.298
REMARK UNBOUND:                -0.341
REMARK  Name = 
REMARK  5 active torsions:
REMARK  status: ('A' for Active; 'I' for Inactive)
REMARK    1  A    between atoms: C_1  and  N_2
REMARK    2  A    between atoms: C_5  and  C_6
REMARK    3  A    between atoms: C_6  and  O_7
REMARK    4  A    between atoms: O_7  and  C_8
REMARK    5  A    between atoms: C_11  and  C_12
REMARK                            x       y       z     vdW  Elec       q    Type
REMARK                         _______ _______ _______ _____ _____    ______ ____
ROOT
ATOM      1  C   UNL     1      46.921   4.867  13.620  0.00  0.00    +0.000 A 
ATOM      2  C   UNL     1      46.850   5.955  12.754  0.00  0.00    +0.000 A 
ATOM      3  N   UNL     1      45.972   6.018  11.713  0.00  0.00    +0.000 NA
ATOM      4  C   UNL     1      45.165   4.925  11.586  0.00  0.00    +0.000 A 
ATOM      5  C   UNL     1      45.231   3.844  12.450  0.00  0.00    +0.000 A 
ATOM      6  N   UNL     1      46.108   3.794  13.485  0.00  0.00    +0.000 NA
ENDROOT
BRANCH   4   7
ATOM      7  C   UNL     1      44.185   4.888  10.465  0.00  0.00    +0.000 C 
ATOM      8  N   UNL     1      44.693   4.645   9.220  0.00  0.00    +0.000 N 
ATOM      9  O   UNL     1      42.986   5.061  10.646  0.00  0.00    +0.000 OA
ATOM     10  H   UNL     1      45.687   4.498   9.088  0.00  0.00    +0.000 HD
ATOM     11  H   UNL     1      44.061   4.597   8.433  0.00  0.00    +0.000 HD
ENDBRANCH   4   7
BRANCH   1  12
ATOM     12  O   UNL     1      47.862   4.885  14.631  0.00  0.00    +0.000 OA
BRANCH  12  13
ATOM     13  C   UNL     1      47.328   4.389  15.868  0.00  0.00    +0.000 C 
BRANCH  13  18
ATOM     14  C   UNL     1      47.483   7.886  19.085  0.00  0.00    +0.000 C 
ATOM     15  N   UNL     1      48.156   6.645  18.691  0.00  0.00    +0.000 NA
ATOM     16  C   UNL     1      47.228   5.511  18.807  0.00  0.00    +0.000 C 
ATOM     17  C   UNL     1      47.875   4.197  18.361  0.00  0.00    +0.000 C 
ATOM     18  C   UNL     1      48.433   4.284  16.935  0.00  0.00    +0.000 C 
ATOM     19  C   UNL     1      49.383   5.489  16.859  0.00  0.00    +0.000 C 
ATOM     20  C   UNL     1      48.719   6.784  17.340  0.00  0.00    +0.000 C 
ENDBRANCH  13  18
ENDBRANCH  12  13
ENDBRANCH   1  12
TORSDOF 4
ENDMDL
MODEL 7
REMARK VINA RESULT:    -5.060      4.576      6.954
REMARK INTER + INTRA:          -6.585
REMARK INTER:                  -6.113
REMARK INTRA:                  -0.472
REMARK UNBOUND:                -0.341
REMARK  Name = 
REMARK  5 active torsions:
REMARK  status: ('A' for Active; 'I' for Inactive)
REMARK    1  A    between atoms: C_1  and  N_2
REMARK    2  A    between atoms: C_5  and  C_6
REMARK    3  A    between atoms: C_6  and  O_7
REMARK    4  A    between atoms: O_7  and  C_8
REMARK    5  A    between atoms: C_11  and  C_12
REMARK                            x       y       z     vdW  Elec       q    Type
REMARK                         _______ _______ _______ _____ _____    ______ ____
ROOT
ATOM      1  C   UNL     1      47.554   6.035  13.421  0.00  0.00    +0.000 A 
ATOM      2  C   UNL     1      47.165   4.921  14.162  0.00  0.00    +0.000 A 
ATOM      3  N   UNL     1      45.915   4.383  14.092  0.00  0.00    +0.000 NA
ATOM      4  C   UNL     1      45.069   5.026  13.234  0.00  0.00    +0.000 A 
ATOM      5  C   UNL     1      45.456   6.131  12.493  0.00  0.00    +0.000 A 
ATOM      6  N   UNL     1      46.705   6.657  12.571  0.00  0.00    +0.000 NA
ENDROOT
BRANCH   4   7
ATOM      7  C   UNL     1      43.673   4.528  13.103  0.00  0.00    +0.000 C 
ATOM      8  N   UNL     1      42.691   5.477  13.041  0.00  0.00    +0.000 N 
ATOM      9  O   UNL     1      43.412   3.332  13.049  0.00  0.00    +0.000 OA
ATOM     10  H   UNL     1      42.923   6.463  13.081  0.00  0.00    +0.000 HD
ATOM     11  H   UNL     1      41.730   5.183  12.937  0.00  0.00    +0.000 HD
ENDBRANCH   4   7
BRANCH   1  12
ATOM     12  O   UNL     1      48.837   6.522  13.580  0.00  0.00    +0.000 OA
BRANCH  12  13
ATOM     13  C   UNL     1      48.867   7.685  14.421  0.00  0.00    +0.000 C 
BRANCH  13  18
ATOM     14  C   UNL     1      47.571   7.788  18.994  0.00  0.00    +0.000 C 
ATOM     15  N   UNL     1      48.748   7.695  18.126  0.00  0.00    +0.000 NA
ATOM     16  C   UNL     1      48.682   6.470  17.319  0.00  0.00    +0.000 C 
ATOM     17  C   UNL     1      49.871   6.352  16.361  0.00  0.00    +0.000 C 
ATOM     18  C   UNL     1      50.004   7.581  15.454  0.00  0.00    +0.000 C 
ATOM     19  C   UNL     1      50.055   8.835  16.340  0.00  0.00    +0.000 C 
ATOM     20  C   UNL     1      48.869   8.911  17.309  0.00  0.00    +0.000 C 
ENDBRANCH  13  18
ENDBRANCH  12  13
ENDBRANCH   1  12
TORSDOF 4
ENDMDL
MODEL 8
REMARK VINA RESULT:    -4.944      3.423      5.928
REMARK INTER + INTRA:          -6.442
REMARK INTER:                  -5.995
REMARK INTRA:                  -0.447
REMARK UNBOUND:                -0.341
REMARK  Name = 
REMARK  5 active torsions:
REMARK  status: ('A' for Active; 'I' for Inactive)
REMARK    1  A    between atoms: C_1  and  N_2
REMARK    2  A    between atoms: C_5  and  C_6
REMARK    3  A    between atoms: C_6  and  O_7
REMARK    4  A    between atoms: O_7  and  C_8
REMARK    5  A    between atoms: C_11  and  C_12
REMARK                            x       y       z     vdW  Elec       q    Type
REMARK                         _______ _______ _______ _____ _____    ______ ____
ROOT
ATOM      1  C   UNL     1      47.001   5.581  13.084  0.00  0.00    +0.000 A 
ATOM      2  C   UNL     1      46.677   6.199  11.878  0.00  0.00    +0.000 A 
ATOM      3  N   UNL     1      45.658   5.777  11.078  0.00  0.00    +0.000 NA
ATOM      4  C   UNL     1      44.977   4.694  11.553  0.00  0.00    +0.000 A 
ATOM      5  C   UNL     1      45.294   4.080  12.754  0.00  0.00    +0.000 A 
ATOM      6  N   UNL     1      46.311   4.512  13.543  0.00  0.00    +0.000 NA
ENDROOT
BRANCH   4   7
ATOM      7  C   UNL     1      43.858   4.142  10.740  0.00  0.00    +0.000 C 
ATOM      8  N   UNL     1      43.777   4.570   9.445  0.00  0.00    +0.000 N 
ATOM      9  O   UNL     1      43.053   3.342  11.203  0.00  0.00    +0.000 OA
ATOM     10  H   UNL     1      44.454   5.227   9.075  0.00  0.00    +0.000 HD
ATOM     11  H   UNL     1      43.041   4.209   8.854  0.00  0.00    +0.000 HD
ENDBRANCH   4   7
BRANCH   1  12
ATOM     12  O   UNL     1      48.068   6.067  13.813  0.00  0.00    +0.000 OA
BRANCH  12  13
ATOM     13  C   UNL     1      48.969   6.831  12.997  0.00  0.00    +0.000 C 
BRANCH  13  18
ATOM     14  C   UNL     1      48.510  11.073  10.899  0.00  0.00    +0.000 C 
ATOM     15  N   UNL     1      49.030  10.430  12.109  0.00  0.00    +0.000 NA
ATOM     16  C   UNL     1      47.932   9.800  12.855  0.00  0.00    +0.000 C 
ATOM     17  C   UNL     1      48.435   9.075  14.106  0.00  0.00    +0.000 C 
ATOM     18  C   UNL     1      49.517   8.040  13.777  0.00  0.00    +0.000 C 
ATOM     19  C   UNL     1      50.633   8.741  12.988  0.00  0.00    +0.000 C 
ATOM     20  C   UNL     1      50.097   9.483  11.758  0.00  0.00    +0.000 C 
ENDBRANCH  13  18
ENDBRANCH  12  13
ENDBRANCH   1  12
TORSDOF 4
ENDMDL
MODEL 9
REMARK VINA RESULT:    -4.857      2.683      4.429
REMARK INTER + INTRA:          -6.335
REMARK INTER:                  -6.000
REMARK INTRA:                  -0.334
REMARK UNBOUND:                -0.341
REMARK  Name = 
REMARK  5 active torsions:
REMARK  status: ('A' for Active; 'I' for Inactive)
REMARK    1  A    between atoms: C_1  and  N_2
REMARK    2  A    between atoms: C_5  and  C_6
REMARK    3  A    between atoms: C_6  and  O_7
REMARK    4  A    between atoms: O_7  and  C_8
REMARK    5  A    between atoms: C_11  and  C_12
REMARK                            x       y       z     vdW  Elec       q    Type
REMARK                         _______ _______ _______ _____ _____    ______ ____
ROOT
ATOM      1  C   UNL     1      45.079   5.284  12.176  0.00  0.00    +0.000 A 
ATOM      2  C   UNL     1      44.890   5.818  10.904  0.00  0.00    +0.000 A 
ATOM      3  N   UNL     1      44.783   5.048   9.784  0.00  0.00    +0.000 NA
ATOM      4  C   UNL     1      44.876   3.705  10.010  0.00  0.00    +0.000 A 
ATOM      5  C   UNL     1      45.059   3.172  11.276  0.00  0.00    +0.000 A 
ATOM      6  N   UNL     1      45.163   3.950  12.384  0.00  0.00    +0.000 NA
ENDROOT
BRANCH   4   7
ATOM      7  C   UNL     1      44.792   2.779   8.848  0.00  0.00    +0.000 C 
ATOM      8  N   UNL     1      44.634   1.453   9.136  0.00  0.00    +0.000 N 
ATOM      9  O   UNL     1      44.857   3.180   7.692  0.00  0.00    +0.000 OA
ATOM     10  H   UNL     1      44.575   1.137  10.098  0.00  0.00    +0.000 HD
ATOM     11  H   UNL     1      44.558   0.791   8.377  0.00  0.00    +0.000 HD
ENDBRANCH   4   7
BRANCH   1  12
ATOM     12  O   UNL     1      45.203   6.149  13.247  0.00  0.00    +0.000 OA
BRANCH  12  13
ATOM     13  C   UNL     1      46.088   7.240  12.953  0.00  0.00    +0.000 C 
BRANCH  13  18
ATOM     14  C   UNL     1      49.395  10.568  13.720  0.00  0.00    +0.000 C 
ATOM     15  N   UNL     1      49.235   9.139  13.438  0.00  0.00    +0.000 NA
ATOM     16  C   UNL     1      48.505   8.489  14.536  0.00  0.00    +0.000 C 
ATOM     17  C   UNL     1      48.273   7.000  14.264  0.00  0.00    +0.000 C 
ATOM     18  C   UNL     1      47.551   6.763  12.932  0.00  0.00    +0.000 C 
ATOM     19  C   UNL     1      48.341   7.471  11.820  0.00  0.00    +0.000 C 
ATOM     20  C   UNL     1      48.585   8.952  12.133  0.00  0.00    +0.000 C 
ENDBRANCH  13  18
ENDBRANCH  12  13
ENDBRANCH   1  12
TORSDOF 4
ENDMDL
