MODEL 1
REMARK VINA RESULT:    -8.030      0.000      0.000
REMARK INTER + INTRA:         -11.233
REMARK INTER:                 -10.377
REMARK INTRA:                  -0.856
REMARK UNBOUND:                -0.856
REMARK  Name = 
REMARK  5 active torsions:
REMARK  status: ('A' for Active; 'I' for Inactive)
REMARK    1  A    between atoms: C_2  and  C_4
REMARK    2  A    between atoms: C_2  and  C_13
REMARK    3  A    between atoms: C_4  and  N_5
REMARK    4  A    between atoms: C_17  and  O_18
REMARK    5  A    between atoms: O_18  and  C_19
REMARK                            x       y       z     vdW  Elec       q    Type
REMARK                         _______ _______ _______ _____ _____    ______ ____
ROOT
ATOM      1  F   UNL     1      42.783   4.762  12.781  0.00  0.00    +0.000 F 
ATOM      2  C   UNL     1      43.852   4.089  12.256  0.00  0.00    +0.000 C 
ATOM      3  F   UNL     1      43.830   2.861  12.870  0.00  0.00    +0.000 F 
ENDROOT
BRANCH   2   4
ATOM      4  C   UNL     1      45.150   4.818  12.513  0.00  0.00    +0.000 A 
ATOM      5  C   UNL     1      45.588   5.831  11.654  0.00  0.00    +0.000 A 
ATOM      6  C   UNL     1      46.785   6.468  11.932  0.00  0.00    +0.000 A 
ATOM      7  N   UNL     1      47.563   6.171  12.993  0.00  0.00    +0.000 NA
ATOM      8  C   UNL     1      47.127   5.191  13.809  0.00  0.00    +0.000 A 
ATOM      9  C   UNL     1      45.945   4.495  13.618  0.00  0.00    +0.000 A 
BRANCH   8  10
ATOM     10  O   UNL     1      47.873   4.861  14.924  0.00  0.00    +0.000 OA
BRANCH  10  11
ATOM     11  C   UNL     1      47.270   3.915  15.835  0.00  0.00    +0.000 C 
ATOM     12  C   UNL     1      47.149   4.374  17.307  0.00  0.00    +0.000 C 
ATOM     13  C   UNL     1      47.742   3.033  17.756  0.00  0.00    +0.000 C 
ATOM     14  C   UNL     1      48.217   2.792  16.318  0.00  0.00    +0.000 C 
ENDBRANCH  10  11
ENDBRANCH   8  10
ENDBRANCH   2   4
BRANCH   2  15
ATOM     15  C   UNL     1      43.606   3.857  10.742  0.00  0.00    +0.000 C 
BRANCH  15  16
ATOM     16  N   UNL     1      44.184   2.573  10.293  0.00  0.00    +0.000 N 
ATOM     17  C   UNL     1      45.073   2.639   9.221  0.00  0.00    +0.000 A 
ATOM     18  C   UNL     1      45.653   1.460   8.733  0.00  0.00    +0.000 A 
ATOM     19  N   UNL     1      46.484   1.397   7.660  0.00  0.00    +0.000 NA
ATOM     20  C   UNL     1      46.711   2.582   7.067  0.00  0.00    +0.000 A 
ATOM     21 CL   UNL     1      47.728   2.533   5.694  0.00  0.00    +0.000 Cl
ATOM     22  C   UNL     1      46.149   3.762   7.526  0.00  0.00    +0.000 A 
ATOM     23  N   UNL     1      45.324   3.815   8.604  0.00  0.00    +0.000 NA
ATOM     24  H   UNL     1      44.578   2.040  11.069  0.00  0.00    +0.000 HD
ENDBRANCH  15  16
ENDBRANCH   2  15
TORSDOF 5
ENDMDL
MODEL 2
REMARK VINA RESULT:    -7.541      3.585      7.444
REMARK INTER + INTRA:         -10.602
REMARK INTER:                  -9.881
REMARK INTRA:                  -0.721
REMARK UNBOUND:                -0.856
REMARK  Name = 
REMARK  5 active torsions:
REMARK  status: ('A' for Active; 'I' for Inactive)
REMARK    1  A    between atoms: C_2  and  C_4
REMARK    2  A    between atoms: C_2  and  C_13
REMARK    3  A    between atoms: C_4  and  N_5
REMARK    4  A    between atoms: C_17  and  O_18
REMARK    5  A    between atoms: O_18  and  C_19
REMARK                            x       y       z     vdW  Elec       q    Type
REMARK                         _______ _______ _______ _____ _____    ______ ____
ROOT
ATOM      1  F   UNL     1      45.017   7.360  10.928  0.00  0.00    +0.000 F 
ATOM      2  C   UNL     1      45.630   6.240  11.419  0.00  0.00    +0.000 C 
ATOM      3  F   UNL     1      46.962   6.415  11.134  0.00  0.00    +0.000 F 
ENDROOT
BRANCH   2   4
ATOM      4  C   UNL     1      45.084   4.983  10.786  0.00  0.00    +0.000 A 
ATOM      5  C   UNL     1      44.298   4.090  11.521  0.00  0.00    +0.000 A 
ATOM      6  C   UNL     1      43.822   2.951  10.894  0.00  0.00    +0.000 A 
ATOM      7  N   UNL     1      44.071   2.646   9.604  0.00  0.00    +0.000 NA
ATOM      8  C   UNL     1      44.832   3.517   8.911  0.00  0.00    +0.000 A 
ATOM      9  C   UNL     1      45.354   4.682   9.445  0.00  0.00    +0.000 A 
BRANCH   8  10
ATOM     10  O   UNL     1      45.100   3.265   7.579  0.00  0.00    +0.000 OA
BRANCH  10  11
ATOM     11  C   UNL     1      46.496   3.213   7.211  0.00  0.00    +0.000 C 
ATOM     12  C   UNL     1      46.796   3.157   5.694  0.00  0.00    +0.000 C 
ATOM     13  C   UNL     1      47.762   1.993   5.946  0.00  0.00    +0.000 C 
ATOM     14  C   UNL     1      47.143   1.814   7.336  0.00  0.00    +0.000 C 
ENDBRANCH  10  11
ENDBRANCH   8  10
ENDBRANCH   2   4
BRANCH   2  15
ATOM     15  C   UNL     1      45.484   6.224  12.964  0.00  0.00    +0.000 C 
BRANCH  15  16
ATOM     16  N   UNL     1      46.742   6.623  13.629  0.00  0.00    +0.000 N 
ATOM     17  C   UNL     1      47.253   5.726  14.567  0.00  0.00    +0.000 A 
ATOM     18  C   UNL     1      48.438   6.042  15.246  0.00  0.00    +0.000 A 
ATOM     19  N   UNL     1      48.995   5.275  16.219  0.00  0.00    +0.000 NA
ATOM     20  C   UNL     1      48.303   4.159  16.508  0.00  0.00    +0.000 A 
ATOM     21 CL   UNL     1      48.961   3.188  17.751  0.00  0.00    +0.000 Cl
ATOM     22  C   UNL     1      47.128   3.824  15.855  0.00  0.00    +0.000 A 
ATOM     23  N   UNL     1      46.582   4.595  14.878  0.00  0.00    +0.000 NA
ATOM     24  H   UNL     1      47.456   6.903  12.957  0.00  0.00    +0.000 HD
ENDBRANCH  15  16
ENDBRANCH   2  15
TORSDOF 5
ENDMDL
MODEL 3
REMARK VINA RESULT:    -7.320      3.822      7.629
REMARK INTER + INTRA:         -10.316
REMARK INTER:                  -9.824
REMARK INTRA:                  -0.492
REMARK UNBOUND:                -0.856
REMARK  Name = 
REMARK  5 active torsions:
REMARK  status: ('A' for Active; 'I' for Inactive)
REMARK    1  A    between atoms: C_2  and  C_4
REMARK    2  A    between atoms: C_2  and  C_13
REMARK    3  A    between atoms: C_4  and  N_5
REMARK    4  A    between atoms: C_17  and  O_18
REMARK    5  A    between atoms: O_18  and  C_19
REMARK                            x       y       z     vdW  Elec       q    Type
REMARK                         _______ _______ _______ _____ _____    ______ ____
ROOT
ATOM      1  F   UNL     1      44.788   6.455  13.421  0.00  0.00    +0.000 F 
ATOM      2  C   UNL     1      45.657   5.902  12.520  0.00  0.00    +0.000 C 
ATOM      3  F   UNL     1      46.066   6.953  11.737  0.00  0.00    +0.000 F 
ENDROOT
BRANCH   2   4
ATOM      4  C   UNL     1      44.997   4.820  11.701  0.00  0.00    +0.000 A 
ATOM      5  C   UNL     1      44.124   3.901  12.292  0.00  0.00    +0.000 A 
ATOM      6  C   UNL     1      43.545   2.926  11.497  0.00  0.00    +0.000 A 
ATOM      7  N   UNL     1      43.772   2.806  10.173  0.00  0.00    +0.000 NA
ATOM      8  C   UNL     1      44.619   3.698   9.620  0.00  0.00    +0.000 A 
ATOM      9  C   UNL     1      45.246   4.709  10.328  0.00  0.00    +0.000 A 
BRANCH   8  10
ATOM     10  O   UNL     1      44.870   3.636   8.263  0.00  0.00    +0.000 OA
BRANCH  10  11
ATOM     11  C   UNL     1      46.203   3.226   7.882  0.00  0.00    +0.000 C 
ATOM     12  C   UNL     1      46.488   3.174   6.363  0.00  0.00    +0.000 C 
ATOM     13  C   UNL     1      47.099   1.780   6.543  0.00  0.00    +0.000 C 
ATOM     14  C   UNL     1      46.443   1.699   7.926  0.00  0.00    +0.000 C 
ENDBRANCH  10  11
ENDBRANCH   8  10
ENDBRANCH   2   4
BRANCH   2  15
ATOM     15  C   UNL     1      46.903   5.378  13.282  0.00  0.00    +0.000 C 
BRANCH  15  16
ATOM     16  N   UNL     1      46.516   4.577  14.462  0.00  0.00    +0.000 N 
ATOM     17  C   UNL     1      47.320   4.718  15.593  0.00  0.00    +0.000 A 
ATOM     18  C   UNL     1      47.021   3.981  16.747  0.00  0.00    +0.000 A 
ATOM     19  N   UNL     1      47.766   3.994  17.883  0.00  0.00    +0.000 NA
ATOM     20  C   UNL     1      48.857   4.776  17.820  0.00  0.00    +0.000 A 
ATOM     21 CL   UNL     1      49.834   4.789  19.222  0.00  0.00    +0.000 Cl
ATOM     22  C   UNL     1      49.179   5.513  16.690  0.00  0.00    +0.000 A 
ATOM     23  N   UNL     1      48.423   5.498  15.562  0.00  0.00    +0.000 NA
ATOM     24  H   UNL     1      45.529   4.692  14.693  0.00  0.00    +0.000 HD
ENDBRANCH  15  16
ENDBRANCH   2  15
TORSDOF 5
ENDMDL
MODEL 4
REMARK VINA RESULT:    -6.940      1.720      2.087
REMARK INTER + INTRA:          -9.825
REMARK INTER:                  -9.506
REMARK INTRA:                  -0.320
REMARK UNBOUND:                -0.856
REMARK  Name = 
REMARK  5 active torsions:
REMARK  status: ('A' for Active; 'I' for Inactive)
REMARK    1  A    between atoms: C_2  and  C_4
REMARK    2  A    between atoms: C_2  and  C_13
REMARK    3  A    between atoms: C_4  and  N_5
REMARK    4  A    between atoms: C_17  and  O_18
REMARK    5  A    between atoms: O_18  and  C_19
REMARK                            x       y       z     vdW  Elec       q    Type
REMARK                         _______ _______ _______ _____ _____    ______ ____
ROOT
ATOM      1  F   UNL     1      42.972   4.422  13.536  0.00  0.00    +0.000 F 
ATOM      2  C   UNL     1      43.935   4.407  12.565  0.00  0.00    +0.000 C 
ATOM      3  F   UNL     1      44.547   3.185  12.696  0.00  0.00    +0.000 F 
ENDROOT
BRANCH   2   4
ATOM      4  C   UNL     1      44.915   5.543  12.736  0.00  0.00    +0.000 A 
ATOM      5  C   UNL     1      44.565   6.854  12.392  0.00  0.00    +0.000 A 
ATOM      6  C   UNL     1      45.500   7.860  12.566  0.00  0.00    +0.000 A 
ATOM      7  N   UNL     1      46.741   7.654  13.054  0.00  0.00    +0.000 NA
ATOM      8  C   UNL     1      47.062   6.385  13.378  0.00  0.00    +0.000 A 
ATOM      9  C   UNL     1      46.200   5.311  13.242  0.00  0.00    +0.000 A 
BRANCH   8  10
ATOM     10  O   UNL     1      48.312   6.120  13.903  0.00  0.00    +0.000 OA
BRANCH  10  11
ATOM     11  C   UNL     1      48.559   6.619  15.237  0.00  0.00    +0.000 C 
ATOM     12  C   UNL     1      50.044   6.801  15.629  0.00  0.00    +0.000 C 
ATOM     13  C   UNL     1      49.769   6.063  16.944  0.00  0.00    +0.000 C 
ATOM     14  C   UNL     1      48.450   5.554  16.353  0.00  0.00    +0.000 C 
ENDBRANCH  10  11
ENDBRANCH   8  10
ENDBRANCH   2   4
BRANCH   2  15
ATOM     15  C   UNL     1      43.248   4.436  11.175  0.00  0.00    +0.000 C 
BRANCH  15  16
ATOM     16  N   UNL     1      44.158   4.961  10.135  0.00  0.00    +0.000 N 
ATOM     17  C   UNL     1      44.812   4.009   9.352  0.00  0.00    +0.000 A 
ATOM     18  C   UNL     1      45.700   4.431   8.353  0.00  0.00    +0.000 A 
ATOM     19  N   UNL     1      46.434   3.597   7.572  0.00  0.00    +0.000 NA
ATOM     20  C   UNL     1      46.258   2.291   7.841  0.00  0.00    +0.000 A 
ATOM     21 CL   UNL     1      47.192   1.215   6.898  0.00  0.00    +0.000 Cl
ATOM     22  C   UNL     1      45.390   1.846   8.825  0.00  0.00    +0.000 A 
ATOM     23  N   UNL     1      44.655   2.689   9.596  0.00  0.00    +0.000 NA
ATOM     24  H   UNL     1      43.707   5.669   9.556  0.00  0.00    +0.000 HD
ENDBRANCH  15  16
ENDBRANCH   2  15
TORSDOF 5
ENDMDL
MODEL 5
REMARK VINA RESULT:    -6.759      3.845      7.509
REMARK INTER + INTRA:          -9.591
REMARK INTER:                  -9.002
REMARK INTRA:                  -0.589
REMARK UNBOUND:                -0.856
REMARK  Name = 
REMARK  5 active torsions:
REMARK  status: ('A' for Active; 'I' for Inactive)
REMARK    1  A    between atoms: C_2  and  C_4
REMARK    2  A    between atoms: C_2  and  C_13
REMARK    3  A    between atoms: C_4  and  N_5
REMARK    4  A    between atoms: C_17  and  O_18
REMARK    5  A    between atoms: O_18  and  C_19
REMARK                            x       y       z     vdW  Elec       q    Type
REMARK                         _______ _______ _______ _____ _____    ______ ____
ROOT
ATOM      1  F   UNL     1      44.479   7.138  12.101  0.00  0.00    +0.000 F 
ATOM      2  C   UNL     1      45.425   6.197  11.800  0.00  0.00    +0.000 C 
ATOM      3  F   UNL     1      46.146   6.742  10.767  0.00  0.00    +0.000 F 
ENDROOT
BRANCH   2   4
ATOM      4  C   UNL     1      44.798   4.881  11.410  0.00  0.00    +0.000 A 
ATOM      5  C   UNL     1      43.943   4.202  12.286  0.00  0.00    +0.000 A 
ATOM      6  C   UNL     1      43.395   2.998  11.881  0.00  0.00    +0.000 A 
ATOM      7  N   UNL     1      43.633   2.431  10.680  0.00  0.00    +0.000 NA
ATOM      8  C   UNL     1      44.461   3.097   9.849  0.00  0.00    +0.000 A 
ATOM      9  C   UNL     1      45.058   4.306  10.160  0.00  0.00    +0.000 A 
BRANCH   8  10
ATOM     10  O   UNL     1      44.722   2.574   8.598  0.00  0.00    +0.000 OA
BRANCH  10  11
ATOM     11  C   UNL     1      46.092   2.664   8.146  0.00  0.00    +0.000 C 
ATOM     12  C   UNL     1      46.299   3.212   6.714  0.00  0.00    +0.000 C 
ATOM     13  C   UNL     1      47.242   2.039   6.420  0.00  0.00    +0.000 C 
ATOM     14  C   UNL     1      46.700   1.326   7.664  0.00  0.00    +0.000 C 
ENDBRANCH  10  11
ENDBRANCH   8  10
ENDBRANCH   2   4
BRANCH   2  15
ATOM     15  C   UNL     1      46.387   6.047  13.009  0.00  0.00    +0.000 C 
BRANCH  15  16
ATOM     16  N   UNL     1      47.626   6.828  12.811  0.00  0.00    +0.000 N 
ATOM     17  C   UNL     1      48.538   6.814  13.867  0.00  0.00    +0.000 A 
ATOM     18  C   UNL     1      49.731   7.540  13.757  0.00  0.00    +0.000 A 
ATOM     19  N   UNL     1      50.662   7.646  14.741  0.00  0.00    +0.000 NA
ATOM     20  C   UNL     1      50.345   6.996  15.874  0.00  0.00    +0.000 A 
ATOM     21 CL   UNL     1      51.480   7.136  17.143  0.00  0.00    +0.000 Cl
ATOM     22  C   UNL     1      49.170   6.273  16.012  0.00  0.00    +0.000 A 
ATOM     23  N   UNL     1      48.249   6.168  15.019  0.00  0.00    +0.000 NA
ATOM     24  H   UNL     1      48.081   6.604  11.927  0.00  0.00    +0.000 HD
ENDBRANCH  15  16
ENDBRANCH   2  15
TORSDOF 5
ENDMDL
MODEL 6
REMARK VINA RESULT:    -6.742      3.171      6.627
REMARK INTER + INTRA:          -9.569
REMARK INTER:                  -8.815
REMARK INTRA:                  -0.754
REMARK UNBOUND:                -0.856
REMARK  Name = 
REMARK  5 active torsions:
REMARK  status: ('A' for Active; 'I' for Inactive)
REMARK    1  A    between atoms: C_2  and  C_4
REMARK    2  A    between atoms: C_2  and  C_13
REMARK    3  A    between atoms: C_4  and  N_5
REMARK    4  A    between atoms: C_17  and  O_18
REMARK    5  A    between atoms: O_18  and  C_19
REMARK                            x       y       z     vdW  Elec       q    Type
REMARK                         _______ _______ _______ _____ _____    ______ ____
ROOT
ATOM      1  F   UNL     1      45.630   2.565  12.886  0.00  0.00    +0.000 F 
ATOM      2  C   UNL     1      44.532   3.294  12.518  0.00  0.00    +0.000 C 
ATOM      3  F   UNL     1      43.458   2.540  12.922  0.00  0.00    +0.000 F 
ENDROOT
BRANCH   2   4
ATOM      4  C   UNL     1      44.506   3.549  11.030  0.00  0.00    +0.000 A 
ATOM      5  C   UNL     1      43.825   4.651  10.501  0.00  0.00    +0.000 A 
ATOM      6  C   UNL     1      43.830   4.840   9.129  0.00  0.00    +0.000 A 
ATOM      7  N   UNL     1      44.459   4.021   8.262  0.00  0.00    +0.000 NA
ATOM      8  C   UNL     1      45.109   2.964   8.789  0.00  0.00    +0.000 A 
ATOM      9  C   UNL     1      45.164   2.688  10.144  0.00  0.00    +0.000 A 
BRANCH   8  10
ATOM     10  O   UNL     1      45.790   2.105   7.948  0.00  0.00    +0.000 OA
BRANCH  10  11
ATOM     11  C   UNL     1      46.906   2.674   7.228  0.00  0.00    +0.000 C 
ATOM     12  C   UNL     1      46.670   2.956   5.725  0.00  0.00    +0.000 C 
ATOM     13  C   UNL     1      47.999   2.261   5.404  0.00  0.00    +0.000 C 
ATOM     14  C   UNL     1      47.991   1.654   6.812  0.00  0.00    +0.000 C 
ENDBRANCH  10  11
ENDBRANCH   8  10
ENDBRANCH   2   4
BRANCH   2  15
ATOM     15  C   UNL     1      44.509   4.613  13.335  0.00  0.00    +0.000 C 
BRANCH  15  16
ATOM     16  N   UNL     1      45.770   4.808  14.080  0.00  0.00    +0.000 N 
ATOM     17  C   UNL     1      46.702   5.668  13.499  0.00  0.00    +0.000 A 
ATOM     18  C   UNL     1      47.926   5.893  14.143  0.00  0.00    +0.000 A 
ATOM     19  N   UNL     1      48.929   6.661  13.644  0.00  0.00    +0.000 NA
ATOM     20  C   UNL     1      48.666   7.199  12.440  0.00  0.00    +0.000 A 
ATOM     21 CL   UNL     1      49.921   8.146  11.769  0.00  0.00    +0.000 Cl
ATOM     22  C   UNL     1      47.466   6.990  11.779  0.00  0.00    +0.000 A 
ATOM     23  N   UNL     1      46.467   6.226  12.291  0.00  0.00    +0.000 NA
ATOM     24  H   UNL     1      45.602   5.049  15.057  0.00  0.00    +0.000 HD
ENDBRANCH  15  16
ENDBRANCH   2  15
TORSDOF 5
ENDMDL
MODEL 7
REMARK VINA RESULT:    -6.441      3.918      7.010
REMARK INTER + INTRA:          -9.180
REMARK INTER:                  -8.476
REMARK INTRA:                  -0.704
REMARK UNBOUND:                -0.856
REMARK  Name = 
REMARK  5 active torsions:
REMARK  status: ('A' for Active; 'I' for Inactive)
REMARK    1  A    between atoms: C_2  and  C_4
REMARK    2  A    between atoms: C_2  and  C_13
REMARK    3  A    between atoms: C_4  and  N_5
REMARK    4  A    between atoms: C_17  and  O_18
REMARK    5  A    between atoms: O_18  and  C_19
REMARK                            x       y       z     vdW  Elec       q    Type
REMARK                         _______ _______ _______ _____ _____    ______ ____
ROOT
ATOM      1  F   UNL     1      45.890   5.559  13.554  0.00  0.00    +0.000 F 
ATOM      2  C   UNL     1      44.979   5.863  12.581  0.00  0.00    +0.000 C 
ATOM      3  F   UNL     1      43.939   6.463  13.248  0.00  0.00    +0.000 F 
ENDROOT
BRANCH   2   4
ATOM      4  C   UNL     1      44.527   4.631  11.835  0.00  0.00    +0.000 A 
ATOM      5  C   UNL     1      43.819   3.615  12.486  0.00  0.00    +0.000 A 
ATOM      6  C   UNL     1      43.428   2.504  11.758  0.00  0.00    +0.000 A 
ATOM      7  N   UNL     1      43.688   2.339  10.445  0.00  0.00    +0.000 NA
ATOM      8  C   UNL     1      44.373   3.326   9.834  0.00  0.00    +0.000 A 
ATOM      9  C   UNL     1      44.807   4.475  10.473  0.00  0.00    +0.000 A 
BRANCH   8  10
ATOM     10  O   UNL     1      44.647   3.220   8.484  0.00  0.00    +0.000 OA
BRANCH  10  11
ATOM     11  C   UNL     1      46.029   2.981   8.134  0.00  0.00    +0.000 C 
ATOM     12  C   UNL     1      46.394   3.173   6.643  0.00  0.00    +0.000 C 
ATOM     13  C   UNL     1      47.120   1.823   6.665  0.00  0.00    +0.000 C 
ATOM     14  C   UNL     1      46.406   1.489   7.979  0.00  0.00    +0.000 C 
ENDBRANCH  10  11
ENDBRANCH   8  10
ENDBRANCH   2   4
BRANCH   2  15
ATOM     15  C   UNL     1      45.595   6.924  11.630  0.00  0.00    +0.000 C 
BRANCH  15  16
ATOM     16  N   UNL     1      46.090   8.097  12.381  0.00  0.00    +0.000 N 
ATOM     17  C   UNL     1      47.470   8.302  12.363  0.00  0.00    +0.000 A 
ATOM     18  C   UNL     1      48.014   9.388  13.062  0.00  0.00    +0.000 A 
ATOM     19  N   UNL     1      49.343   9.651  13.163  0.00  0.00    +0.000 NA
ATOM     20  C   UNL     1      50.132   8.759  12.538  0.00  0.00    +0.000 A 
ATOM     21 CL   UNL     1      51.811   9.043  12.674  0.00  0.00    +0.000 Cl
ATOM     22  C   UNL     1      49.621   7.675  11.843  0.00  0.00    +0.000 A 
ATOM     23  N   UNL     1      48.290   7.425  11.742  0.00  0.00    +0.000 NA
ATOM     24  H   UNL     1      45.586   8.949  12.133  0.00  0.00    +0.000 HD
ENDBRANCH  15  16
ENDBRANCH   2  15
TORSDOF 5
ENDMDL
MODEL 8
REMARK VINA RESULT:    -6.278      2.714      3.638
REMARK INTER + INTRA:          -8.970
REMARK INTER:                  -8.348
REMARK INTRA:                  -0.622
REMARK UNBOUND:                -0.856
REMARK  Name = 
REMARK  5 active torsions:
REMARK  status: ('A' for Active; 'I' for Inactive)
REMARK    1  A    between atoms: C_2  and  C_4
REMARK    2  A    between atoms: C_2  and  C_13
REMARK    3  A    between atoms: C_4  and  N_5
REMARK    4  A    between atoms: C_17  and  O_18
REMARK    5  A    between atoms: O_18  and  C_19
REMARK                            x       y       z     vdW  Elec       q    Type
REMARK                         _______ _______ _______ _____ _____    ______ ____
ROOT
ATOM      1  F   UNL     1      43.840   4.905  13.347  0.00  0.00    +0.000 F 
ATOM      2  C   UNL     1      44.673   5.142  12.289  0.00  0.00    +0.000 C 
ATOM      3  F   UNL     1      45.643   4.174  12.381  0.00  0.00    +0.000 F 
ENDROOT
BRANCH   2   4
ATOM      4  C   UNL     1      45.264   6.530  12.345  0.00  0.00    +0.000 A 
ATOM      5  C   UNL     1      44.554   7.635  11.861  0.00  0.00    +0.000 A 
ATOM      6  C   UNL     1      45.139   8.887  11.935  0.00  0.00    +0.000 A 
ATOM      7  N   UNL     1      46.365   9.112  12.451  0.00  0.00    +0.000 NA
ATOM      8  C   UNL     1      47.037   8.036  12.910  0.00  0.00    +0.000 A 
ATOM      9  C   UNL     1      46.538   6.745  12.882  0.00  0.00    +0.000 A 
BRANCH   8  10
ATOM     10  O   UNL     1      48.287   8.212  13.469  0.00  0.00    +0.000 OA
BRANCH  10  11
ATOM     11  C   UNL     1      49.388   7.583  12.775  0.00  0.00    +0.000 C 
ATOM     12  C   UNL     1      50.780   8.222  12.991  0.00  0.00    +0.000 C 
ATOM     13  C   UNL     1      51.006   8.199  11.474  0.00  0.00    +0.000 C 
ATOM     14  C   UNL     1      49.505   7.961  11.279  0.00  0.00    +0.000 C 
ENDBRANCH  10  11
ENDBRANCH   8  10
ENDBRANCH   2   4
BRANCH   2  15
ATOM     15  C   UNL     1      43.894   4.895  10.970  0.00  0.00    +0.000 C 
BRANCH  15  16
ATOM     16  N   UNL     1      44.738   5.165   9.787  0.00  0.00    +0.000 N 
ATOM     17  C   UNL     1      45.218   4.047   9.105  0.00  0.00    +0.000 A 
ATOM     18  C   UNL     1      46.034   4.225   7.979  0.00  0.00    +0.000 A 
ATOM     19  N   UNL     1      46.604   3.213   7.274  0.00  0.00    +0.000 NA
ATOM     20  C   UNL     1      46.336   1.986   7.753  0.00  0.00    +0.000 A 
ATOM     21 CL   UNL     1      47.066   0.692   6.907  0.00  0.00    +0.000 Cl
ATOM     22  C   UNL     1      45.536   1.781   8.866  0.00  0.00    +0.000 A 
ATOM     23  N   UNL     1      44.965   2.800   9.559  0.00  0.00    +0.000 NA
ATOM     24  H   UNL     1      44.298   5.827   9.148  0.00  0.00    +0.000 HD
ENDBRANCH  15  16
ENDBRANCH   2  15
TORSDOF 5
ENDMDL
MODEL 9
REMARK VINA RESULT:    -5.866      4.341      7.764
REMARK INTER + INTRA:          -8.437
REMARK INTER:                  -7.712
REMARK INTRA:                  -0.726
REMARK UNBOUND:                -0.856
REMARK  Name = 
REMARK  5 active torsions:
REMARK  status: ('A' for Active; 'I' for Inactive)
REMARK    1  A    between atoms: C_2  and  C_4
REMARK    2  A    between atoms: C_2  and  C_13
REMARK    3  A    between atoms: C_4  and  N_5
REMARK    4  A    between atoms: C_17  and  O_18
REMARK    5  A    between atoms: O_18  and  C_19
REMARK                            x       y       z     vdW  Elec       q    Type
REMARK                         _______ _______ _______ _____ _____    ______ ____
ROOT
ATOM      1  F   UNL     1      49.039   8.346  12.176  0.00  0.00    +0.000 F 
ATOM      2  C   UNL     1      48.337   7.411  12.887  0.00  0.00    +0.000 C 
ATOM      3  F   UNL     1      49.097   6.270  12.812  0.00  0.00    +0.000 F 
ENDROOT
BRANCH   2   4
ATOM      4  C   UNL     1      46.955   7.200  12.317  0.00  0.00    +0.000 A 
ATOM      5  C   UNL     1      46.092   8.281  12.103  0.00  0.00    +0.000 A 
ATOM      6  C   UNL     1      44.834   8.034  11.580  0.00  0.00    +0.000 A 
ATOM      7  N   UNL     1      44.384   6.803  11.258  0.00  0.00    +0.000 NA
ATOM      8  C   UNL     1      45.228   5.774  11.474  0.00  0.00    +0.000 A 
ATOM      9  C   UNL     1      46.504   5.916  11.991  0.00  0.00    +0.000 A 
BRANCH   8  10
ATOM     10  O   UNL     1      44.827   4.494  11.141  0.00  0.00    +0.000 OA
BRANCH  10  11
ATOM     11  C   UNL     1      44.418   4.294   9.770  0.00  0.00    +0.000 C 
ATOM     12  C   UNL     1      44.383   2.827   9.281  0.00  0.00    +0.000 C 
ATOM     13  C   UNL     1      45.160   3.245   8.026  0.00  0.00    +0.000 C 
ATOM     14  C   UNL     1      45.524   4.561   8.722  0.00  0.00    +0.000 C 
ENDBRANCH  10  11
ENDBRANCH   8  10
ENDBRANCH   2   4
BRANCH   2  15
ATOM     15  C   UNL     1      48.292   7.843  14.377  0.00  0.00    +0.000 C 
BRANCH  15  16
ATOM     16  N   UNL     1      47.898   6.719  15.251  0.00  0.00    +0.000 N 
ATOM     17  C   UNL     1      48.909   6.168  16.040  0.00  0.00    +0.000 A 
ATOM     18  C   UNL     1      48.613   5.092  16.887  0.00  0.00    +0.000 A 
ATOM     19  N   UNL     1      49.526   4.441  17.653  0.00  0.00    +0.000 NA
ATOM     20  C   UNL     1      50.782   4.905  17.530  0.00  0.00    +0.000 A 
ATOM     21 CL   UNL     1      51.962   4.087  18.457  0.00  0.00    +0.000 Cl
ATOM     22  C   UNL     1      51.104   5.966  16.698  0.00  0.00    +0.000 A 
ATOM     23  N   UNL     1      50.181   6.614  15.941  0.00  0.00    +0.000 NA
ATOM     24  H   UNL     1      47.074   6.940  15.809  0.00  0.00    +0.000 HD
ENDBRANCH  15  16
ENDBRANCH   2  15
TORSDOF 5
ENDMDL
