MODEL 1
REMARK VINA RESULT:    -7.618      0.000      0.000
REMARK INTER + INTRA:         -10.552
REMARK INTER:                 -10.068
REMARK INTRA:                  -0.484
REMARK UNBOUND:                -0.484
REMARK  Name = 
REMARK  6 active torsions:
REMARK  status: ('A' for Active; 'I' for Inactive)
REMARK    1  A    between atoms: N_1  and  C_2
REMARK    2  A    between atoms: C_2  and  C_3
REMARK    3  A    between atoms: C_3  and  O_4
REMARK    4  A    between atoms: O_4  and  C_5
REMARK    5  A    between atoms: C_8  and  C_9
REMARK    6  A    between atoms: C_9  and  C_10
REMARK                            x       y       z     vdW  Elec       q    Type
REMARK                         _______ _______ _______ _____ _____    ______ ____
ROOT
ATOM      1  C   UNL     1      47.458   5.577  14.072  0.00  0.00    +0.000 A 
ATOM      2  C   UNL     1      47.692   6.387  12.960  0.00  0.00    +0.000 A 
ATOM      3  C   UNL     1      46.805   6.361  11.875  0.00  0.00    +0.000 A 
ATOM      4  C   UNL     1      45.682   5.527  11.887  0.00  0.00    +0.000 A 
ATOM      5  C   UNL     1      45.448   4.723  13.008  0.00  0.00    +0.000 A 
ATOM      6  C   UNL     1      46.330   4.755  14.093  0.00  0.00    +0.000 A 
ENDROOT
BRANCH   1   7
ATOM      7  O   UNL     1      48.239   5.511  15.193  0.00  0.00    +0.000 OA
BRANCH   7   8
ATOM      8  C   UNL     1      47.820   4.600  16.212  0.00  0.00    +0.000 C 
BRANCH   8   9
ATOM      9  C   UNL     1      47.882   5.322  17.562  0.00  0.00    +0.000 C 
BRANCH   9  10
ATOM     10  N   UNL     1      46.675   5.108  18.358  0.00  0.00    +0.000 NA
ATOM     11  H   UNL     1      46.711   5.706  19.182  0.00  0.00    +0.000 HD
ATOM     12  H   UNL     1      46.661   4.149  18.706  0.00  0.00    +0.000 HD
ENDBRANCH   9  10
ENDBRANCH   8   9
ENDBRANCH   7   8
ENDBRANCH   1   7
BRANCH   4  13
ATOM     13  C   UNL     1      44.689   5.577  10.759  0.00  0.00    +0.000 C 
BRANCH  13  14
ATOM     14  C   UNL     1      44.542   4.227  10.145  0.00  0.00    +0.000 A 
ATOM     15  C   UNL     1      43.865   3.118  10.619  0.00  0.00    +0.000 A 
ATOM     16  O   UNL     1      44.255   1.993   9.965  0.00  0.00    +0.000 OA
ATOM     17  C   UNL     1      45.171   2.372   9.035  0.00  0.00    +0.000 A 
ATOM     18  C   UNL     1      45.934   1.514   8.248  0.00  0.00    +0.000 A 
ATOM     19  C   UNL     1      46.826   2.128   7.372  0.00  0.00    +0.000 A 
ATOM     20  F   UNL     1      47.652   1.363   6.644  0.00  0.00    +0.000 F 
ATOM     21  C   UNL     1      46.901   3.513   7.237  0.00  0.00    +0.000 A 
ATOM     22  C   UNL     1      46.130   4.348   8.054  0.00  0.00    +0.000 A 
ATOM     23  C   UNL     1      45.286   3.757   9.014  0.00  0.00    +0.000 A 
ENDBRANCH  13  14
ENDBRANCH   4  13
TORSDOF 6
ENDMDL
MODEL 2
REMARK VINA RESULT:    -7.540      1.580      1.662
REMARK INTER + INTRA:         -10.448
REMARK INTER:                  -9.602
REMARK INTRA:                  -0.847
REMARK UNBOUND:                -0.484
REMARK  Name = 
REMARK  6 active torsions:
REMARK  status: ('A' for Active; 'I' for Inactive)
REMARK    1  A    between atoms: N_1  and  C_2
REMARK    2  A    between atoms: C_2  and  C_3
REMARK    3  A    between atoms: C_3  and  O_4
REMARK    4  A    between atoms: O_4  and  C_5
REMARK    5  A    between atoms: C_8  and  C_9
REMARK    6  A    between atoms: C_9  and  C_10
REMARK                            x       y       z     vdW  Elec       q    Type
REMARK                         _______ _______ _______ _____ _____    ______ ____
ROOT
ATOM      1  C   UNL     1      47.937   6.297  13.333  0.00  0.00    +0.000 A 
ATOM      2  C   UNL     1      47.717   7.005  12.151  0.00  0.00    +0.000 A 
ATOM      3  C   UNL     1      46.518   6.832  11.444  0.00  0.00    +0.000 A 
ATOM      4  C   UNL     1      45.534   5.952  11.906  0.00  0.00    +0.000 A 
ATOM      5  C   UNL     1      45.758   5.251  13.097  0.00  0.00    +0.000 A 
ATOM      6  C   UNL     1      46.950   5.430  13.805  0.00  0.00    +0.000 A 
ENDROOT
BRANCH   1   7
ATOM      7  O   UNL     1      49.056   6.377  14.117  0.00  0.00    +0.000 OA
BRANCH   7   8
ATOM      8  C   UNL     1      48.862   6.812  15.465  0.00  0.00    +0.000 C 
BRANCH   8   9
ATOM      9  C   UNL     1      48.943   8.343  15.496  0.00  0.00    +0.000 C 
BRANCH   9  10
ATOM     10  N   UNL     1      47.621   8.964  15.552  0.00  0.00    +0.000 NA
ATOM     11  H   UNL     1      47.480   9.518  14.708  0.00  0.00    +0.000 HD
ATOM     12  H   UNL     1      47.586   9.621  16.331  0.00  0.00    +0.000 HD
ENDBRANCH   9  10
ENDBRANCH   8   9
ENDBRANCH   7   8
ENDBRANCH   1   7
BRANCH   4  13
ATOM     13  C   UNL     1      44.217   5.845  11.191  0.00  0.00    +0.000 C 
BRANCH  13  14
ATOM     14  C   UNL     1      44.047   4.475  10.629  0.00  0.00    +0.000 A 
ATOM     15  C   UNL     1      43.382   3.386  11.163  0.00  0.00    +0.000 A 
ATOM     16  O   UNL     1      43.748   2.237  10.537  0.00  0.00    +0.000 OA
ATOM     17  C   UNL     1      44.636   2.579   9.567  0.00  0.00    +0.000 A 
ATOM     18  C   UNL     1      45.372   1.691   8.788  0.00  0.00    +0.000 A 
ATOM     19  C   UNL     1      46.239   2.270   7.864  0.00  0.00    +0.000 A 
ATOM     20  F   UNL     1      47.040   1.477   7.139  0.00  0.00    +0.000 F 
ATOM     21  C   UNL     1      46.314   3.649   7.678  0.00  0.00    +0.000 A 
ATOM     22  C   UNL     1      45.570   4.516   8.489  0.00  0.00    +0.000 A 
ATOM     23  C   UNL     1      44.754   3.962   9.494  0.00  0.00    +0.000 A 
ENDBRANCH  13  14
ENDBRANCH   4  13
TORSDOF 6
ENDMDL
MODEL 3
REMARK VINA RESULT:    -7.143      4.104      7.357
REMARK INTER + INTRA:          -9.923
REMARK INTER:                  -9.257
REMARK INTRA:                  -0.667
REMARK UNBOUND:                -0.484
REMARK  Name = 
REMARK  6 active torsions:
REMARK  status: ('A' for Active; 'I' for Inactive)
REMARK    1  A    between atoms: N_1  and  C_2
REMARK    2  A    between atoms: C_2  and  C_3
REMARK    3  A    between atoms: C_3  and  O_4
REMARK    4  A    between atoms: O_4  and  C_5
REMARK    5  A    between atoms: C_8  and  C_9
REMARK    6  A    between atoms: C_9  and  C_10
REMARK                            x       y       z     vdW  Elec       q    Type
REMARK                         _______ _______ _______ _____ _____    ______ ____
ROOT
ATOM      1  C   UNL     1      45.276   3.506   8.349  0.00  0.00    +0.000 A 
ATOM      2  C   UNL     1      45.670   4.780   8.761  0.00  0.00    +0.000 A 
ATOM      3  C   UNL     1      45.460   5.182  10.088  0.00  0.00    +0.000 A 
ATOM      4  C   UNL     1      44.855   4.322  11.011  0.00  0.00    +0.000 A 
ATOM      5  C   UNL     1      44.470   3.043  10.592  0.00  0.00    +0.000 A 
ATOM      6  C   UNL     1      44.687   2.640   9.271  0.00  0.00    +0.000 A 
ENDROOT
BRANCH   1   7
ATOM      7  O   UNL     1      45.428   2.990   7.090  0.00  0.00    +0.000 OA
BRANCH   7   8
ATOM      8  C   UNL     1      46.672   3.253   6.436  0.00  0.00    +0.000 C 
BRANCH   8   9
ATOM      9  C   UNL     1      47.662   2.147   6.819  0.00  0.00    +0.000 C 
BRANCH   9  10
ATOM     10  N   UNL     1      48.547   1.793   5.711  0.00  0.00    +0.000 NA
ATOM     11  H   UNL     1      48.017   1.821   4.841  0.00  0.00    +0.000 HD
ATOM     12  H   UNL     1      48.861   0.828   5.820  0.00  0.00    +0.000 HD
ENDBRANCH   9  10
ENDBRANCH   8   9
ENDBRANCH   7   8
ENDBRANCH   1   7
BRANCH   4  13
ATOM     13  C   UNL     1      44.719   4.730  12.451  0.00  0.00    +0.000 C 
BRANCH  13  14
ATOM     14  C   UNL     1      46.066   4.926  13.058  0.00  0.00    +0.000 A 
ATOM     15  C   UNL     1      46.850   4.027  13.759  0.00  0.00    +0.000 A 
ATOM     16  O   UNL     1      47.830   4.669  14.447  0.00  0.00    +0.000 OA
ATOM     17  C   UNL     1      47.706   5.994  14.172  0.00  0.00    +0.000 A 
ATOM     18  C   UNL     1      48.415   7.023  14.784  0.00  0.00    +0.000 A 
ATOM     19  C   UNL     1      48.110   8.311  14.353  0.00  0.00    +0.000 A 
ATOM     20  F   UNL     1      48.692   9.355  14.959  0.00  0.00    +0.000 F 
ATOM     21  C   UNL     1      47.204   8.554  13.322  0.00  0.00    +0.000 A 
ATOM     22  C   UNL     1      46.496   7.498  12.735  0.00  0.00    +0.000 A 
ATOM     23  C   UNL     1      46.717   6.192  13.215  0.00  0.00    +0.000 A 
ENDBRANCH  13  14
ENDBRANCH   4  13
TORSDOF 6
ENDMDL
MODEL 4
REMARK VINA RESULT:    -6.999      1.462      1.869
REMARK INTER + INTRA:          -9.734
REMARK INTER:                  -9.221
REMARK INTRA:                  -0.514
REMARK UNBOUND:                -0.484
REMARK  Name = 
REMARK  6 active torsions:
REMARK  status: ('A' for Active; 'I' for Inactive)
REMARK    1  A    between atoms: N_1  and  C_2
REMARK    2  A    between atoms: C_2  and  C_3
REMARK    3  A    between atoms: C_3  and  O_4
REMARK    4  A    between atoms: O_4  and  C_5
REMARK    5  A    between atoms: C_8  and  C_9
REMARK    6  A    between atoms: C_9  and  C_10
REMARK                            x       y       z     vdW  Elec       q    Type
REMARK                         _______ _______ _______ _____ _____    ______ ____
ROOT
ATOM      1  C   UNL     1      47.794   6.156  13.715  0.00  0.00    +0.000 A 
ATOM      2  C   UNL     1      47.018   5.003  13.595  0.00  0.00    +0.000 A 
ATOM      3  C   UNL     1      45.815   5.041  12.876  0.00  0.00    +0.000 A 
ATOM      4  C   UNL     1      45.375   6.226  12.276  0.00  0.00    +0.000 A 
ATOM      5  C   UNL     1      46.163   7.376  12.394  0.00  0.00    +0.000 A 
ATOM      6  C   UNL     1      47.366   7.336  13.105  0.00  0.00    +0.000 A 
ENDROOT
BRANCH   1   7
ATOM      7  O   UNL     1      48.985   6.253  14.382  0.00  0.00    +0.000 OA
BRANCH   7   8
ATOM      8  C   UNL     1      49.133   7.363  15.271  0.00  0.00    +0.000 C 
BRANCH   8   9
ATOM      9  C   UNL     1      49.538   6.828  16.649  0.00  0.00    +0.000 C 
BRANCH   9  10
ATOM     10  N   UNL     1      49.882   5.408  16.610  0.00  0.00    +0.000 NA
ATOM     11  H   UNL     1      50.789   5.299  16.159  0.00  0.00    +0.000 HD
ATOM     12  H   UNL     1      49.213   4.911  16.022  0.00  0.00    +0.000 HD
ENDBRANCH   9  10
ENDBRANCH   8   9
ENDBRANCH   7   8
ENDBRANCH   1   7
BRANCH   4  13
ATOM     13  C   UNL     1      44.132   6.231  11.430  0.00  0.00    +0.000 C 
BRANCH  13  14
ATOM     14  C   UNL     1      43.861   4.863  10.907  0.00  0.00    +0.000 A 
ATOM     15  C   UNL     1      43.120   3.840  11.471  0.00  0.00    +0.000 A 
ATOM     16  O   UNL     1      43.400   2.651  10.877  0.00  0.00    +0.000 OA
ATOM     17  C   UNL     1      44.306   2.901   9.896  0.00  0.00    +0.000 A 
ATOM     18  C   UNL     1      44.972   1.941   9.140  0.00  0.00    +0.000 A 
ATOM     19  C   UNL     1      45.875   2.430   8.198  0.00  0.00    +0.000 A 
ATOM     20  F   UNL     1      46.614   1.561   7.494  0.00  0.00    +0.000 F 
ATOM     21  C   UNL     1      46.050   3.794   7.975  0.00  0.00    +0.000 A 
ATOM     22  C   UNL     1      45.375   4.734   8.763  0.00  0.00    +0.000 A 
ATOM     23  C   UNL     1      44.524   4.269   9.785  0.00  0.00    +0.000 A 
ENDBRANCH  13  14
ENDBRANCH   4  13
TORSDOF 6
ENDMDL
MODEL 5
REMARK VINA RESULT:    -6.945      4.030      7.068
REMARK INTER + INTRA:          -9.662
REMARK INTER:                  -8.980
REMARK INTRA:                  -0.682
REMARK UNBOUND:                -0.484
REMARK  Name = 
REMARK  6 active torsions:
REMARK  status: ('A' for Active; 'I' for Inactive)
REMARK    1  A    between atoms: N_1  and  C_2
REMARK    2  A    between atoms: C_2  and  C_3
REMARK    3  A    between atoms: C_3  and  O_4
REMARK    4  A    between atoms: O_4  and  C_5
REMARK    5  A    between atoms: C_8  and  C_9
REMARK    6  A    between atoms: C_9  and  C_10
REMARK                            x       y       z     vdW  Elec       q    Type
REMARK                         _______ _______ _______ _____ _____    ______ ____
ROOT
ATOM      1  C   UNL     1      45.385   2.679   8.149  0.00  0.00    +0.000 A 
ATOM      2  C   UNL     1      44.745   1.953   9.155  0.00  0.00    +0.000 A 
ATOM      3  C   UNL     1      44.095   2.625  10.199  0.00  0.00    +0.000 A 
ATOM      4  C   UNL     1      44.079   4.023  10.251  0.00  0.00    +0.000 A 
ATOM      5  C   UNL     1      44.716   4.745   9.235  0.00  0.00    +0.000 A 
ATOM      6  C   UNL     1      45.358   4.073   8.190  0.00  0.00    +0.000 A 
ENDROOT
BRANCH   1   7
ATOM      7  O   UNL     1      46.048   2.147   7.077  0.00  0.00    +0.000 OA
BRANCH   7   8
ATOM      8  C   UNL     1      47.225   1.387   7.365  0.00  0.00    +0.000 C 
BRANCH   8   9
ATOM      9  C   UNL     1      48.425   2.092   6.723  0.00  0.00    +0.000 C 
BRANCH   9  10
ATOM     10  N   UNL     1      48.412   1.985   5.266  0.00  0.00    +0.000 NA
ATOM     11  H   UNL     1      48.538   2.913   4.864  0.00  0.00    +0.000 HD
ATOM     12  H   UNL     1      47.495   1.664   4.955  0.00  0.00    +0.000 HD
ENDBRANCH   9  10
ENDBRANCH   8   9
ENDBRANCH   7   8
ENDBRANCH   1   7
BRANCH   4  13
ATOM     13  C   UNL     1      43.301   4.733  11.323  0.00  0.00    +0.000 C 
BRANCH  13  14
ATOM     14  C   UNL     1      44.061   5.919  11.810  0.00  0.00    +0.000 A 
ATOM     15  C   UNL     1      43.958   7.243  11.424  0.00  0.00    +0.000 A 
ATOM     16  O   UNL     1      45.044   7.953  11.826  0.00  0.00    +0.000 OA
ATOM     17  C   UNL     1      45.850   7.096  12.506  0.00  0.00    +0.000 A 
ATOM     18  C   UNL     1      47.135   7.375  12.962  0.00  0.00    +0.000 A 
ATOM     19  C   UNL     1      47.783   6.333  13.622  0.00  0.00    +0.000 A 
ATOM     20  F   UNL     1      49.054   6.503  14.013  0.00  0.00    +0.000 F 
ATOM     21  C   UNL     1      47.161   5.112  13.875  0.00  0.00    +0.000 A 
ATOM     22  C   UNL     1      45.873   4.858  13.390  0.00  0.00    +0.000 A 
ATOM     23  C   UNL     1      45.227   5.860  12.640  0.00  0.00    +0.000 A 
ENDBRANCH  13  14
ENDBRANCH   4  13
TORSDOF 6
ENDMDL
MODEL 6
REMARK VINA RESULT:    -5.884      2.855      3.714
REMARK INTER + INTRA:          -8.260
REMARK INTER:                  -7.817
REMARK INTRA:                  -0.443
REMARK UNBOUND:                -0.484
REMARK  Name = 
REMARK  6 active torsions:
REMARK  status: ('A' for Active; 'I' for Inactive)
REMARK    1  A    between atoms: N_1  and  C_2
REMARK    2  A    between atoms: C_2  and  C_3
REMARK    3  A    between atoms: C_3  and  O_4
REMARK    4  A    between atoms: O_4  and  C_5
REMARK    5  A    between atoms: C_8  and  C_9
REMARK    6  A    between atoms: C_9  and  C_10
REMARK                            x       y       z     vdW  Elec       q    Type
REMARK                         _______ _______ _______ _____ _____    ______ ____
ROOT
ATOM      1  C   UNL     1      46.626   8.782  12.534  0.00  0.00    +0.000 A 
ATOM      2  C   UNL     1      45.292   8.374  12.559  0.00  0.00    +0.000 A 
ATOM      3  C   UNL     1      44.978   7.019  12.737  0.00  0.00    +0.000 A 
ATOM      4  C   UNL     1      45.988   6.063  12.888  0.00  0.00    +0.000 A 
ATOM      5  C   UNL     1      47.324   6.481  12.871  0.00  0.00    +0.000 A 
ATOM      6  C   UNL     1      47.636   7.833  12.701  0.00  0.00    +0.000 A 
ENDROOT
BRANCH   1   7
ATOM      7  O   UNL     1      47.066  10.068  12.374  0.00  0.00    +0.000 OA
BRANCH   7   8
ATOM      8  C   UNL     1      48.483  10.263  12.360  0.00  0.00    +0.000 C 
BRANCH   8   9
ATOM      9  C   UNL     1      48.807  11.515  13.181  0.00  0.00    +0.000 C 
BRANCH   9  10
ATOM     10  N   UNL     1      48.778  11.255  14.619  0.00  0.00    +0.000 NA
ATOM     11  H   UNL     1      48.406  10.320  14.778  0.00  0.00    +0.000 HD
ATOM     12  H   UNL     1      48.128  11.899  15.069  0.00  0.00    +0.000 HD
ENDBRANCH   9  10
ENDBRANCH   8   9
ENDBRANCH   7   8
ENDBRANCH   1   7
BRANCH   4  13
ATOM     13  C   UNL     1      45.638   4.629  13.171  0.00  0.00    +0.000 C 
BRANCH  13  14
ATOM     14  C   UNL     1      44.764   4.090  12.090  0.00  0.00    +0.000 A 
ATOM     15  C   UNL     1      43.726   3.180  12.174  0.00  0.00    +0.000 A 
ATOM     16  O   UNL     1      43.417   2.679  10.950  0.00  0.00    +0.000 OA
ATOM     17  C   UNL     1      44.238   3.287  10.053  0.00  0.00    +0.000 A 
ATOM     18  C   UNL     1      44.357   2.959   8.706  0.00  0.00    +0.000 A 
ATOM     19  C   UNL     1      45.278   3.708   7.978  0.00  0.00    +0.000 A 
ATOM     20  F   UNL     1      45.506   3.391   6.696  0.00  0.00    +0.000 F 
ATOM     21  C   UNL     1      45.984   4.769   8.543  0.00  0.00    +0.000 A 
ATOM     22  C   UNL     1      45.852   5.064   9.905  0.00  0.00    +0.000 A 
ATOM     23  C   UNL     1      44.997   4.264  10.687  0.00  0.00    +0.000 A 
ENDBRANCH  13  14
ENDBRANCH   4  13
TORSDOF 6
ENDMDL
MODEL 7
REMARK VINA RESULT:    -5.587      2.046      2.816
REMARK INTER + INTRA:          -7.867
REMARK INTER:                  -7.274
REMARK INTRA:                  -0.593
REMARK UNBOUND:                -0.484
REMARK  Name = 
REMARK  6 active torsions:
REMARK  status: ('A' for Active; 'I' for Inactive)
REMARK    1  A    between atoms: N_1  and  C_2
REMARK    2  A    between atoms: C_2  and  C_3
REMARK    3  A    between atoms: C_3  and  O_4
REMARK    4  A    between atoms: O_4  and  C_5
REMARK    5  A    between atoms: C_8  and  C_9
REMARK    6  A    between atoms: C_9  and  C_10
REMARK                            x       y       z     vdW  Elec       q    Type
REMARK                         _______ _______ _______ _____ _____    ______ ____
ROOT
ATOM      1  C   UNL     1      48.572   7.877  14.774  0.00  0.00    +0.000 A 
ATOM      2  C   UNL     1      48.808   6.746  13.991  0.00  0.00    +0.000 A 
ATOM      3  C   UNL     1      48.019   6.502  12.858  0.00  0.00    +0.000 A 
ATOM      4  C   UNL     1      46.989   7.378  12.499  0.00  0.00    +0.000 A 
ATOM      5  C   UNL     1      46.764   8.515  13.284  0.00  0.00    +0.000 A 
ATOM      6  C   UNL     1      47.556   8.762  14.409  0.00  0.00    +0.000 A 
ENDROOT
BRANCH   1   7
ATOM      7  O   UNL     1      49.270   8.233  15.896  0.00  0.00    +0.000 OA
BRANCH   7   8
ATOM      8  C   UNL     1      49.465   7.212  16.879  0.00  0.00    +0.000 C 
BRANCH   8   9
ATOM      9  C   UNL     1      48.519   7.485  18.054  0.00  0.00    +0.000 C 
BRANCH   9  10
ATOM     10  N   UNL     1      47.497   6.450  18.190  0.00  0.00    +0.000 NA
ATOM     11  H   UNL     1      47.901   5.645  18.668  0.00  0.00    +0.000 HD
ATOM     12  H   UNL     1      47.220   6.119  17.265  0.00  0.00    +0.000 HD
ENDBRANCH   9  10
ENDBRANCH   8   9
ENDBRANCH   7   8
ENDBRANCH   1   7
BRANCH   4  13
ATOM     13  C   UNL     1      46.212   7.155  11.232  0.00  0.00    +0.000 C 
BRANCH  13  14
ATOM     14  C   UNL     1      45.219   6.061  11.425  0.00  0.00    +0.000 A 
ATOM     15  C   UNL     1      44.505   5.716  12.557  0.00  0.00    +0.000 A 
ATOM     16  O   UNL     1      43.983   4.467  12.443  0.00  0.00    +0.000 OA
ATOM     17  C   UNL     1      44.332   4.002  11.214  0.00  0.00    +0.000 A 
ATOM     18  C   UNL     1      44.128   2.708  10.746  0.00  0.00    +0.000 A 
ATOM     19  C   UNL     1      44.585   2.451   9.455  0.00  0.00    +0.000 A 
ATOM     20  F   UNL     1      44.499   1.204   8.971  0.00  0.00    +0.000 F 
ATOM     21  C   UNL     1      45.147   3.444   8.655  0.00  0.00    +0.000 A 
ATOM     22  C   UNL     1      45.350   4.733   9.161  0.00  0.00    +0.000 A 
ATOM     23  C   UNL     1      44.982   4.998  10.494  0.00  0.00    +0.000 A 
ENDBRANCH  13  14
ENDBRANCH   4  13
TORSDOF 6
ENDMDL
MODEL 8
REMARK VINA RESULT:    -5.555      4.387      7.776
REMARK INTER + INTRA:          -7.825
REMARK INTER:                  -7.003
REMARK INTRA:                  -0.822
REMARK UNBOUND:                -0.484
REMARK  Name = 
REMARK  6 active torsions:
REMARK  status: ('A' for Active; 'I' for Inactive)
REMARK    1  A    between atoms: N_1  and  C_2
REMARK    2  A    between atoms: C_2  and  C_3
REMARK    3  A    between atoms: C_3  and  O_4
REMARK    4  A    between atoms: O_4  and  C_5
REMARK    5  A    between atoms: C_8  and  C_9
REMARK    6  A    between atoms: C_9  and  C_10
REMARK                            x       y       z     vdW  Elec       q    Type
REMARK                         _______ _______ _______ _____ _____    ______ ____
ROOT
ATOM      1  C   UNL     1      45.523   6.948  12.117  0.00  0.00    +0.000 A 
ATOM      2  C   UNL     1      46.456   5.914  12.034  0.00  0.00    +0.000 A 
ATOM      3  C   UNL     1      47.665   6.004  12.737  0.00  0.00    +0.000 A 
ATOM      4  C   UNL     1      47.956   7.124  13.524  0.00  0.00    +0.000 A 
ATOM      5  C   UNL     1      47.012   8.154  13.609  0.00  0.00    +0.000 A 
ATOM      6  C   UNL     1      45.803   8.060  12.913  0.00  0.00    +0.000 A 
ENDROOT
BRANCH   1   7
ATOM      7  O   UNL     1      44.308   6.982  11.488  0.00  0.00    +0.000 OA
BRANCH   7   8
ATOM      8  C   UNL     1      43.732   5.721  11.139  0.00  0.00    +0.000 C 
BRANCH   8   9
ATOM      9  C   UNL     1      42.428   5.551  11.926  0.00  0.00    +0.000 C 
BRANCH   9  10
ATOM     10  N   UNL     1      42.668   5.341  13.352  0.00  0.00    +0.000 NA
ATOM     11  H   UNL     1      43.425   5.952  13.655  0.00  0.00    +0.000 HD
ATOM     12  H   UNL     1      42.996   4.387  13.506  0.00  0.00    +0.000 HD
ENDBRANCH   9  10
ENDBRANCH   8   9
ENDBRANCH   7   8
ENDBRANCH   1   7
BRANCH   4  13
ATOM     13  C   UNL     1      49.213   7.168  14.346  0.00  0.00    +0.000 C 
BRANCH  13  14
ATOM     14  C   UNL     1      48.885   7.039  15.794  0.00  0.00    +0.000 A 
ATOM     15  C   UNL     1      49.131   7.923  16.829  0.00  0.00    +0.000 A 
ATOM     16  O   UNL     1      49.011   7.307  18.034  0.00  0.00    +0.000 OA
ATOM     17  C   UNL     1      48.655   6.019  17.788  0.00  0.00    +0.000 A 
ATOM     18  C   UNL     1      48.572   5.002  18.735  0.00  0.00    +0.000 A 
ATOM     19  C   UNL     1      48.203   3.750  18.249  0.00  0.00    +0.000 A 
ATOM     20  F   UNL     1      48.185   2.706  19.089  0.00  0.00    +0.000 F 
ATOM     21  C   UNL     1      47.867   3.541  16.912  0.00  0.00    +0.000 A 
ATOM     22  C   UNL     1      47.975   4.582  15.982  0.00  0.00    +0.000 A 
ATOM     23  C   UNL     1      48.434   5.836  16.428  0.00  0.00    +0.000 A 
ENDBRANCH  13  14
ENDBRANCH   4  13
TORSDOF 6
ENDMDL
MODEL 9
REMARK VINA RESULT:    -5.295      4.247      8.297
REMARK INTER + INTRA:          -7.482
REMARK INTER:                  -6.752
REMARK INTRA:                  -0.730
REMARK UNBOUND:                -0.484
REMARK  Name = 
REMARK  6 active torsions:
REMARK  status: ('A' for Active; 'I' for Inactive)
REMARK    1  A    between atoms: N_1  and  C_2
REMARK    2  A    between atoms: C_2  and  C_3
REMARK    3  A    between atoms: C_3  and  O_4
REMARK    4  A    between atoms: O_4  and  C_5
REMARK    5  A    between atoms: C_8  and  C_9
REMARK    6  A    between atoms: C_9  and  C_10
REMARK                            x       y       z     vdW  Elec       q    Type
REMARK                         _______ _______ _______ _____ _____    ______ ____
ROOT
ATOM      1  C   UNL     1      45.000   5.349  12.011  0.00  0.00    +0.000 A 
ATOM      2  C   UNL     1      45.540   4.827  13.187  0.00  0.00    +0.000 A 
ATOM      3  C   UNL     1      46.785   5.279  13.646  0.00  0.00    +0.000 A 
ATOM      4  C   UNL     1      47.502   6.249  12.938  0.00  0.00    +0.000 A 
ATOM      5  C   UNL     1      46.950   6.775  11.764  0.00  0.00    +0.000 A 
ATOM      6  C   UNL     1      45.705   6.329  11.310  0.00  0.00    +0.000 A 
ENDROOT
BRANCH   1   7
ATOM      7  O   UNL     1      43.797   5.000  11.459  0.00  0.00    +0.000 OA
BRANCH   7   8
ATOM      8  C   UNL     1      43.839   4.401  10.162  0.00  0.00    +0.000 C 
BRANCH   8   9
ATOM      9  C   UNL     1      44.161   2.911  10.327  0.00  0.00    +0.000 C 
BRANCH   9  10
ATOM     10  N   UNL     1      43.302   2.268  11.319  0.00  0.00    +0.000 NA
ATOM     11  H   UNL     1      43.689   2.430  12.248  0.00  0.00    +0.000 HD
ATOM     12  H   UNL     1      43.316   1.258  11.179  0.00  0.00    +0.000 HD
ENDBRANCH   9  10
ENDBRANCH   8   9
ENDBRANCH   7   8
ENDBRANCH   1   7
BRANCH   4  13
ATOM     13  C   UNL     1      48.791   6.792  13.488  0.00  0.00    +0.000 C 
BRANCH  13  14
ATOM     14  C   UNL     1      48.533   7.553  14.744  0.00  0.00    +0.000 A 
ATOM     15  C   UNL     1      48.231   8.893  14.909  0.00  0.00    +0.000 A 
ATOM     16  O   UNL     1      48.419   9.279  16.198  0.00  0.00    +0.000 OA
ATOM     17  C   UNL     1      48.817   8.178  16.888  0.00  0.00    +0.000 A 
ATOM     18  C   UNL     1      49.258   8.160  18.208  0.00  0.00    +0.000 A 
ATOM     19  C   UNL     1      49.634   6.914  18.705  0.00  0.00    +0.000 A 
ATOM     20  F   UNL     1      50.150   6.836  19.940  0.00  0.00    +0.000 F 
ATOM     21  C   UNL     1      49.509   5.746  17.954  0.00  0.00    +0.000 A 
ATOM     22  C   UNL     1      49.075   5.800  16.625  0.00  0.00    +0.000 A 
ATOM     23  C   UNL     1      48.775   7.058  16.066  0.00  0.00    +0.000 A 
ENDBRANCH  13  14
ENDBRANCH   4  13
TORSDOF 6
ENDMDL
