MODEL 1
REMARK VINA RESULT:    -9.300      0.000      0.000
REMARK INTER + INTRA:         -12.710
REMARK INTER:                 -12.019
REMARK INTRA:                  -0.692
REMARK UNBOUND:                -0.692
REMARK  Name = 
REMARK  5 active torsions:
REMARK  status: ('A' for Active; 'I' for Inactive)
REMARK    1  A    between atoms: C_2  and  C_3
REMARK    2  A    between atoms: C_11  and  C_12
REMARK    3  A    between atoms: C_12  and  N_13
REMARK    4  A    between atoms: N_13  and  C_14
REMARK    5  A    between atoms: C_17  and  C_18
REMARK                            x       y       z     vdW  Elec       q    Type
REMARK                         _______ _______ _______ _____ _____    ______ ____
ROOT
ATOM      1  C   UNL     1      43.826   4.733  11.402  0.00  0.00    +0.000 C 
ATOM      2  C   UNL     1      43.117   6.033  11.075  0.00  0.00    +0.000 C 
ATOM      3  C   UNL     1      42.522   5.134  12.106  0.00  0.00    +0.000 C 
ENDROOT
BRANCH   1  12
ATOM      4  C   UNL     1      49.196   9.130  12.196  0.00  0.00    +0.000 C 
ATOM      5  C   UNL     1      47.665   9.145  12.097  0.00  0.00    +0.000 C 
ATOM      6  C   UNL     1      47.001   8.383  13.241  0.00  0.00    +0.000 C 
ATOM      7  N   UNL     1      47.605   7.060  13.408  0.00  0.00    +0.000 N 
ATOM      8  C   UNL     1      46.839   5.922  13.254  0.00  0.00    +0.000 A 
ATOM      9  C   UNL     1      47.157   4.745  13.922  0.00  0.00    +0.000 A 
ATOM     10  N   UNL     1      46.484   3.596  13.740  0.00  0.00    +0.000 NA
ATOM     11  N   UNL     1      45.448   3.617  12.891  0.00  0.00    +0.000 NA
ATOM     12  C   UNL     1      45.085   4.783  12.287  0.00  0.00    +0.000 A 
ATOM     13  N   UNL     1      45.762   5.945  12.447  0.00  0.00    +0.000 NA
ATOM     14  C   UNL     1      49.055   6.965  13.503  0.00  0.00    +0.000 C 
ATOM     15  C   UNL     1      49.707   7.695  12.329  0.00  0.00    +0.000 C 
BRANCH   4  17
ATOM     16  N   UNL     1      50.030  10.600  14.215  0.00  0.00    +0.000 NA
ATOM     17  C   UNL     1      49.671   9.963  13.320  0.00  0.00    +0.000 C 
ENDBRANCH   4  17
ENDBRANCH   1  12
BRANCH   1  18
ATOM     18  N   UNL     1      43.688   3.501  10.575  0.00  0.00    +0.000 N 
ATOM     19  H   UNL     1      43.455   2.686  11.142  0.00  0.00    +0.000 HD
BRANCH  18  20
ATOM     20  C   UNL     1      44.534   3.139   9.510  0.00  0.00    +0.000 A 
ATOM     21  C   UNL     1      45.005   1.846   9.277  0.00  0.00    +0.000 A 
ATOM     22  C   UNL     1      45.955   1.603   8.269  0.00  0.00    +0.000 A 
ATOM     23  C   UNL     1      46.450   2.653   7.486  0.00  0.00    +0.000 A 
ATOM     24  C   UNL     1      45.996   3.951   7.718  0.00  0.00    +0.000 A 
ATOM     25  C   UNL     1      45.061   4.184   8.730  0.00  0.00    +0.000 A 
BRANCH  23  26
ATOM     26  C   UNL     1      47.499   2.366   6.470  0.00  0.00    +0.000 C 
ATOM     27  N   UNL     1      47.527   3.150   5.348  0.00  0.00    +0.000 N 
ATOM     28  O   UNL     1      48.303   1.455   6.617  0.00  0.00    +0.000 OA
ATOM     29  H   UNL     1      46.797   3.799   5.099  0.00  0.00    +0.000 HD
ATOM     30  H   UNL     1      48.214   2.914   4.644  0.00  0.00    +0.000 HD
ENDBRANCH  23  26
ENDBRANCH  18  20
ENDBRANCH   1  18
TORSDOF 5
ENDMDL
MODEL 2
REMARK VINA RESULT:    -8.171      2.244      3.537
REMARK INTER + INTRA:         -11.251
REMARK INTER:                 -11.456
REMARK INTRA:                   0.206
REMARK UNBOUND:                -0.692
REMARK  Name = 
REMARK  5 active torsions:
REMARK  status: ('A' for Active; 'I' for Inactive)
REMARK    1  A    between atoms: C_2  and  C_3
REMARK    2  A    between atoms: C_11  and  C_12
REMARK    3  A    between atoms: C_12  and  N_13
REMARK    4  A    between atoms: N_13  and  C_14
REMARK    5  A    between atoms: C_17  and  C_18
REMARK                            x       y       z     vdW  Elec       q    Type
REMARK                         _______ _______ _______ _____ _____    ______ ____
ROOT
ATOM      1  C   UNL     1      44.173   4.840  11.825  0.00  0.00    +0.000 C 
ATOM      2  C   UNL     1      43.018   4.837  12.806  0.00  0.00    +0.000 C 
ATOM      3  C   UNL     1      43.733   3.555  12.541  0.00  0.00    +0.000 C 
ENDROOT
BRANCH   1  12
ATOM      4  C   UNL     1      47.747   4.995  17.825  0.00  0.00    +0.000 C 
ATOM      5  C   UNL     1      46.975   4.011  16.938  0.00  0.00    +0.000 C 
ATOM      6  C   UNL     1      47.613   3.844  15.561  0.00  0.00    +0.000 C 
ATOM      7  N   UNL     1      47.892   5.146  14.955  0.00  0.00    +0.000 N 
ATOM      8  C   UNL     1      47.293   5.501  13.762  0.00  0.00    +0.000 A 
ATOM      9  C   UNL     1      47.904   6.389  12.885  0.00  0.00    +0.000 A 
ATOM     10  N   UNL     1      47.320   6.818  11.754  0.00  0.00    +0.000 NA
ATOM     11  N   UNL     1      46.104   6.335  11.467  0.00  0.00    +0.000 NA
ATOM     12  C   UNL     1      45.528   5.410  12.283  0.00  0.00    +0.000 A 
ATOM     13  N   UNL     1      46.096   4.979  13.436  0.00  0.00    +0.000 NA
ATOM     14  C   UNL     1      48.617   6.137  15.738  0.00  0.00    +0.000 C 
ATOM     15  C   UNL     1      47.944   6.326  17.097  0.00  0.00    +0.000 C 
BRANCH   4  17
ATOM     16  N   UNL     1      50.050   3.972  18.590  0.00  0.00    +0.000 NA
ATOM     17  C   UNL     1      49.045   4.433  18.251  0.00  0.00    +0.000 C 
ENDBRANCH   4  17
ENDBRANCH   1  12
BRANCH   1  18
ATOM     18  N   UNL     1      43.986   4.780  10.348  0.00  0.00    +0.000 N 
ATOM     19  H   UNL     1      43.001   4.824  10.086  0.00  0.00    +0.000 HD
BRANCH  18  20
ATOM     20  C   UNL     1      44.694   3.934   9.472  0.00  0.00    +0.000 A 
ATOM     21  C   UNL     1      44.728   2.543   9.569  0.00  0.00    +0.000 A 
ATOM     22  C   UNL     1      45.571   1.789   8.734  0.00  0.00    +0.000 A 
ATOM     23  C   UNL     1      46.395   2.421   7.795  0.00  0.00    +0.000 A 
ATOM     24  C   UNL     1      46.378   3.811   7.696  0.00  0.00    +0.000 A 
ATOM     25  C   UNL     1      45.546   4.552   8.539  0.00  0.00    +0.000 A 
BRANCH  23  26
ATOM     26  C   UNL     1      47.318   1.593   6.970  0.00  0.00    +0.000 C 
ATOM     27  N   UNL     1      48.459   2.190   6.503  0.00  0.00    +0.000 N 
ATOM     28  O   UNL     1      47.068   0.426   6.703  0.00  0.00    +0.000 OA
ATOM     29  H   UNL     1      48.634   3.181   6.552  0.00  0.00    +0.000 HD
ATOM     30  H   UNL     1      49.053   1.631   5.905  0.00  0.00    +0.000 HD
ENDBRANCH  23  26
ENDBRANCH  18  20
ENDBRANCH   1  18
TORSDOF 5
ENDMDL
MODEL 3
REMARK VINA RESULT:    -7.612      1.425      2.489
REMARK INTER + INTRA:         -10.529
REMARK INTER:                 -10.407
REMARK INTRA:                  -0.122
REMARK UNBOUND:                -0.692
REMARK  Name = 
REMARK  5 active torsions:
REMARK  status: ('A' for Active; 'I' for Inactive)
REMARK    1  A    between atoms: C_2  and  C_3
REMARK    2  A    between atoms: C_11  and  C_12
REMARK    3  A    between atoms: C_12  and  N_13
REMARK    4  A    between atoms: N_13  and  C_14
REMARK    5  A    between atoms: C_17  and  C_18
REMARK                            x       y       z     vdW  Elec       q    Type
REMARK                         _______ _______ _______ _____ _____    ______ ____
ROOT
ATOM      1  C   UNL     1      43.979   4.286  11.659  0.00  0.00    +0.000 C 
ATOM      2  C   UNL     1      43.427   3.684  12.936  0.00  0.00    +0.000 C 
ATOM      3  C   UNL     1      44.858   3.441  12.592  0.00  0.00    +0.000 C 
ENDROOT
BRANCH   1  12
ATOM      4  C   UNL     1      49.193   8.282  14.036  0.00  0.00    +0.000 C 
ATOM      5  C   UNL     1      48.966   6.980  13.257  0.00  0.00    +0.000 C 
ATOM      6  C   UNL     1      48.238   7.212  11.935  0.00  0.00    +0.000 C 
ATOM      7  N   UNL     1      47.047   8.039  12.134  0.00  0.00    +0.000 N 
ATOM      8  C   UNL     1      45.796   7.541  11.826  0.00  0.00    +0.000 A 
ATOM      9  C   UNL     1      44.758   8.384  11.450  0.00  0.00    +0.000 A 
ATOM     10  N   UNL     1      43.509   7.948  11.218  0.00  0.00    +0.000 NA
ATOM     11  N   UNL     1      43.284   6.632  11.338  0.00  0.00    +0.000 NA
ATOM     12  C   UNL     1      44.310   5.790  11.636  0.00  0.00    +0.000 A 
ATOM     13  N   UNL     1      45.572   6.215  11.888  0.00  0.00    +0.000 NA
ATOM     14  C   UNL     1      47.182   9.288  12.870  0.00  0.00    +0.000 C 
ATOM     15  C   UNL     1      47.873   9.035  14.209  0.00  0.00    +0.000 C 
BRANCH   4  17
ATOM     16  N   UNL     1      50.999   9.784  12.846  0.00  0.00    +0.000 NA
ATOM     17  C   UNL     1      50.202   9.135  13.376  0.00  0.00    +0.000 C 
ENDBRANCH   4  17
ENDBRANCH   1  12
BRANCH   1  18
ATOM     18  N   UNL     1      43.785   3.666  10.318  0.00  0.00    +0.000 N 
ATOM     19  H   UNL     1      43.120   2.894  10.347  0.00  0.00    +0.000 HD
BRANCH  18  20
ATOM     20  C   UNL     1      44.810   3.403   9.389  0.00  0.00    +0.000 A 
ATOM     21  C   UNL     1      45.391   4.360   8.557  0.00  0.00    +0.000 A 
ATOM     22  C   UNL     1      46.312   3.980   7.565  0.00  0.00    +0.000 A 
ATOM     23  C   UNL     1      46.656   2.635   7.388  0.00  0.00    +0.000 A 
ATOM     24  C   UNL     1      46.073   1.667   8.206  0.00  0.00    +0.000 A 
ATOM     25  C   UNL     1      45.150   2.054   9.181  0.00  0.00    +0.000 A 
BRANCH  23  26
ATOM     26  C   UNL     1      47.588   2.265   6.288  0.00  0.00    +0.000 C 
ATOM     27  N   UNL     1      47.536   3.005   5.137  0.00  0.00    +0.000 N 
ATOM     28  O   UNL     1      48.366   1.327   6.394  0.00  0.00    +0.000 OA
ATOM     29  H   UNL     1      46.810   3.675   4.933  0.00  0.00    +0.000 HD
ATOM     30  H   UNL     1      48.140   2.714   4.380  0.00  0.00    +0.000 HD
ENDBRANCH  23  26
ENDBRANCH  18  20
ENDBRANCH   1  18
TORSDOF 5
ENDMDL
MODEL 4
REMARK VINA RESULT:    -6.647      3.945      5.289
REMARK INTER + INTRA:          -9.281
REMARK INTER:                  -8.992
REMARK INTRA:                  -0.289
REMARK UNBOUND:                -0.692
REMARK  Name = 
REMARK  5 active torsions:
REMARK  status: ('A' for Active; 'I' for Inactive)
REMARK    1  A    between atoms: C_2  and  C_3
REMARK    2  A    between atoms: C_11  and  C_12
REMARK    3  A    between atoms: C_12  and  N_13
REMARK    4  A    between atoms: N_13  and  C_14
REMARK    5  A    between atoms: C_17  and  C_18
REMARK                            x       y       z     vdW  Elec       q    Type
REMARK                         _______ _______ _______ _____ _____    ______ ____
ROOT
ATOM      1  C   UNL     1      47.381   6.044  13.898  0.00  0.00    +0.000 C 
ATOM      2  C   UNL     1      48.564   6.420  13.026  0.00  0.00    +0.000 C 
ATOM      3  C   UNL     1      47.967   7.464  13.910  0.00  0.00    +0.000 C 
ENDROOT
BRANCH   1  12
ATOM      4  C   UNL     1      52.955   4.563  17.840  0.00  0.00    +0.000 C 
ATOM      5  C   UNL     1      52.269   5.761  17.172  0.00  0.00    +0.000 C 
ATOM      6  C   UNL     1      50.867   6.011  17.722  0.00  0.00    +0.000 C 
ATOM      7  N   UNL     1      50.086   4.773  17.743  0.00  0.00    +0.000 N 
ATOM      8  C   UNL     1      48.922   4.673  17.007  0.00  0.00    +0.000 A 
ATOM      9  C   UNL     1      47.892   3.828  17.400  0.00  0.00    +0.000 A 
ATOM     10  N   UNL     1      46.778   3.644  16.672  0.00  0.00    +0.000 NA
ATOM     11  N   UNL     1      46.667   4.338  15.531  0.00  0.00    +0.000 NA
ATOM     12  C   UNL     1      47.638   5.222  15.174  0.00  0.00    +0.000 A 
ATOM     13  N   UNL     1      48.775   5.408  15.889  0.00  0.00    +0.000 NA
ATOM     14  C   UNL     1      50.674   3.591  18.356  0.00  0.00    +0.000 C 
ATOM     15  C   UNL     1      52.058   3.327  17.765  0.00  0.00    +0.000 C 
BRANCH   4  17
ATOM     16  N   UNL     1      53.586   5.116  20.337  0.00  0.00    +0.000 NA
ATOM     17  C   UNL     1      53.319   4.864  19.240  0.00  0.00    +0.000 C 
ENDBRANCH   4  17
ENDBRANCH   1  12
BRANCH   1  18
ATOM     18  N   UNL     1      45.981   5.994  13.391  0.00  0.00    +0.000 N 
ATOM     19  H   UNL     1      45.300   6.017  14.150  0.00  0.00    +0.000 HD
BRANCH  18  20
ATOM     20  C   UNL     1      45.525   5.176  12.341  0.00  0.00    +0.000 A 
ATOM     21  C   UNL     1      45.172   3.833  12.479  0.00  0.00    +0.000 A 
ATOM     22  C   UNL     1      44.858   3.057  11.349  0.00  0.00    +0.000 A 
ATOM     23  C   UNL     1      44.900   3.615  10.066  0.00  0.00    +0.000 A 
ATOM     24  C   UNL     1      45.262   4.953   9.914  0.00  0.00    +0.000 A 
ATOM     25  C   UNL     1      45.584   5.712  11.042  0.00  0.00    +0.000 A 
BRANCH  23  26
ATOM     26  C   UNL     1      44.620   2.746   8.890  0.00  0.00    +0.000 C 
ATOM     27  N   UNL     1      44.355   3.362   7.695  0.00  0.00    +0.000 N 
ATOM     28  O   UNL     1      44.611   1.526   8.981  0.00  0.00    +0.000 OA
ATOM     29  H   UNL     1      44.187   4.351   7.599  0.00  0.00    +0.000 HD
ATOM     30  H   UNL     1      44.119   2.761   6.916  0.00  0.00    +0.000 HD
ENDBRANCH  23  26
ENDBRANCH  18  20
ENDBRANCH   1  18
TORSDOF 5
ENDMDL
MODEL 5
REMARK VINA RESULT:    -6.323      3.731      6.177
REMARK INTER + INTRA:          -8.863
REMARK INTER:                  -8.500
REMARK INTRA:                  -0.363
REMARK UNBOUND:                -0.692
REMARK  Name = 
REMARK  5 active torsions:
REMARK  status: ('A' for Active; 'I' for Inactive)
REMARK    1  A    between atoms: C_2  and  C_3
REMARK    2  A    between atoms: C_11  and  C_12
REMARK    3  A    between atoms: C_12  and  N_13
REMARK    4  A    between atoms: N_13  and  C_14
REMARK    5  A    between atoms: C_17  and  C_18
REMARK                            x       y       z     vdW  Elec       q    Type
REMARK                         _______ _______ _______ _____ _____    ______ ____
ROOT
ATOM      1  C   UNL     1      48.763   7.684  12.837  0.00  0.00    +0.000 C 
ATOM      2  C   UNL     1      49.373   7.727  11.450  0.00  0.00    +0.000 C 
ATOM      3  C   UNL     1      48.924   9.005  12.073  0.00  0.00    +0.000 C 
ENDROOT
BRANCH   1  12
ATOM      4  C   UNL     1      47.929   6.233  19.620  0.00  0.00    +0.000 C 
ATOM      5  C   UNL     1      47.469   5.738  18.244  0.00  0.00    +0.000 C 
ATOM      6  C   UNL     1      48.628   5.228  17.391  0.00  0.00    +0.000 C 
ATOM      7  N   UNL     1      49.727   6.193  17.373  0.00  0.00    +0.000 N 
ATOM      8  C   UNL     1      50.136   6.759  16.182  0.00  0.00    +0.000 A 
ATOM      9  C   UNL     1      51.444   7.192  16.001  0.00  0.00    +0.000 A 
ATOM     10  N   UNL     1      51.861   7.817  14.888  0.00  0.00    +0.000 NA
ATOM     11  N   UNL     1      50.963   7.998  13.910  0.00  0.00    +0.000 NA
ATOM     12  C   UNL     1      49.698   7.514  14.049  0.00  0.00    +0.000 A 
ATOM     13  N   UNL     1      49.258   6.895  15.171  0.00  0.00    +0.000 NA
ATOM     14  C   UNL     1      50.216   6.714  18.642  0.00  0.00    +0.000 C 
ATOM     15  C   UNL     1      49.052   7.260  19.467  0.00  0.00    +0.000 C 
BRANCH   4  17
ATOM     16  N   UNL     1      48.681   4.217  21.139  0.00  0.00    +0.000 NA
ATOM     17  C   UNL     1      48.358   5.111  20.480  0.00  0.00    +0.000 C 
ENDBRANCH   4  17
ENDBRANCH   1  12
BRANCH   1  18
ATOM     18  N   UNL     1      47.339   7.323  13.089  0.00  0.00    +0.000 N 
ATOM     19  H   UNL     1      47.108   7.356  14.082  0.00  0.00    +0.000 HD
BRANCH  18  20
ATOM     20  C   UNL     1      46.639   6.281  12.451  0.00  0.00    +0.000 A 
ATOM     21  C   UNL     1      45.960   6.409  11.239  0.00  0.00    +0.000 A 
ATOM     22  C   UNL     1      45.175   5.352  10.745  0.00  0.00    +0.000 A 
ATOM     23  C   UNL     1      45.055   4.156  11.463  0.00  0.00    +0.000 A 
ATOM     24  C   UNL     1      45.720   4.021  12.681  0.00  0.00    +0.000 A 
ATOM     25  C   UNL     1      46.488   5.081  13.170  0.00  0.00    +0.000 A 
BRANCH  23  26
ATOM     26  C   UNL     1      44.167   3.083  10.938  0.00  0.00    +0.000 C 
ATOM     27  N   UNL     1      44.683   2.241   9.990  0.00  0.00    +0.000 N 
ATOM     28  O   UNL     1      43.012   2.960  11.324  0.00  0.00    +0.000 OA
ATOM     29  H   UNL     1      45.561   2.395   9.520  0.00  0.00    +0.000 HD
ATOM     30  H   UNL     1      44.054   1.547   9.607  0.00  0.00    +0.000 HD
ENDBRANCH  23  26
ENDBRANCH  18  20
ENDBRANCH   1  18
TORSDOF 5
ENDMDL
