MODEL 1
REMARK VINA RESULT:    -7.084      0.000      0.000
REMARK INTER + INTRA:          -9.671
REMARK INTER:                  -9.361
REMARK INTRA:                  -0.310
REMARK UNBOUND:                -0.310
REMARK  Name = 
REMARK  7 active torsions:
REMARK  status: ('A' for Active; 'I' for Inactive)
REMARK    1  A    between atoms: C_1  and  O_2
REMARK    2  A    between atoms: O_2  and  C_3
REMARK    3  A    between atoms: C_3  and  C_5
REMARK    4  A    between atoms: N_9  and  C_10
REMARK    5  A    between atoms: C_10  and  C_11
REMARK    6  A    between atoms: CA_15  and  C_16
REMARK    7  A    between atoms: C_16  and  O_17
REMARK                            x       y       z     vdW  Elec       q    Type
REMARK                         _______ _______ _______ _____ _____    ______ ____
ROOT
ATOM      1  C   UNL     1      46.888   4.842  13.920  0.00  0.00    +0.000 A 
ATOM      2  C   UNL     1      46.336   5.840  13.151  0.00  0.00    +0.000 A 
ATOM      3  N   UNL     1      45.389   5.620  12.207  0.00  0.00    +0.000 NA
ATOM      4  C   UNL     1      44.979   4.357  12.033  0.00  0.00    +0.000 A 
ATOM      5  N   UNL     1      43.950   4.163  11.133  0.00  0.00    +0.000 N 
ATOM      6  N   UNL     1      45.472   3.318  12.722  0.00  0.00    +0.000 NA
ATOM      7  C   UNL     1      46.415   3.581  13.654  0.00  0.00    +0.000 A 
ATOM      8  H   UNL     1      43.866   4.996  10.565  0.00  0.00    +0.000 HD
ENDROOT
BRANCH   1   9
ATOM      9  C   UNL     1      47.903   5.140  14.940  0.00  0.00    +0.000 C 
ATOM     10  O   UNL     1      48.569   6.163  14.951  0.00  0.00    +0.000 OA
BRANCH   9  12
ATOM     11  C   UNL     1      47.289   4.360  17.067  0.00  0.00    +0.000 C 
ATOM     12  O   UNL     1      47.974   4.125  15.834  0.00  0.00    +0.000 OA
ENDBRANCH   9  12
ENDBRANCH   1   9
BRANCH   5  13
ATOM     13  C   UNL     1      43.962   2.911  10.407  0.00  0.00    +0.000 C 
BRANCH  13  14
ATOM     14  C   UNL     1      44.950   3.006   9.268  0.00  0.00    +0.000 A 
ATOM     15  C   UNL     1      45.290   4.229   8.690  0.00  0.00    +0.000 A 
ATOM     16  C   UNL     1      46.240   4.240   7.678  0.00  0.00    +0.000 A 
ATOM     17  N   UNL     1      46.861   3.135   7.208  0.00  0.00    +0.000 NA
ATOM     18  CA  UNL     1      46.512   1.946   7.763  0.00  0.00    +0.000 A 
ATOM     19  C   UNL     1      45.577   1.848   8.790  0.00  0.00    +0.000 A 
BRANCH  18  20
ATOM     20  C   UNL     1      47.168   0.704   7.205  0.00  0.00    +0.000 C 
BRANCH  20  21
ATOM     21  O   UNL     1      46.765  -0.454   7.931  0.00  0.00    +0.000 OA
ATOM     22  H   UNL     1      47.567  -1.009   7.984  0.00  0.00    +0.000 HD
ENDBRANCH  20  21
ENDBRANCH  18  20
ENDBRANCH  13  14
ENDBRANCH   5  13
TORSDOF 6
ENDMDL
MODEL 2
REMARK VINA RESULT:    -7.051      1.832      6.746
REMARK INTER + INTRA:          -9.627
REMARK INTER:                  -9.202
REMARK INTRA:                  -0.425
REMARK UNBOUND:                -0.310
REMARK  Name = 
REMARK  7 active torsions:
REMARK  status: ('A' for Active; 'I' for Inactive)
REMARK    1  A    between atoms: C_1  and  O_2
REMARK    2  A    between atoms: O_2  and  C_3
REMARK    3  A    between atoms: C_3  and  C_5
REMARK    4  A    between atoms: N_9  and  C_10
REMARK    5  A    between atoms: C_10  and  C_11
REMARK    6  A    between atoms: CA_15  and  C_16
REMARK    7  A    between atoms: C_16  and  O_17
REMARK                            x       y       z     vdW  Elec       q    Type
REMARK                         _______ _______ _______ _____ _____    ______ ____
ROOT
ATOM      1  C   UNL     1      46.088   2.640   8.000  0.00  0.00    +0.000 A 
ATOM      2  C   UNL     1      45.486   2.127   9.124  0.00  0.00    +0.000 A 
ATOM      3  N   UNL     1      44.896   2.893  10.074  0.00  0.00    +0.000 NA
ATOM      4  C   UNL     1      44.908   4.219   9.885  0.00  0.00    +0.000 A 
ATOM      5  N   UNL     1      44.226   4.979  10.814  0.00  0.00    +0.000 N 
ATOM      6  N   UNL     1      45.487   4.810   8.831  0.00  0.00    +0.000 NA
ATOM      7  C   UNL     1      46.063   4.009   7.907  0.00  0.00    +0.000 A 
ATOM      8  H   UNL     1      44.055   4.403  11.629  0.00  0.00    +0.000 HD
ENDROOT
BRANCH   1   9
ATOM      9  C   UNL     1      46.700   1.760   6.994  0.00  0.00    +0.000 C 
ATOM     10  O   UNL     1      47.161   0.659   7.253  0.00  0.00    +0.000 OA
BRANCH   9  12
ATOM     11  C   UNL     1      47.940   2.477   5.135  0.00  0.00    +0.000 C 
ATOM     12  O   UNL     1      46.669   2.353   5.778  0.00  0.00    +0.000 OA
ENDBRANCH   9  12
ENDBRANCH   1   9
BRANCH   5  13
ATOM     13  C   UNL     1      44.761   6.297  11.083  0.00  0.00    +0.000 C 
BRANCH  13  14
ATOM     14  C   UNL     1      45.980   6.167  11.965  0.00  0.00    +0.000 A 
ATOM     15  C   UNL     1      47.146   6.891  11.720  0.00  0.00    +0.000 A 
ATOM     16  C   UNL     1      48.209   6.752  12.602  0.00  0.00    +0.000 A 
ATOM     17  N   UNL     1      48.191   5.952  13.691  0.00  0.00    +0.000 NA
ATOM     18  CA  UNL     1      47.058   5.236  13.914  0.00  0.00    +0.000 A 
ATOM     19  C   UNL     1      45.944   5.326  13.086  0.00  0.00    +0.000 A 
BRANCH  18  20
ATOM     20  C   UNL     1      47.054   4.303  15.103  0.00  0.00    +0.000 C 
BRANCH  20  21
ATOM     21  O   UNL     1      47.539   3.013  14.740  0.00  0.00    +0.000 OA
ATOM     22  H   UNL     1      48.379   3.182  14.272  0.00  0.00    +0.000 HD
ENDBRANCH  20  21
ENDBRANCH  18  20
ENDBRANCH  13  14
ENDBRANCH   5  13
TORSDOF 6
ENDMDL
MODEL 3
REMARK VINA RESULT:    -6.975      1.835      6.847
REMARK INTER + INTRA:          -9.527
REMARK INTER:                  -9.228
REMARK INTRA:                  -0.299
REMARK UNBOUND:                -0.310
REMARK  Name = 
REMARK  7 active torsions:
REMARK  status: ('A' for Active; 'I' for Inactive)
REMARK    1  A    between atoms: C_1  and  O_2
REMARK    2  A    between atoms: O_2  and  C_3
REMARK    3  A    between atoms: C_3  and  C_5
REMARK    4  A    between atoms: N_9  and  C_10
REMARK    5  A    between atoms: C_10  and  C_11
REMARK    6  A    between atoms: CA_15  and  C_16
REMARK    7  A    between atoms: C_16  and  O_17
REMARK                            x       y       z     vdW  Elec       q    Type
REMARK                         _______ _______ _______ _____ _____    ______ ____
ROOT
ATOM      1  C   UNL     1      46.325   2.323   7.901  0.00  0.00    +0.000 A 
ATOM      2  C   UNL     1      45.431   1.832   8.823  0.00  0.00    +0.000 A 
ATOM      3  N   UNL     1      44.632   2.617   9.585  0.00  0.00    +0.000 NA
ATOM      4  C   UNL     1      44.730   3.942   9.411  0.00  0.00    +0.000 A 
ATOM      5  N   UNL     1      43.846   4.724  10.128  0.00  0.00    +0.000 N 
ATOM      6  N   UNL     1      45.584   4.513   8.550  0.00  0.00    +0.000 NA
ATOM      7  C   UNL     1      46.363   3.693   7.810  0.00  0.00    +0.000 A 
ATOM      8  H   UNL     1      43.449   4.155  10.865  0.00  0.00    +0.000 HD
ENDROOT
BRANCH   1   9
ATOM      9  C   UNL     1      47.158   1.423   7.092  0.00  0.00    +0.000 C 
ATOM     10  O   UNL     1      46.951   0.224   6.988  0.00  0.00    +0.000 OA
BRANCH   9  12
ATOM     11  C   UNL     1      47.951   2.413   5.117  0.00  0.00    +0.000 C 
ATOM     12  O   UNL     1      48.157   2.121   6.502  0.00  0.00    +0.000 OA
ENDBRANCH   9  12
ENDBRANCH   1   9
BRANCH   5  13
ATOM     13  C   UNL     1      44.326   6.027  10.534  0.00  0.00    +0.000 C 
BRANCH  13  14
ATOM     14  C   UNL     1      45.304   5.863  11.673  0.00  0.00    +0.000 A 
ATOM     15  C   UNL     1      45.008   5.082  12.790  0.00  0.00    +0.000 A 
ATOM     16  C   UNL     1      45.976   4.943  13.775  0.00  0.00    +0.000 A 
ATOM     17  N   UNL     1      47.197   5.522  13.726  0.00  0.00    +0.000 NA
ATOM     18  CA  UNL     1      47.472   6.296  12.645  0.00  0.00    +0.000 A 
ATOM     19  C   UNL     1      46.562   6.478  11.607  0.00  0.00    +0.000 A 
BRANCH  18  20
ATOM     20  C   UNL     1      48.816   6.985  12.612  0.00  0.00    +0.000 C 
BRANCH  20  21
ATOM     21  O   UNL     1      49.580   6.667  13.773  0.00  0.00    +0.000 OA
ATOM     22  H   UNL     1      50.108   7.468  13.954  0.00  0.00    +0.000 HD
ENDBRANCH  20  21
ENDBRANCH  18  20
ENDBRANCH  13  14
ENDBRANCH   5  13
TORSDOF 6
ENDMDL
MODEL 4
REMARK VINA RESULT:    -6.519      2.513      3.279
REMARK INTER + INTRA:          -8.925
REMARK INTER:                  -8.528
REMARK INTRA:                  -0.397
REMARK UNBOUND:                -0.310
REMARK  Name = 
REMARK  7 active torsions:
REMARK  status: ('A' for Active; 'I' for Inactive)
REMARK    1  A    between atoms: C_1  and  O_2
REMARK    2  A    between atoms: O_2  and  C_3
REMARK    3  A    between atoms: C_3  and  C_5
REMARK    4  A    between atoms: N_9  and  C_10
REMARK    5  A    between atoms: C_10  and  C_11
REMARK    6  A    between atoms: CA_15  and  C_16
REMARK    7  A    between atoms: C_16  and  O_17
REMARK                            x       y       z     vdW  Elec       q    Type
REMARK                         _______ _______ _______ _____ _____    ______ ____
ROOT
ATOM      1  C   UNL     1      46.170   7.249  12.402  0.00  0.00    +0.000 A 
ATOM      2  C   UNL     1      45.060   6.598  12.887  0.00  0.00    +0.000 A 
ATOM      3  N   UNL     1      44.413   5.617  12.211  0.00  0.00    +0.000 NA
ATOM      4  C   UNL     1      44.899   5.276  11.011  0.00  0.00    +0.000 A 
ATOM      5  N   UNL     1      44.284   4.216  10.376  0.00  0.00    +0.000 N 
ATOM      6  N   UNL     1      45.963   5.868  10.450  0.00  0.00    +0.000 NA
ATOM      7  C   UNL     1      46.580   6.841  11.157  0.00  0.00    +0.000 A 
ATOM      8  H   UNL     1      43.394   4.051  10.828  0.00  0.00    +0.000 HD
ENDROOT
BRANCH   1   9
ATOM      9  C   UNL     1      46.841   8.296  13.185  0.00  0.00    +0.000 C 
ATOM     10  O   UNL     1      47.583   8.063  14.127  0.00  0.00    +0.000 OA
BRANCH   9  12
ATOM     11  C   UNL     1      47.620  10.384  12.447  0.00  0.00    +0.000 C 
ATOM     12  O   UNL     1      46.511   9.518  12.705  0.00  0.00    +0.000 OA
ENDBRANCH   9  12
ENDBRANCH   1   9
BRANCH   5  13
ATOM     13  C   UNL     1      44.251   4.266   8.930  0.00  0.00    +0.000 C 
BRANCH  13  14
ATOM     14  C   UNL     1      45.155   3.190   8.375  0.00  0.00    +0.000 A 
ATOM     15  C   UNL     1      45.204   1.912   8.930  0.00  0.00    +0.000 A 
ATOM     16  C   UNL     1      46.026   0.964   8.336  0.00  0.00    +0.000 A 
ATOM     17  N   UNL     1      46.793   1.200   7.248  0.00  0.00    +0.000 NA
ATOM     18  CA  UNL     1      46.754   2.452   6.724  0.00  0.00    +0.000 A 
ATOM     19  C   UNL     1      45.948   3.457   7.251  0.00  0.00    +0.000 A 
BRANCH  18  20
ATOM     20  C   UNL     1      47.648   2.732   5.538  0.00  0.00    +0.000 C 
BRANCH  20  21
ATOM     21  O   UNL     1      48.643   1.721   5.400  0.00  0.00    +0.000 OA
ATOM     22  H   UNL     1      49.409   2.051   5.905  0.00  0.00    +0.000 HD
ENDBRANCH  20  21
ENDBRANCH  18  20
ENDBRANCH  13  14
ENDBRANCH   5  13
TORSDOF 6
ENDMDL
MODEL 5
REMARK VINA RESULT:    -6.307      2.946      4.633
REMARK INTER + INTRA:          -8.645
REMARK INTER:                  -8.336
REMARK INTRA:                  -0.309
REMARK UNBOUND:                -0.310
REMARK  Name = 
REMARK  7 active torsions:
REMARK  status: ('A' for Active; 'I' for Inactive)
REMARK    1  A    between atoms: C_1  and  O_2
REMARK    2  A    between atoms: O_2  and  C_3
REMARK    3  A    between atoms: C_3  and  C_5
REMARK    4  A    between atoms: N_9  and  C_10
REMARK    5  A    between atoms: C_10  and  C_11
REMARK    6  A    between atoms: CA_15  and  C_16
REMARK    7  A    between atoms: C_16  and  O_17
REMARK                            x       y       z     vdW  Elec       q    Type
REMARK                         _______ _______ _______ _____ _____    ______ ____
ROOT
ATOM      1  C   UNL     1      48.618   4.476  17.798  0.00  0.00    +0.000 A 
ATOM      2  C   UNL     1      47.522   3.656  17.670  0.00  0.00    +0.000 A 
ATOM      3  N   UNL     1      46.757   3.596  16.553  0.00  0.00    +0.000 NA
ATOM      4  C   UNL     1      47.108   4.382  15.528  0.00  0.00    +0.000 A 
ATOM      5  N   UNL     1      46.375   4.244  14.366  0.00  0.00    +0.000 N 
ATOM      6  N   UNL     1      48.149   5.227  15.567  0.00  0.00    +0.000 NA
ATOM      7  C   UNL     1      48.885   5.255  16.699  0.00  0.00    +0.000 A 
ATOM      8  H   UNL     1      45.522   3.747  14.589  0.00  0.00    +0.000 HD
ENDROOT
BRANCH   1   9
ATOM      9  C   UNL     1      49.421   4.490  19.029  0.00  0.00    +0.000 C 
ATOM     10  O   UNL     1      50.603   4.794  19.060  0.00  0.00    +0.000 OA
BRANCH   9  12
ATOM     11  C   UNL     1      48.580   5.086  21.138  0.00  0.00    +0.000 C 
ATOM     12  O   UNL     1      48.658   4.121  20.084  0.00  0.00    +0.000 OA
ENDBRANCH   9  12
ENDBRANCH   1   9
BRANCH   5  13
ATOM     13  C   UNL     1      46.210   5.438  13.565  0.00  0.00    +0.000 C 
BRANCH  13  14
ATOM     14  C   UNL     1      45.072   5.230  12.593  0.00  0.00    +0.000 A 
ATOM     15  C   UNL     1      43.744   5.447  12.958  0.00  0.00    +0.000 A 
ATOM     16  C   UNL     1      42.758   5.278  11.995  0.00  0.00    +0.000 A 
ATOM     17  N   UNL     1      43.001   4.911  10.717  0.00  0.00    +0.000 NA
ATOM     18  CA  UNL     1      44.295   4.684  10.373  0.00  0.00    +0.000 A 
ATOM     19  C   UNL     1      45.344   4.842  11.274  0.00  0.00    +0.000 A 
BRANCH  18  20
ATOM     20  C   UNL     1      44.564   4.226   8.959  0.00  0.00    +0.000 C 
BRANCH  20  21
ATOM     21  O   UNL     1      45.588   5.012   8.354  0.00  0.00    +0.000 OA
ATOM     22  H   UNL     1      45.830   5.673   9.031  0.00  0.00    +0.000 HD
ENDBRANCH  20  21
ENDBRANCH  18  20
ENDBRANCH  13  14
ENDBRANCH   5  13
TORSDOF 6
ENDMDL
MODEL 6
REMARK VINA RESULT:    -6.024      3.350      7.669
REMARK INTER + INTRA:          -8.271
REMARK INTER:                  -7.915
REMARK INTRA:                  -0.355
REMARK UNBOUND:                -0.310
REMARK  Name = 
REMARK  7 active torsions:
REMARK  status: ('A' for Active; 'I' for Inactive)
REMARK    1  A    between atoms: C_1  and  O_2
REMARK    2  A    between atoms: O_2  and  C_3
REMARK    3  A    between atoms: C_3  and  C_5
REMARK    4  A    between atoms: N_9  and  C_10
REMARK    5  A    between atoms: C_10  and  C_11
REMARK    6  A    between atoms: CA_15  and  C_16
REMARK    7  A    between atoms: C_16  and  O_17
REMARK                            x       y       z     vdW  Elec       q    Type
REMARK                         _______ _______ _______ _____ _____    ______ ____
ROOT
ATOM      1  C   UNL     1      44.993   4.228  11.541  0.00  0.00    +0.000 A 
ATOM      2  C   UNL     1      45.325   5.507  11.922  0.00  0.00    +0.000 A 
ATOM      3  N   UNL     1      46.036   5.795  13.040  0.00  0.00    +0.000 NA
ATOM      4  C   UNL     1      46.430   4.763  13.797  0.00  0.00    +0.000 A 
ATOM      5  N   UNL     1      47.229   5.066  14.882  0.00  0.00    +0.000 N 
ATOM      6  N   UNL     1      46.138   3.486  13.516  0.00  0.00    +0.000 NA
ATOM      7  C   UNL     1      45.428   3.242  12.392  0.00  0.00    +0.000 A 
ATOM      8  H   UNL     1      47.156   6.060  15.059  0.00  0.00    +0.000 HD
ENDROOT
BRANCH   1   9
ATOM      9  C   UNL     1      44.232   3.973  10.310  0.00  0.00    +0.000 C 
ATOM     10  O   UNL     1      43.429   4.763   9.837  0.00  0.00    +0.000 OA
BRANCH   9  12
ATOM     11  C   UNL     1      45.291   2.795   8.578  0.00  0.00    +0.000 C 
ATOM     12  O   UNL     1      44.558   2.760   9.806  0.00  0.00    +0.000 OA
ENDBRANCH   9  12
ENDBRANCH   1   9
BRANCH   5  13
ATOM     13  C   UNL     1      47.086   4.213  16.042  0.00  0.00    +0.000 C 
BRANCH  13  14
ATOM     14  C   UNL     1      48.421   4.094  16.739  0.00  0.00    +0.000 A 
ATOM     15  C   UNL     1      49.013   5.180  17.383  0.00  0.00    +0.000 A 
ATOM     16  C   UNL     1      50.220   4.981  18.040  0.00  0.00    +0.000 A 
ATOM     17  N   UNL     1      50.868   3.796  18.094  0.00  0.00    +0.000 NA
ATOM     18  CA  UNL     1      50.294   2.747  17.449  0.00  0.00    +0.000 A 
ATOM     19  C   UNL     1      49.081   2.858  16.777  0.00  0.00    +0.000 A 
BRANCH  18  20
ATOM     20  C   UNL     1      51.042   1.434  17.467  0.00  0.00    +0.000 C 
BRANCH  20  21
ATOM     21  O   UNL     1      52.201   1.518  18.291  0.00  0.00    +0.000 OA
ATOM     22  H   UNL     1      52.673   0.675  18.148  0.00  0.00    +0.000 HD
ENDBRANCH  20  21
ENDBRANCH  18  20
ENDBRANCH  13  14
ENDBRANCH   5  13
TORSDOF 6
ENDMDL
MODEL 7
REMARK VINA RESULT:    -5.711      3.357      7.897
REMARK INTER + INTRA:          -7.857
REMARK INTER:                  -7.477
REMARK INTRA:                  -0.381
REMARK UNBOUND:                -0.310
REMARK  Name = 
REMARK  7 active torsions:
REMARK  status: ('A' for Active; 'I' for Inactive)
REMARK    1  A    between atoms: C_1  and  O_2
REMARK    2  A    between atoms: O_2  and  C_3
REMARK    3  A    between atoms: C_3  and  C_5
REMARK    4  A    between atoms: N_9  and  C_10
REMARK    5  A    between atoms: C_10  and  C_11
REMARK    6  A    between atoms: CA_15  and  C_16
REMARK    7  A    between atoms: C_16  and  O_17
REMARK                            x       y       z     vdW  Elec       q    Type
REMARK                         _______ _______ _______ _____ _____    ______ ____
ROOT
ATOM      1  C   UNL     1      45.302   4.332  11.808  0.00  0.00    +0.000 A 
ATOM      2  C   UNL     1      45.597   5.597  12.260  0.00  0.00    +0.000 A 
ATOM      3  N   UNL     1      46.250   5.843  13.422  0.00  0.00    +0.000 NA
ATOM      4  C   UNL     1      46.623   4.783  14.151  0.00  0.00    +0.000 A 
ATOM      5  N   UNL     1      47.365   5.047  15.286  0.00  0.00    +0.000 N 
ATOM      6  N   UNL     1      46.362   3.516  13.800  0.00  0.00    +0.000 NA
ATOM      7  C   UNL     1      45.710   3.315  12.634  0.00  0.00    +0.000 A 
ATOM      8  H   UNL     1      47.270   6.031  15.503  0.00  0.00    +0.000 HD
ENDROOT
BRANCH   1   9
ATOM      9  C   UNL     1      44.604   4.123  10.531  0.00  0.00    +0.000 C 
ATOM     10  O   UNL     1      43.541   4.654  10.250  0.00  0.00    +0.000 OA
BRANCH   9  12
ATOM     11  C   UNL     1      44.524   2.483   8.855  0.00  0.00    +0.000 C 
ATOM     12  O   UNL     1      45.311   3.274   9.749  0.00  0.00    +0.000 OA
ENDBRANCH   9  12
ENDBRANCH   1   9
BRANCH   5  13
ATOM     13  C   UNL     1      47.179   4.141  16.399  0.00  0.00    +0.000 C 
BRANCH  13  14
ATOM     14  C   UNL     1      48.525   3.621  16.845  0.00  0.00    +0.000 A 
ATOM     15  C   UNL     1      48.950   2.326  16.547  0.00  0.00    +0.000 A 
ATOM     16  C   UNL     1      50.219   1.937  16.953  0.00  0.00    +0.000 A 
ATOM     17  N   UNL     1      51.078   2.734  17.627  0.00  0.00    +0.000 NA
ATOM     18  CA  UNL     1      50.651   3.987  17.930  0.00  0.00    +0.000 A 
ATOM     19  C   UNL     1      49.399   4.461  17.550  0.00  0.00    +0.000 A 
BRANCH  18  20
ATOM     20  C   UNL     1      51.591   4.863  18.726  0.00  0.00    +0.000 C 
BRANCH  20  21
ATOM     21  O   UNL     1      52.288   5.768  17.875  0.00  0.00    +0.000 OA
ATOM     22  H   UNL     1      51.761   5.798  17.053  0.00  0.00    +0.000 HD
ENDBRANCH  20  21
ENDBRANCH  18  20
ENDBRANCH  13  14
ENDBRANCH   5  13
TORSDOF 6
ENDMDL
MODEL 8
REMARK VINA RESULT:    -5.551      3.100      7.310
REMARK INTER + INTRA:          -7.646
REMARK INTER:                  -7.259
REMARK INTRA:                  -0.386
REMARK UNBOUND:                -0.310
REMARK  Name = 
REMARK  7 active torsions:
REMARK  status: ('A' for Active; 'I' for Inactive)
REMARK    1  A    between atoms: C_1  and  O_2
REMARK    2  A    between atoms: O_2  and  C_3
REMARK    3  A    between atoms: C_3  and  C_5
REMARK    4  A    between atoms: N_9  and  C_10
REMARK    5  A    between atoms: C_10  and  C_11
REMARK    6  A    between atoms: CA_15  and  C_16
REMARK    7  A    between atoms: C_16  and  O_17
REMARK                            x       y       z     vdW  Elec       q    Type
REMARK                         _______ _______ _______ _____ _____    ______ ____
ROOT
ATOM      1  C   UNL     1      44.588   4.298  11.439  0.00  0.00    +0.000 A 
ATOM      2  C   UNL     1      44.628   4.404  12.810  0.00  0.00    +0.000 A 
ATOM      3  N   UNL     1      45.278   5.396  13.466  0.00  0.00    +0.000 NA
ATOM      4  C   UNL     1      45.905   6.315  12.720  0.00  0.00    +0.000 A 
ATOM      5  N   UNL     1      46.485   7.367  13.399  0.00  0.00    +0.000 N 
ATOM      6  N   UNL     1      45.937   6.282  11.380  0.00  0.00    +0.000 NA
ATOM      7  C   UNL     1      45.276   5.277  10.766  0.00  0.00    +0.000 A 
ATOM      8  H   UNL     1      46.554   7.112  14.376  0.00  0.00    +0.000 HD
ENDROOT
BRANCH   1   9
ATOM      9  C   UNL     1      43.855   3.208  10.780  0.00  0.00    +0.000 C 
ATOM     10  O   UNL     1      43.076   2.470  11.364  0.00  0.00    +0.000 OA
BRANCH   9  12
ATOM     11  C   UNL     1      44.950   2.022   9.076  0.00  0.00    +0.000 C 
ATOM     12  O   UNL     1      44.177   3.160   9.466  0.00  0.00    +0.000 OA
ENDBRANCH   9  12
ENDBRANCH   1   9
BRANCH   5  13
ATOM     13  C   UNL     1      47.685   7.926  12.813  0.00  0.00    +0.000 C 
BRANCH  13  14
ATOM     14  C   UNL     1      48.848   7.698  13.750  0.00  0.00    +0.000 A 
ATOM     15  C   UNL     1      50.093   8.287  13.535  0.00  0.00    +0.000 A 
ATOM     16  C   UNL     1      51.099   8.066  14.466  0.00  0.00    +0.000 A 
ATOM     17  N   UNL     1      50.953   7.308  15.575  0.00  0.00    +0.000 NA
ATOM     18  CA  UNL     1      49.743   6.722  15.769  0.00  0.00    +0.000 A 
ATOM     19  C   UNL     1      48.678   6.901  14.891  0.00  0.00    +0.000 A 
BRANCH  18  20
ATOM     20  C   UNL     1      49.593   5.833  16.982  0.00  0.00    +0.000 C 
BRANCH  20  21
ATOM     21  O   UNL     1      50.572   4.798  16.980  0.00  0.00    +0.000 OA
ATOM     22  H   UNL     1      51.235   5.077  17.640  0.00  0.00    +0.000 HD
ENDBRANCH  20  21
ENDBRANCH  18  20
ENDBRANCH  13  14
ENDBRANCH   5  13
TORSDOF 6
ENDMDL
MODEL 9
REMARK VINA RESULT:    -5.499      3.260      8.230
REMARK INTER + INTRA:          -7.576
REMARK INTER:                  -7.278
REMARK INTRA:                  -0.298
REMARK UNBOUND:                -0.310
REMARK  Name = 
REMARK  7 active torsions:
REMARK  status: ('A' for Active; 'I' for Inactive)
REMARK    1  A    between atoms: C_1  and  O_2
REMARK    2  A    between atoms: O_2  and  C_3
REMARK    3  A    between atoms: C_3  and  C_5
REMARK    4  A    between atoms: N_9  and  C_10
REMARK    5  A    between atoms: C_10  and  C_11
REMARK    6  A    between atoms: CA_15  and  C_16
REMARK    7  A    between atoms: C_16  and  O_17
REMARK                            x       y       z     vdW  Elec       q    Type
REMARK                         _______ _______ _______ _____ _____    ______ ____
ROOT
ATOM      1  C   UNL     1      45.220   4.544  11.417  0.00  0.00    +0.000 A 
ATOM      2  C   UNL     1      45.301   3.572  12.387  0.00  0.00    +0.000 A 
ATOM      3  N   UNL     1      45.942   3.743  13.568  0.00  0.00    +0.000 NA
ATOM      4  C   UNL     1      46.517   4.933  13.785  0.00  0.00    +0.000 A 
ATOM      5  N   UNL     1      47.088   5.123  15.028  0.00  0.00    +0.000 N 
ATOM      6  N   UNL     1      46.507   5.933  12.892  0.00  0.00    +0.000 NA
ATOM      7  C   UNL     1      45.856   5.720  11.727  0.00  0.00    +0.000 A 
ATOM      8  H   UNL     1      47.196   4.217  15.467  0.00  0.00    +0.000 HD
ENDROOT
BRANCH   1   9
ATOM      9  C   UNL     1      44.499   4.308  10.159  0.00  0.00    +0.000 C 
ATOM     10  O   UNL     1      43.385   4.751   9.927  0.00  0.00    +0.000 OA
BRANCH   9  12
ATOM     11  C   UNL     1      44.723   2.237   9.076  0.00  0.00    +0.000 C 
ATOM     12  O   UNL     1      45.248   3.543   9.331  0.00  0.00    +0.000 OA
ENDBRANCH   9  12
ENDBRANCH   1   9
BRANCH   5  13
ATOM     13  C   UNL     1      48.252   5.983  15.075  0.00  0.00    +0.000 C 
BRANCH  13  14
ATOM     14  C   UNL     1      48.604   6.261  16.518  0.00  0.00    +0.000 A 
ATOM     15  C   UNL     1      48.991   7.530  16.948  0.00  0.00    +0.000 A 
ATOM     16  C   UNL     1      49.256   7.717  18.298  0.00  0.00    +0.000 A 
ATOM     17  N   UNL     1      49.166   6.744  19.231  0.00  0.00    +0.000 NA
ATOM     18  CA  UNL     1      48.806   5.507  18.802  0.00  0.00    +0.000 A 
ATOM     19  C   UNL     1      48.512   5.236  17.469  0.00  0.00    +0.000 A 
BRANCH  18  20
ATOM     20  C   UNL     1      48.754   4.405  19.835  0.00  0.00    +0.000 C 
BRANCH  20  21
ATOM     21  O   UNL     1      48.335   3.176  19.248  0.00  0.00    +0.000 OA
ATOM     22  H   UNL     1      48.756   2.482  19.791  0.00  0.00    +0.000 HD
ENDBRANCH  20  21
ENDBRANCH  18  20
ENDBRANCH  13  14
ENDBRANCH   5  13
TORSDOF 6
ENDMDL
