MODEL 1
REMARK VINA RESULT:    -8.773      0.000      0.000
REMARK INTER + INTRA:         -12.196
REMARK INTER:                 -11.338
REMARK INTRA:                  -0.858
REMARK UNBOUND:                -0.858
REMARK  Name = 
REMARK  5 active torsions:
REMARK  status: ('A' for Active; 'I' for Inactive)
REMARK    1  A    between atoms: C_2  and  C_4
REMARK    2  A    between atoms: C_7  and  N_8
REMARK    3  A    between atoms: N_8  and  C_9
REMARK    4  A    between atoms: C_9  and  C_10
REMARK    5  A    between atoms: C_14  and  C_15
REMARK                            x       y       z     vdW  Elec       q    Type
REMARK                         _______ _______ _______ _____ _____    ______ ____
ROOT
ATOM      1  C   UNL     1      43.689   4.904  11.432  0.00  0.00    +0.000 C 
ENDROOT
BRANCH   1   2
ATOM      2  C   UNL     1      45.002   4.956  12.180  0.00  0.00    +0.000 A 
ATOM      3  C   UNL     1      45.461   3.871  12.904  0.00  0.00    +0.000 A 
ATOM      4  C   UNL     1      46.707   3.999  13.474  0.00  0.00    +0.000 A 
ATOM      5  N   UNL     1      47.475   5.091  13.334  0.00  0.00    +0.000 NA
ATOM      6  C   UNL     1      46.965   6.097  12.599  0.00  0.00    +0.000 A 
ATOM      7  N   UNL     1      45.747   6.074  12.024  0.00  0.00    +0.000 NA
BRANCH   6   8
ATOM      8  C   UNL     1      47.831   7.251  12.311  0.00  0.00    +0.000 A 
ATOM      9  C   UNL     1      49.222   7.095  12.138  0.00  0.00    +0.000 A 
ATOM     10  C   UNL     1      50.041   8.174  11.801  0.00  0.00    +0.000 A 
ATOM     11  C   UNL     1      49.485   9.439  11.636  0.00  0.00    +0.000 A 
ATOM     12  C   UNL     1      48.119   9.610  11.815  0.00  0.00    +0.000 A 
ATOM     13  F   UNL     1      47.581  10.827  11.655  0.00  0.00    +0.000 F 
ATOM     14  C   UNL     1      47.298   8.539  12.150  0.00  0.00    +0.000 A 
ENDBRANCH   6   8
ENDBRANCH   1   2
BRANCH   1  15
ATOM     15  N   UNL     1      43.833   4.854   9.984  0.00  0.00    +0.000 N 
ATOM     16  H   UNL     1      43.588   5.699   9.481  0.00  0.00    +0.000 HD
BRANCH  15  20
ATOM     17  C   UNL     1      46.387   2.346   7.759  0.00  0.00    +0.000 A 
ATOM     18  C   UNL     1      45.489   1.779   8.664  0.00  0.00    +0.000 A 
ATOM     19  C   UNL     1      44.650   2.602   9.429  0.00  0.00    +0.000 A 
ATOM     20  C   UNL     1      44.699   3.997   9.323  0.00  0.00    +0.000 A 
ATOM     21  C   UNL     1      45.596   4.545   8.393  0.00  0.00    +0.000 A 
ATOM     22  C   UNL     1      46.439   3.734   7.625  0.00  0.00    +0.000 A 
BRANCH  17  24
ATOM     23  N   UNL     1      48.473   2.121   6.518  0.00  0.00    +0.000 N 
ATOM     24  C   UNL     1      47.329   1.519   6.964  0.00  0.00    +0.000 C 
ATOM     25  O   UNL     1      47.110   0.336   6.734  0.00  0.00    +0.000 OA
ATOM     26  H   UNL     1      49.140   1.521   6.052  0.00  0.00    +0.000 HD
ATOM     27  H   UNL     1      48.810   2.993   6.899  0.00  0.00    +0.000 HD
ENDBRANCH  17  24
ENDBRANCH  15  20
ENDBRANCH   1  15
TORSDOF 5
ENDMDL
MODEL 2
REMARK VINA RESULT:    -8.747      0.924      1.345
REMARK INTER + INTRA:         -12.161
REMARK INTER:                 -11.309
REMARK INTRA:                  -0.852
REMARK UNBOUND:                -0.858
REMARK  Name = 
REMARK  5 active torsions:
REMARK  status: ('A' for Active; 'I' for Inactive)
REMARK    1  A    between atoms: C_2  and  C_4
REMARK    2  A    between atoms: C_7  and  N_8
REMARK    3  A    between atoms: N_8  and  C_9
REMARK    4  A    between atoms: C_9  and  C_10
REMARK    5  A    between atoms: C_14  and  C_15
REMARK                            x       y       z     vdW  Elec       q    Type
REMARK                         _______ _______ _______ _____ _____    ______ ____
ROOT
ATOM      1  C   UNL     1      43.648   4.947  11.428  0.00  0.00    +0.000 C 
ENDROOT
BRANCH   1   2
ATOM      2  C   UNL     1      44.961   5.083  12.165  0.00  0.00    +0.000 A 
ATOM      3  C   UNL     1      45.459   4.055  12.944  0.00  0.00    +0.000 A 
ATOM      4  C   UNL     1      46.702   4.257  13.500  0.00  0.00    +0.000 A 
ATOM      5  N   UNL     1      47.432   5.365  13.297  0.00  0.00    +0.000 NA
ATOM      6  C   UNL     1      46.886   6.311  12.511  0.00  0.00    +0.000 A 
ATOM      7  N   UNL     1      45.667   6.216  11.945  0.00  0.00    +0.000 NA
BRANCH   6   8
ATOM      8  C   UNL     1      47.711   7.476  12.157  0.00  0.00    +0.000 A 
ATOM      9  C   UNL     1      47.172   8.779  12.153  0.00  0.00    +0.000 A 
ATOM     10  C   UNL     1      47.963   9.896  11.881  0.00  0.00    +0.000 A 
ATOM     11  C   UNL     1      49.317   9.733  11.599  0.00  0.00    +0.000 A 
ATOM     12  C   UNL     1      49.858   8.455  11.587  0.00  0.00    +0.000 A 
ATOM     13  F   UNL     1      51.161   8.295  11.318  0.00  0.00    +0.000 F 
ATOM     14  C   UNL     1      49.076   7.339  11.858  0.00  0.00    +0.000 A 
ENDBRANCH   6   8
ENDBRANCH   1   2
BRANCH   1  15
ATOM     15  N   UNL     1      43.788   4.840   9.982  0.00  0.00    +0.000 N 
ATOM     16  H   UNL     1      43.532   5.661   9.447  0.00  0.00    +0.000 HD
BRANCH  15  20
ATOM     17  C   UNL     1      46.364   2.274   7.850  0.00  0.00    +0.000 A 
ATOM     18  C   UNL     1      45.470   1.733   8.776  0.00  0.00    +0.000 A 
ATOM     19  C   UNL     1      44.625   2.576   9.510  0.00  0.00    +0.000 A 
ATOM     20  C   UNL     1      44.662   3.967   9.353  0.00  0.00    +0.000 A 
ATOM     21  C   UNL     1      45.554   4.488   8.404  0.00  0.00    +0.000 A 
ATOM     22  C   UNL     1      46.404   3.656   7.666  0.00  0.00    +0.000 A 
BRANCH  17  24
ATOM     23  N   UNL     1      48.414   2.037   6.552  0.00  0.00    +0.000 N 
ATOM     24  C   UNL     1      47.313   1.427   7.086  0.00  0.00    +0.000 C 
ATOM     25  O   UNL     1      47.138   0.221   6.956  0.00  0.00    +0.000 OA
ATOM     26  H   UNL     1      49.090   1.430   6.109  0.00  0.00    +0.000 HD
ATOM     27  H   UNL     1      48.725   2.949   6.853  0.00  0.00    +0.000 HD
ENDBRANCH  17  24
ENDBRANCH  15  20
ENDBRANCH   1  15
TORSDOF 5
ENDMDL
MODEL 3
REMARK VINA RESULT:    -8.242      2.979      4.072
REMARK INTER + INTRA:         -11.510
REMARK INTER:                 -11.090
REMARK INTRA:                  -0.420
REMARK UNBOUND:                -0.858
REMARK  Name = 
REMARK  5 active torsions:
REMARK  status: ('A' for Active; 'I' for Inactive)
REMARK    1  A    between atoms: C_2  and  C_4
REMARK    2  A    between atoms: C_7  and  N_8
REMARK    3  A    between atoms: N_8  and  C_9
REMARK    4  A    between atoms: C_9  and  C_10
REMARK    5  A    between atoms: C_14  and  C_15
REMARK                            x       y       z     vdW  Elec       q    Type
REMARK                         _______ _______ _______ _____ _____    ______ ____
ROOT
ATOM      1  C   UNL     1      44.063   4.115  11.905  0.00  0.00    +0.000 C 
ENDROOT
BRANCH   1   2
ATOM      2  C   UNL     1      45.283   4.872  12.381  0.00  0.00    +0.000 A 
ATOM      3  C   UNL     1      45.731   6.002  11.721  0.00  0.00    +0.000 A 
ATOM      4  C   UNL     1      46.797   6.659  12.292  0.00  0.00    +0.000 A 
ATOM      5  N   UNL     1      47.378   6.271  13.438  0.00  0.00    +0.000 NA
ATOM      6  C   UNL     1      46.872   5.173  14.029  0.00  0.00    +0.000 A 
ATOM      7  N   UNL     1      45.849   4.449  13.534  0.00  0.00    +0.000 NA
BRANCH   6   8
ATOM      8  C   UNL     1      47.393   4.798  15.352  0.00  0.00    +0.000 A 
ATOM      9  C   UNL     1      48.358   5.589  16.009  0.00  0.00    +0.000 A 
ATOM     10  C   UNL     1      48.809   5.275  17.291  0.00  0.00    +0.000 A 
ATOM     11  C   UNL     1      48.308   4.154  17.946  0.00  0.00    +0.000 A 
ATOM     12  C   UNL     1      47.367   3.359  17.307  0.00  0.00    +0.000 A 
ATOM     13  F   UNL     1      46.882   2.280  17.936  0.00  0.00    +0.000 F 
ATOM     14  C   UNL     1      46.913   3.666  16.030  0.00  0.00    +0.000 A 
ENDBRANCH   6   8
ENDBRANCH   1   2
BRANCH   1  15
ATOM     15  N   UNL     1      43.874   4.142  10.461  0.00  0.00    +0.000 N 
ATOM     16  H   UNL     1      43.261   4.866  10.105  0.00  0.00    +0.000 HD
BRANCH  15  20
ATOM     17  C   UNL     1      46.531   2.715   7.517  0.00  0.00    +0.000 A 
ATOM     18  C   UNL     1      45.915   1.809   8.381  0.00  0.00    +0.000 A 
ATOM     19  C   UNL     1      45.048   2.270   9.381  0.00  0.00    +0.000 A 
ATOM     20  C   UNL     1      44.790   3.636   9.553  0.00  0.00    +0.000 A 
ATOM     21  C   UNL     1      45.405   4.528   8.661  0.00  0.00    +0.000 A 
ATOM     22  C   UNL     1      46.274   4.079   7.660  0.00  0.00    +0.000 A 
BRANCH  17  24
ATOM     23  N   UNL     1      47.438   2.906   5.262  0.00  0.00    +0.000 N 
ATOM     24  C   UNL     1      47.494   2.279   6.476  0.00  0.00    +0.000 C 
ATOM     25  O   UNL     1      48.328   1.408   6.696  0.00  0.00    +0.000 OA
ATOM     26  H   UNL     1      48.155   2.654   4.596  0.00  0.00    +0.000 HD
ATOM     27  H   UNL     1      46.959   3.785   5.129  0.00  0.00    +0.000 HD
ENDBRANCH  17  24
ENDBRANCH  15  20
ENDBRANCH   1  15
TORSDOF 5
ENDMDL
MODEL 4
REMARK VINA RESULT:    -8.174      3.753      6.777
REMARK INTER + INTRA:         -11.421
REMARK INTER:                 -10.707
REMARK INTRA:                  -0.714
REMARK UNBOUND:                -0.858
REMARK  Name = 
REMARK  5 active torsions:
REMARK  status: ('A' for Active; 'I' for Inactive)
REMARK    1  A    between atoms: C_2  and  C_4
REMARK    2  A    between atoms: C_7  and  N_8
REMARK    3  A    between atoms: N_8  and  C_9
REMARK    4  A    between atoms: C_9  and  C_10
REMARK    5  A    between atoms: C_14  and  C_15
REMARK                            x       y       z     vdW  Elec       q    Type
REMARK                         _______ _______ _______ _____ _____    ______ ____
ROOT
ATOM      1  C   UNL     1      43.857   6.642  11.388  0.00  0.00    +0.000 C 
ENDROOT
BRANCH   1   2
ATOM      2  C   UNL     1      43.908   5.146  11.173  0.00  0.00    +0.000 A 
ATOM      3  C   UNL     1      43.094   4.287  11.889  0.00  0.00    +0.000 A 
ATOM      4  C   UNL     1      43.164   2.956  11.550  0.00  0.00    +0.000 A 
ATOM      5  N   UNL     1      43.947   2.482  10.567  0.00  0.00    +0.000 NA
ATOM      6  C   UNL     1      44.695   3.384   9.905  0.00  0.00    +0.000 A 
ATOM      7  N   UNL     1      44.714   4.702  10.181  0.00  0.00    +0.000 NA
BRANCH   6   8
ATOM      8  C   UNL     1      45.460   2.923   8.737  0.00  0.00    +0.000 A 
ATOM      9  C   UNL     1      45.877   3.823   7.735  0.00  0.00    +0.000 A 
ATOM     10  C   UNL     1      46.657   3.404   6.656  0.00  0.00    +0.000 A 
ATOM     11  C   UNL     1      47.034   2.069   6.552  0.00  0.00    +0.000 A 
ATOM     12  C   UNL     1      46.620   1.169   7.524  0.00  0.00    +0.000 A 
ATOM     13  F   UNL     1      46.983  -0.118   7.427  0.00  0.00    +0.000 F 
ATOM     14  C   UNL     1      45.844   1.579   8.601  0.00  0.00    +0.000 A 
ENDBRANCH   6   8
ENDBRANCH   1   2
BRANCH   1  15
ATOM     15  N   UNL     1      44.591   7.099  12.560  0.00  0.00    +0.000 N 
ATOM     16  H   UNL     1      44.144   6.944  13.455  0.00  0.00    +0.000 HD
BRANCH  15  20
ATOM     17  C   UNL     1      48.774   7.609  12.437  0.00  0.00    +0.000 A 
ATOM     18  C   UNL     1      48.245   6.389  12.861  0.00  0.00    +0.000 A 
ATOM     19  C   UNL     1      46.856   6.212  12.930  0.00  0.00    +0.000 A 
ATOM     20  C   UNL     1      45.970   7.245  12.598  0.00  0.00    +0.000 A 
ATOM     21  C   UNL     1      46.522   8.457  12.158  0.00  0.00    +0.000 A 
ATOM     22  C   UNL     1      47.907   8.645  12.086  0.00  0.00    +0.000 A 
BRANCH  17  24
ATOM     23  N   UNL     1      50.920   7.421  11.296  0.00  0.00    +0.000 N 
ATOM     24  C   UNL     1      50.236   7.860  12.396  0.00  0.00    +0.000 C 
ATOM     25  O   UNL     1      50.811   8.460  13.297  0.00  0.00    +0.000 OA
ATOM     26  H   UNL     1      51.897   7.675  11.248  0.00  0.00    +0.000 HD
ATOM     27  H   UNL     1      50.455   7.167  10.436  0.00  0.00    +0.000 HD
ENDBRANCH  17  24
ENDBRANCH  15  20
ENDBRANCH   1  15
TORSDOF 5
ENDMDL
MODEL 5
REMARK VINA RESULT:    -7.686      3.987      7.428
REMARK INTER + INTRA:         -10.791
REMARK INTER:                 -10.272
REMARK INTRA:                  -0.519
REMARK UNBOUND:                -0.858
REMARK  Name = 
REMARK  5 active torsions:
REMARK  status: ('A' for Active; 'I' for Inactive)
REMARK    1  A    between atoms: C_2  and  C_4
REMARK    2  A    between atoms: C_7  and  N_8
REMARK    3  A    between atoms: N_8  and  C_9
REMARK    4  A    between atoms: C_9  and  C_10
REMARK    5  A    between atoms: C_14  and  C_15
REMARK                            x       y       z     vdW  Elec       q    Type
REMARK                         _______ _______ _______ _____ _____    ______ ____
ROOT
ATOM      1  C   UNL     1      45.844   7.170  11.773  0.00  0.00    +0.000 C 
ENDROOT
BRANCH   1   2
ATOM      2  C   UNL     1      45.037   6.002  11.251  0.00  0.00    +0.000 A 
ATOM      3  C   UNL     1      43.703   5.844  11.584  0.00  0.00    +0.000 A 
ATOM      4  C   UNL     1      43.045   4.795  10.984  0.00  0.00    +0.000 A 
ATOM      5  N   UNL     1      43.624   3.967  10.099  0.00  0.00    +0.000 NA
ATOM      6  C   UNL     1      44.919   4.199   9.814  0.00  0.00    +0.000 A 
ATOM      7  N   UNL     1      45.653   5.183  10.369  0.00  0.00    +0.000 NA
BRANCH   6   8
ATOM      8  C   UNL     1      45.546   3.400   8.751  0.00  0.00    +0.000 A 
ATOM      9  C   UNL     1      46.107   4.012   7.611  0.00  0.00    +0.000 A 
ATOM     10  C   UNL     1      46.760   3.266   6.629  0.00  0.00    +0.000 A 
ATOM     11  C   UNL     1      46.862   1.884   6.763  0.00  0.00    +0.000 A 
ATOM     12  C   UNL     1      46.304   1.267   7.873  0.00  0.00    +0.000 A 
ATOM     13  F   UNL     1      46.402  -0.063   8.005  0.00  0.00    +0.000 F 
ATOM     14  C   UNL     1      45.652   2.004   8.855  0.00  0.00    +0.000 A 
ENDBRANCH   6   8
ENDBRANCH   1   2
BRANCH   1  15
ATOM     15  N   UNL     1      47.151   6.800  12.297  0.00  0.00    +0.000 N 
ATOM     16  H   UNL     1      47.943   7.308  11.921  0.00  0.00    +0.000 HD
BRANCH  15  20
ATOM     17  C   UNL     1      47.999   5.052  16.038  0.00  0.00    +0.000 A 
ATOM     18  C   UNL     1      47.108   4.417  15.171  0.00  0.00    +0.000 A 
ATOM     19  C   UNL     1      46.797   4.999  13.934  0.00  0.00    +0.000 A 
ATOM     20  C   UNL     1      47.350   6.225  13.543  0.00  0.00    +0.000 A 
ATOM     21  C   UNL     1      48.257   6.837  14.421  0.00  0.00    +0.000 A 
ATOM     22  C   UNL     1      48.573   6.266  15.659  0.00  0.00    +0.000 A 
BRANCH  17  24
ATOM     23  N   UNL     1      47.271   4.185  18.197  0.00  0.00    +0.000 N 
ATOM     24  C   UNL     1      48.320   4.501  17.378  0.00  0.00    +0.000 C 
ATOM     25  O   UNL     1      49.477   4.310  17.734  0.00  0.00    +0.000 OA
ATOM     26  H   UNL     1      47.508   3.734  19.070  0.00  0.00    +0.000 HD
ATOM     27  H   UNL     1      46.328   4.080  17.852  0.00  0.00    +0.000 HD
ENDBRANCH  17  24
ENDBRANCH  15  20
ENDBRANCH   1  15
TORSDOF 5
ENDMDL
MODEL 6
REMARK VINA RESULT:    -7.618      1.614      2.034
REMARK INTER + INTRA:         -10.703
REMARK INTER:                 -10.015
REMARK INTRA:                  -0.689
REMARK UNBOUND:                -0.858
REMARK  Name = 
REMARK  5 active torsions:
REMARK  status: ('A' for Active; 'I' for Inactive)
REMARK    1  A    between atoms: C_2  and  C_4
REMARK    2  A    between atoms: C_7  and  N_8
REMARK    3  A    between atoms: N_8  and  C_9
REMARK    4  A    between atoms: C_9  and  C_10
REMARK    5  A    between atoms: C_14  and  C_15
REMARK                            x       y       z     vdW  Elec       q    Type
REMARK                         _______ _______ _______ _____ _____    ______ ____
ROOT
ATOM      1  C   UNL     1      44.344   6.122  11.269  0.00  0.00    +0.000 C 
ENDROOT
BRANCH   1   2
ATOM      2  C   UNL     1      45.476   5.759  12.204  0.00  0.00    +0.000 A 
ATOM      3  C   UNL     1      45.451   4.591  12.944  0.00  0.00    +0.000 A 
ATOM      4  C   UNL     1      46.571   4.321  13.696  0.00  0.00    +0.000 A 
ATOM      5  N   UNL     1      47.658   5.110  13.714  0.00  0.00    +0.000 NA
ATOM      6  C   UNL     1      47.611   6.218  12.952  0.00  0.00    +0.000 A 
ATOM      7  N   UNL     1      46.551   6.580  12.204  0.00  0.00    +0.000 NA
BRANCH   6   8
ATOM      8  C   UNL     1      48.831   7.032  12.841  0.00  0.00    +0.000 A 
ATOM      9  C   UNL     1      49.276   7.515  11.593  0.00  0.00    +0.000 A 
ATOM     10  C   UNL     1      50.396   8.342  11.487  0.00  0.00    +0.000 A 
ATOM     11  C   UNL     1      51.102   8.699  12.632  0.00  0.00    +0.000 A 
ATOM     12  C   UNL     1      50.683   8.221  13.865  0.00  0.00    +0.000 A 
ATOM     13  F   UNL     1      51.361   8.565  14.969  0.00  0.00    +0.000 F 
ATOM     14  C   UNL     1      49.569   7.399  13.978  0.00  0.00    +0.000 A 
ENDBRANCH   6   8
ENDBRANCH   1   2
BRANCH   1  15
ATOM     15  N   UNL     1      43.789   4.989  10.541  0.00  0.00    +0.000 N 
ATOM     16  H   UNL     1      42.788   5.004  10.389  0.00  0.00    +0.000 HD
BRANCH  15  20
ATOM     17  C   UNL     1      46.092   2.499   8.038  0.00  0.00    +0.000 A 
ATOM     18  C   UNL     1      46.220   3.885   7.931  0.00  0.00    +0.000 A 
ATOM     19  C   UNL     1      45.443   4.726   8.739  0.00  0.00    +0.000 A 
ATOM     20  C   UNL     1      44.515   4.211   9.653  0.00  0.00    +0.000 A 
ATOM     21  C   UNL     1      44.416   2.815   9.758  0.00  0.00    +0.000 A 
ATOM     22  C   UNL     1      45.186   1.965   8.955  0.00  0.00    +0.000 A 
BRANCH  17  24
ATOM     23  N   UNL     1      46.836   0.242   7.496  0.00  0.00    +0.000 N 
ATOM     24  C   UNL     1      46.855   1.570   7.169  0.00  0.00    +0.000 C 
ATOM     25  O   UNL     1      47.461   1.965   6.180  0.00  0.00    +0.000 OA
ATOM     26  H   UNL     1      47.291  -0.384   6.846  0.00  0.00    +0.000 HD
ATOM     27  H   UNL     1      46.153  -0.150   8.127  0.00  0.00    +0.000 HD
ENDBRANCH  17  24
ENDBRANCH  15  20
ENDBRANCH   1  15
TORSDOF 5
ENDMDL
MODEL 7
REMARK VINA RESULT:    -7.606      3.535      6.994
REMARK INTER + INTRA:         -10.688
REMARK INTER:                  -9.919
REMARK INTRA:                  -0.769
REMARK UNBOUND:                -0.858
REMARK  Name = 
REMARK  5 active torsions:
REMARK  status: ('A' for Active; 'I' for Inactive)
REMARK    1  A    between atoms: C_2  and  C_4
REMARK    2  A    between atoms: C_7  and  N_8
REMARK    3  A    between atoms: N_8  and  C_9
REMARK    4  A    between atoms: C_9  and  C_10
REMARK    5  A    between atoms: C_14  and  C_15
REMARK                            x       y       z     vdW  Elec       q    Type
REMARK                         _______ _______ _______ _____ _____    ______ ____
ROOT
ATOM      1  C   UNL     1      45.677   4.195  13.420  0.00  0.00    +0.000 C 
ENDROOT
BRANCH   1   2
ATOM      2  C   UNL     1      44.941   4.241  12.100  0.00  0.00    +0.000 A 
ATOM      3  C   UNL     1      43.815   5.027  11.930  0.00  0.00    +0.000 A 
ATOM      4  C   UNL     1      43.277   5.058  10.665  0.00  0.00    +0.000 A 
ATOM      5  N   UNL     1      43.803   4.398   9.620  0.00  0.00    +0.000 NA
ATOM      6  C   UNL     1      44.909   3.670   9.863  0.00  0.00    +0.000 A 
ATOM      7  N   UNL     1      45.493   3.557  11.072  0.00  0.00    +0.000 NA
BRANCH   6   8
ATOM      8  C   UNL     1      45.589   3.045   8.719  0.00  0.00    +0.000 A 
ATOM      9  C   UNL     1      46.050   3.816   7.632  0.00  0.00    +0.000 A 
ATOM     10  C   UNL     1      46.753   3.239   6.573  0.00  0.00    +0.000 A 
ATOM     11  C   UNL     1      47.006   1.870   6.575  0.00  0.00    +0.000 A 
ATOM     12  C   UNL     1      46.547   1.097   7.632  0.00  0.00    +0.000 A 
ATOM     13  F   UNL     1      46.791  -0.221   7.636  0.00  0.00    +0.000 F 
ATOM     14  C   UNL     1      45.848   1.665   8.689  0.00  0.00    +0.000 A 
ENDBRANCH   6   8
ENDBRANCH   1   2
BRANCH   1  15
ATOM     15  N   UNL     1      46.023   5.505  13.953  0.00  0.00    +0.000 N 
ATOM     16  H   UNL     1      46.036   5.587  14.962  0.00  0.00    +0.000 HD
BRANCH  15  20
ATOM     17  C   UNL     1      48.486   8.361  12.071  0.00  0.00    +0.000 A 
ATOM     18  C   UNL     1      47.120   8.614  12.200  0.00  0.00    +0.000 A 
ATOM     19  C   UNL     1      46.284   7.663  12.801  0.00  0.00    +0.000 A 
ATOM     20  C   UNL     1      46.783   6.441  13.269  0.00  0.00    +0.000 A 
ATOM     21  C   UNL     1      48.163   6.215  13.145  0.00  0.00    +0.000 A 
ATOM     22  C   UNL     1      49.007   7.156  12.545  0.00  0.00    +0.000 A 
BRANCH  17  24
ATOM     23  N   UNL     1      48.884  10.518  11.006  0.00  0.00    +0.000 N 
ATOM     24  C   UNL     1      49.402   9.314  11.396  0.00  0.00    +0.000 C 
ATOM     25  O   UNL     1      50.585   9.051  11.215  0.00  0.00    +0.000 OA
ATOM     26  H   UNL     1      49.541  11.185  10.626  0.00  0.00    +0.000 HD
ATOM     27  H   UNL     1      48.008  10.871  11.364  0.00  0.00    +0.000 HD
ENDBRANCH  17  24
ENDBRANCH  15  20
ENDBRANCH   1  15
TORSDOF 5
ENDMDL
MODEL 8
REMARK VINA RESULT:    -6.634      5.444      8.357
REMARK INTER + INTRA:          -9.431
REMARK INTER:                  -8.832
REMARK INTRA:                  -0.599
REMARK UNBOUND:                -0.858
REMARK  Name = 
REMARK  5 active torsions:
REMARK  status: ('A' for Active; 'I' for Inactive)
REMARK    1  A    between atoms: C_2  and  C_4
REMARK    2  A    between atoms: C_7  and  N_8
REMARK    3  A    between atoms: N_8  and  C_9
REMARK    4  A    between atoms: C_9  and  C_10
REMARK    5  A    between atoms: C_14  and  C_15
REMARK                            x       y       z     vdW  Elec       q    Type
REMARK                         _______ _______ _______ _____ _____    ______ ____
ROOT
ATOM      1  C   UNL     1      47.486   3.855  16.570  0.00  0.00    +0.000 C 
ENDROOT
BRANCH   1   2
ATOM      2  C   UNL     1      47.331   4.782  15.386  0.00  0.00    +0.000 A 
ATOM      3  C   UNL     1      48.143   5.890  15.229  0.00  0.00    +0.000 A 
ATOM      4  C   UNL     1      47.971   6.614  14.072  0.00  0.00    +0.000 A 
ATOM      5  N   UNL     1      47.094   6.279  13.112  0.00  0.00    +0.000 NA
ATOM      6  C   UNL     1      46.354   5.176  13.331  0.00  0.00    +0.000 A 
ATOM      7  N   UNL     1      46.432   4.419  14.443  0.00  0.00    +0.000 NA
BRANCH   6   8
ATOM      8  C   UNL     1      45.483   4.702  12.246  0.00  0.00    +0.000 A 
ATOM      9  C   UNL     1      45.526   5.289  10.965  0.00  0.00    +0.000 A 
ATOM     10  C   UNL     1      44.748   4.804   9.912  0.00  0.00    +0.000 A 
ATOM     11  C   UNL     1      43.902   3.719  10.121  0.00  0.00    +0.000 A 
ATOM     12  C   UNL     1      43.840   3.138  11.380  0.00  0.00    +0.000 A 
ATOM     13  F   UNL     1      43.027   2.093  11.582  0.00  0.00    +0.000 F 
ATOM     14  C   UNL     1      44.612   3.617  12.432  0.00  0.00    +0.000 A 
ENDBRANCH   6   8
ENDBRANCH   1   2
BRANCH   1  15
ATOM     15  N   UNL     1      48.600   4.191  17.446  0.00  0.00    +0.000 N 
ATOM     16  H   UNL     1      48.365   4.689  18.296  0.00  0.00    +0.000 HD
BRANCH  15  20
ATOM     17  C   UNL     1      52.126   1.894  17.677  0.00  0.00    +0.000 A 
ATOM     18  C   UNL     1      52.151   3.229  18.081  0.00  0.00    +0.000 A 
ATOM     19  C   UNL     1      50.993   4.013  17.987  0.00  0.00    +0.000 A 
ATOM     20  C   UNL     1      49.797   3.492  17.476  0.00  0.00    +0.000 A 
ATOM     21  C   UNL     1      49.789   2.143  17.093  0.00  0.00    +0.000 A 
ATOM     22  C   UNL     1      50.940   1.351  17.181  0.00  0.00    +0.000 A 
BRANCH  17  24
ATOM     23  N   UNL     1      53.200  -0.235  18.187  0.00  0.00    +0.000 N 
ATOM     24  C   UNL     1      53.339   1.039  17.710  0.00  0.00    +0.000 C 
ATOM     25  O   UNL     1      54.422   1.444  17.305  0.00  0.00    +0.000 OA
ATOM     26  H   UNL     1      54.017  -0.827  18.123  0.00  0.00    +0.000 HD
ATOM     27  H   UNL     1      52.300  -0.683  18.278  0.00  0.00    +0.000 HD
ENDBRANCH  17  24
ENDBRANCH  15  20
ENDBRANCH   1  15
TORSDOF 5
ENDMDL
MODEL 9
REMARK VINA RESULT:    -6.593      5.339      6.904
REMARK INTER + INTRA:          -9.379
REMARK INTER:                  -8.946
REMARK INTRA:                  -0.433
REMARK UNBOUND:                -0.858
REMARK  Name = 
REMARK  5 active torsions:
REMARK  status: ('A' for Active; 'I' for Inactive)
REMARK    1  A    between atoms: C_2  and  C_4
REMARK    2  A    between atoms: C_7  and  N_8
REMARK    3  A    between atoms: N_8  and  C_9
REMARK    4  A    between atoms: C_9  and  C_10
REMARK    5  A    between atoms: C_14  and  C_15
REMARK                            x       y       z     vdW  Elec       q    Type
REMARK                         _______ _______ _______ _____ _____    ______ ____
ROOT
ATOM      1  C   UNL     1      47.004   4.043  15.685  0.00  0.00    +0.000 C 
ENDROOT
BRANCH   1   2
ATOM      2  C   UNL     1      48.014   4.361  16.764  0.00  0.00    +0.000 A 
ATOM      3  C   UNL     1      47.716   5.236  17.794  0.00  0.00    +0.000 A 
ATOM      4  C   UNL     1      48.679   5.385  18.765  0.00  0.00    +0.000 A 
ATOM      5  N   UNL     1      49.843   4.717  18.763  0.00  0.00    +0.000 NA
ATOM      6  C   UNL     1      50.050   3.871  17.736  0.00  0.00    +0.000 A 
ATOM      7  N   UNL     1      49.180   3.677  16.726  0.00  0.00    +0.000 NA
BRANCH   6   8
ATOM      8  C   UNL     1      51.251   3.022  17.772  0.00  0.00    +0.000 A 
ATOM      9  C   UNL     1      51.192   1.658  17.421  0.00  0.00    +0.000 A 
ATOM     10  C   UNL     1      52.338   0.862  17.390  0.00  0.00    +0.000 A 
ATOM     11  C   UNL     1      53.573   1.415  17.716  0.00  0.00    +0.000 A 
ATOM     12  C   UNL     1      53.644   2.753  18.076  0.00  0.00    +0.000 A 
ATOM     13  F   UNL     1      54.833   3.288  18.389  0.00  0.00    +0.000 F 
ATOM     14  C   UNL     1      52.507   3.551  18.108  0.00  0.00    +0.000 A 
ENDBRANCH   6   8
ENDBRANCH   1   2
BRANCH   1  15
ATOM     15  N   UNL     1      46.746   5.144  14.769  0.00  0.00    +0.000 N 
ATOM     16  H   UNL     1      47.199   6.023  14.989  0.00  0.00    +0.000 HD
BRANCH  15  20
ATOM     17  C   UNL     1      45.519   4.846  10.747  0.00  0.00    +0.000 A 
ATOM     18  C   UNL     1      45.262   3.789  11.622  0.00  0.00    +0.000 A 
ATOM     19  C   UNL     1      45.686   3.863  12.956  0.00  0.00    +0.000 A 
ATOM     20  C   UNL     1      46.385   4.976  13.441  0.00  0.00    +0.000 A 
ATOM     21  C   UNL     1      46.616   6.034  12.549  0.00  0.00    +0.000 A 
ATOM     22  C   UNL     1      46.199   5.971  11.215  0.00  0.00    +0.000 A 
BRANCH  17  24
ATOM     23  N   UNL     1      43.862   4.390   9.018  0.00  0.00    +0.000 N 
ATOM     24  C   UNL     1      45.135   4.791   9.315  0.00  0.00    +0.000 C 
ATOM     25  O   UNL     1      45.915   5.116   8.427  0.00  0.00    +0.000 OA
ATOM     26  H   UNL     1      43.593   4.441   8.045  0.00  0.00    +0.000 HD
ATOM     27  H   UNL     1      43.126   4.371   9.710  0.00  0.00    +0.000 HD
ENDBRANCH  17  24
ENDBRANCH  15  20
ENDBRANCH   1  15
TORSDOF 5
ENDMDL
