MODEL 1
REMARK VINA RESULT:    -8.844      0.000      0.000
REMARK INTER + INTRA:         -13.340
REMARK INTER:                 -12.463
REMARK INTRA:                  -0.877
REMARK UNBOUND:                -0.877
REMARK  Name = 
REMARK  7 active torsions:
REMARK  status: ('A' for Active; 'I' for Inactive)
REMARK    1  A    between atoms: C_2  and  C_4
REMARK    2  A    between atoms: C_7  and  N_8
REMARK    3  A    between atoms: N_8  and  C_9
REMARK    4  A    between atoms: C_9  and  C_10
REMARK    5  A    between atoms: C_10  and  C_13
REMARK    6  A    between atoms: C_17  and  N_18
REMARK    7  A    between atoms: N_18  and  C_19
REMARK                            x       y       z     vdW  Elec       q    Type
REMARK                         _______ _______ _______ _____ _____    ______ ____
ROOT
ATOM      1  C   UNL     1      43.592   4.583  12.496  0.00  0.00    +0.000 C 
ATOM      2  F   UNL     1      42.656   5.464  12.957  0.00  0.00    +0.000 F 
ATOM      3  F   UNL     1      43.287   3.392  13.096  0.00  0.00    +0.000 F 
ENDROOT
BRANCH   1   4
ATOM      4  C   UNL     1      44.994   5.036  12.809  0.00  0.00    +0.000 A 
ATOM      5  C   UNL     1      45.672   5.869  11.928  0.00  0.00    +0.000 A 
ATOM      6  N   UNL     1      46.925   6.321  12.139  0.00  0.00    +0.000 NA
ATOM      7  C   UNL     1      47.534   5.909  13.278  0.00  0.00    +0.000 A 
ATOM      8  C   UNL     1      46.953   5.095  14.251  0.00  0.00    +0.000 A 
ATOM      9  C   UNL     1      45.656   4.651  13.987  0.00  0.00    +0.000 A 
BRANCH   8  10
ATOM     10  N   UNL     1      47.689   4.691  15.383  0.00  0.00    +0.000 N 
ATOM     11  H   UNL     1      48.448   5.332  15.600  0.00  0.00    +0.000 HD
BRANCH  10  12
ATOM     12  C   UNL     1      47.157   4.055  16.561  0.00  0.00    +0.000 C 
ATOM     13  C   UNL     1      47.534   4.773  17.878  0.00  0.00    +0.000 C 
ATOM     14  N   UNL     1      47.866   3.455  18.469  0.00  0.00    +0.000 NA
ATOM     15  C   UNL     1      48.066   2.924  17.098  0.00  0.00    +0.000 C 
ATOM     16  H   UNL     1      47.080   3.021  18.955  0.00  0.00    +0.000 HD
ENDBRANCH  10  12
ENDBRANCH   8  10
ENDBRANCH   1   4
BRANCH   1  17
ATOM     17  C   UNL     1      43.405   4.404  10.966  0.00  0.00    +0.000 C 
BRANCH  17  18
ATOM     18  N   UNL     1      43.784   3.059  10.489  0.00  0.00    +0.000 N 
ATOM     19  H   UNL     1      43.939   2.382  11.236  0.00  0.00    +0.000 HD
BRANCH  18  23
ATOM     20  C   UNL     1      46.490   2.702   7.250  0.00  0.00    +0.000 A 
ATOM     21  C   UNL     1      45.962   3.942   7.638  0.00  0.00    +0.000 A 
ATOM     22  C   UNL     1      45.046   4.034   8.694  0.00  0.00    +0.000 A 
ATOM     23  C   UNL     1      44.621   2.898   9.389  0.00  0.00    +0.000 A 
ATOM     24  C   UNL     1      45.189   1.672   9.025  0.00  0.00    +0.000 A 
ATOM     25  C   UNL     1      46.106   1.564   7.965  0.00  0.00    +0.000 A 
ATOM     26 CL   UNL     1      46.741  -0.020   7.671  0.00  0.00    +0.000 Cl
BRANCH  20  28
ATOM     27  N   UNL     1      48.769   2.522   6.366  0.00  0.00    +0.000 N 
ATOM     28  C   UNL     1      47.444   2.720   6.109  0.00  0.00    +0.000 C 
ATOM     29  O   UNL     1      47.052   2.863   4.957  0.00  0.00    +0.000 OA
ATOM     30  H   UNL     1      49.412   2.583   5.589  0.00  0.00    +0.000 HD
ATOM     31  H   UNL     1      49.150   2.486   7.303  0.00  0.00    +0.000 HD
ENDBRANCH  20  28
ENDBRANCH  18  23
ENDBRANCH  17  18
ENDBRANCH   1  17
TORSDOF 7
ENDMDL
MODEL 2
REMARK VINA RESULT:    -8.485      1.926      3.674
REMARK INTER + INTRA:         -12.835
REMARK INTER:                 -12.024
REMARK INTRA:                  -0.811
REMARK UNBOUND:                -0.877
REMARK  Name = 
REMARK  7 active torsions:
REMARK  status: ('A' for Active; 'I' for Inactive)
REMARK    1  A    between atoms: C_2  and  C_4
REMARK    2  A    between atoms: C_7  and  N_8
REMARK    3  A    between atoms: N_8  and  C_9
REMARK    4  A    between atoms: C_9  and  C_10
REMARK    5  A    between atoms: C_10  and  C_13
REMARK    6  A    between atoms: C_17  and  N_18
REMARK    7  A    between atoms: N_18  and  C_19
REMARK                            x       y       z     vdW  Elec       q    Type
REMARK                         _______ _______ _______ _____ _____    ______ ____
ROOT
ATOM      1  C   UNL     1      43.669   4.557  12.619  0.00  0.00    +0.000 C 
ATOM      2  F   UNL     1      42.646   5.287  13.154  0.00  0.00    +0.000 F 
ATOM      3  F   UNL     1      43.528   3.303  13.148  0.00  0.00    +0.000 F 
ENDROOT
BRANCH   1   4
ATOM      4  C   UNL     1      45.014   5.159  12.932  0.00  0.00    +0.000 A 
ATOM      5  C   UNL     1      46.070   4.345  13.321  0.00  0.00    +0.000 A 
ATOM      6  N   UNL     1      47.303   4.807  13.613  0.00  0.00    +0.000 NA
ATOM      7  C   UNL     1      47.485   6.148  13.526  0.00  0.00    +0.000 A 
ATOM      8  C   UNL     1      46.513   7.066  13.124  0.00  0.00    +0.000 A 
ATOM      9  C   UNL     1      45.253   6.541  12.834  0.00  0.00    +0.000 A 
BRANCH   8  10
ATOM     10  N   UNL     1      46.794   8.446  13.106  0.00  0.00    +0.000 N 
ATOM     11  H   UNL     1      47.680   8.668  13.556  0.00  0.00    +0.000 HD
BRANCH  10  12
ATOM     12  C   UNL     1      46.479   9.365  12.042  0.00  0.00    +0.000 C 
ATOM     13  C   UNL     1      47.062  10.783  12.251  0.00  0.00    +0.000 C 
ATOM     14  N   UNL     1      45.752  11.350  11.853  0.00  0.00    +0.000 NA
ATOM     15  C   UNL     1      45.114  10.066  12.234  0.00  0.00    +0.000 C 
ATOM     16  H   UNL     1      45.686  11.548  10.853  0.00  0.00    +0.000 HD
ENDBRANCH  10  12
ENDBRANCH   8  10
ENDBRANCH   1   4
BRANCH   1  17
ATOM     17  C   UNL     1      43.463   4.450  11.085  0.00  0.00    +0.000 C 
BRANCH  17  18
ATOM     18  N   UNL     1      43.771   3.109  10.550  0.00  0.00    +0.000 N 
ATOM     19  H   UNL     1      43.879   2.391  11.266  0.00  0.00    +0.000 HD
BRANCH  18  23
ATOM     20  C   UNL     1      46.489   2.756   7.320  0.00  0.00    +0.000 A 
ATOM     21  C   UNL     1      45.973   3.998   7.720  0.00  0.00    +0.000 A 
ATOM     22  C   UNL     1      45.054   4.090   8.773  0.00  0.00    +0.000 A 
ATOM     23  C   UNL     1      44.611   2.951   9.452  0.00  0.00    +0.000 A 
ATOM     24  C   UNL     1      45.167   1.722   9.076  0.00  0.00    +0.000 A 
ATOM     25  C   UNL     1      46.088   1.615   8.020  0.00  0.00    +0.000 A 
ATOM     26 CL   UNL     1      46.704   0.027   7.710  0.00  0.00    +0.000 Cl
BRANCH  20  28
ATOM     27  N   UNL     1      48.766   2.541   6.442  0.00  0.00    +0.000 N 
ATOM     28  C   UNL     1      47.448   2.776   6.183  0.00  0.00    +0.000 C 
ATOM     29  O   UNL     1      47.065   2.954   5.033  0.00  0.00    +0.000 OA
ATOM     30  H   UNL     1      49.414   2.603   5.669  0.00  0.00    +0.000 HD
ATOM     31  H   UNL     1      49.142   2.476   7.379  0.00  0.00    +0.000 HD
ENDBRANCH  20  28
ENDBRANCH  18  23
ENDBRANCH  17  18
ENDBRANCH   1  17
TORSDOF 7
ENDMDL
MODEL 3
REMARK VINA RESULT:    -8.285      2.325      2.848
REMARK INTER + INTRA:         -12.553
REMARK INTER:                 -11.772
REMARK INTRA:                  -0.781
REMARK UNBOUND:                -0.877
REMARK  Name = 
REMARK  7 active torsions:
REMARK  status: ('A' for Active; 'I' for Inactive)
REMARK    1  A    between atoms: C_2  and  C_4
REMARK    2  A    between atoms: C_7  and  N_8
REMARK    3  A    between atoms: N_8  and  C_9
REMARK    4  A    between atoms: C_9  and  C_10
REMARK    5  A    between atoms: C_10  and  C_13
REMARK    6  A    between atoms: C_17  and  N_18
REMARK    7  A    between atoms: N_18  and  C_19
REMARK                            x       y       z     vdW  Elec       q    Type
REMARK                         _______ _______ _______ _____ _____    ______ ____
ROOT
ATOM      1  C   UNL     1      43.776   4.995  12.331  0.00  0.00    +0.000 C 
ATOM      2  F   UNL     1      42.704   4.932  13.175  0.00  0.00    +0.000 F 
ATOM      3  F   UNL     1      44.686   4.110  12.843  0.00  0.00    +0.000 F 
ENDROOT
BRANCH   1   4
ATOM      4  C   UNL     1      44.333   6.391  12.232  0.00  0.00    +0.000 A 
ATOM      5  C   UNL     1      43.849   7.269  11.272  0.00  0.00    +0.000 A 
ATOM      6  N   UNL     1      44.292   8.535  11.123  0.00  0.00    +0.000 NA
ATOM      7  C   UNL     1      45.276   8.935  11.965  0.00  0.00    +0.000 A 
ATOM      8  C   UNL     1      45.827   8.157  12.984  0.00  0.00    +0.000 A 
ATOM      9  C   UNL     1      45.338   6.855  13.098  0.00  0.00    +0.000 A 
BRANCH   8  10
ATOM     10  N   UNL     1      46.877   8.657  13.781  0.00  0.00    +0.000 N 
ATOM     11  H   UNL     1      46.589   8.819  14.744  0.00  0.00    +0.000 HD
BRANCH  10  12
ATOM     12  C   UNL     1      48.268   8.296  13.681  0.00  0.00    +0.000 C 
ATOM     13  C   UNL     1      48.647   7.653  12.325  0.00  0.00    +0.000 C 
ATOM     14  N   UNL     1      49.408   6.615  13.062  0.00  0.00    +0.000 NA
ATOM     15  C   UNL     1      48.570   6.892  14.256  0.00  0.00    +0.000 C 
ATOM     16  H   UNL     1      50.390   6.857  13.199  0.00  0.00    +0.000 HD
ENDBRANCH  10  12
ENDBRANCH   8  10
ENDBRANCH   1   4
BRANCH   1  17
ATOM     17  C   UNL     1      43.347   4.478  10.932  0.00  0.00    +0.000 C 
BRANCH  17  18
ATOM     18  N   UNL     1      43.911   3.153  10.606  0.00  0.00    +0.000 N 
ATOM     19  H   UNL     1      44.204   2.614  11.420  0.00  0.00    +0.000 HD
BRANCH  18  23
ATOM     20  C   UNL     1      46.519   2.729   7.295  0.00  0.00    +0.000 A 
ATOM     21  C   UNL     1      46.053   3.984   7.712  0.00  0.00    +0.000 A 
ATOM     22  C   UNL     1      45.168   4.100   8.792  0.00  0.00    +0.000 A 
ATOM     23  C   UNL     1      44.713   2.973   9.483  0.00  0.00    +0.000 A 
ATOM     24  C   UNL     1      45.221   1.729   9.089  0.00  0.00    +0.000 A 
ATOM     25  C   UNL     1      46.106   1.598   8.005  0.00  0.00    +0.000 A 
ATOM     26 CL   UNL     1      46.666  -0.007   7.675  0.00  0.00    +0.000 Cl
BRANCH  20  28
ATOM     27  N   UNL     1      48.766   2.471   6.352  0.00  0.00    +0.000 N 
ATOM     28  C   UNL     1      47.444   2.723   6.130  0.00  0.00    +0.000 C 
ATOM     29  O   UNL     1      47.030   2.894   4.990  0.00  0.00    +0.000 OA
ATOM     30  H   UNL     1      49.392   2.517   5.560  0.00  0.00    +0.000 HD
ATOM     31  H   UNL     1      49.169   2.411   7.279  0.00  0.00    +0.000 HD
ENDBRANCH  20  28
ENDBRANCH  18  23
ENDBRANCH  17  18
ENDBRANCH   1  17
TORSDOF 7
ENDMDL
MODEL 4
REMARK VINA RESULT:    -7.865      2.835      4.583
REMARK INTER + INTRA:         -11.960
REMARK INTER:                 -11.028
REMARK INTRA:                  -0.932
REMARK UNBOUND:                -0.877
REMARK  Name = 
REMARK  7 active torsions:
REMARK  status: ('A' for Active; 'I' for Inactive)
REMARK    1  A    between atoms: C_2  and  C_4
REMARK    2  A    between atoms: C_7  and  N_8
REMARK    3  A    between atoms: N_8  and  C_9
REMARK    4  A    between atoms: C_9  and  C_10
REMARK    5  A    between atoms: C_10  and  C_13
REMARK    6  A    between atoms: C_17  and  N_18
REMARK    7  A    between atoms: N_18  and  C_19
REMARK                            x       y       z     vdW  Elec       q    Type
REMARK                         _______ _______ _______ _____ _____    ______ ____
ROOT
ATOM      1  C   UNL     1      43.682   5.139  11.992  0.00  0.00    +0.000 C 
ATOM      2  F   UNL     1      42.772   5.299  10.986  0.00  0.00    +0.000 F 
ATOM      3  F   UNL     1      42.937   5.064  13.137  0.00  0.00    +0.000 F 
ENDROOT
BRANCH   1   4
ATOM      4  C   UNL     1      44.680   6.266  12.033  0.00  0.00    +0.000 A 
ATOM      5  C   UNL     1      46.034   6.006  11.865  0.00  0.00    +0.000 A 
ATOM      6  N   UNL     1      46.987   6.961  11.884  0.00  0.00    +0.000 NA
ATOM      7  C   UNL     1      46.568   8.232  12.097  0.00  0.00    +0.000 A 
ATOM      8  C   UNL     1      45.238   8.623  12.256  0.00  0.00    +0.000 A 
ATOM      9  C   UNL     1      44.288   7.601  12.230  0.00  0.00    +0.000 A 
BRANCH   8  10
ATOM     10  N   UNL     1      44.911   9.970  12.512  0.00  0.00    +0.000 N 
ATOM     11  H   UNL     1      45.575  10.417  13.141  0.00  0.00    +0.000 HD
BRANCH  10  12
ATOM     12  C   UNL     1      44.339  10.901  11.573  0.00  0.00    +0.000 C 
ATOM     13  C   UNL     1      42.806  10.762  11.417  0.00  0.00    +0.000 C 
ATOM     14  N   UNL     1      42.976  10.843   9.946  0.00  0.00    +0.000 NA
ATOM     15  C   UNL     1      44.379  10.388  10.114  0.00  0.00    +0.000 C 
ATOM     16  H   UNL     1      42.906  11.796   9.585  0.00  0.00    +0.000 HD
ENDBRANCH  10  12
ENDBRANCH   8  10
ENDBRANCH   1   4
BRANCH   1  17
ATOM     17  C   UNL     1      44.403   3.777  11.807  0.00  0.00    +0.000 C 
BRANCH  17  18
ATOM     18  N   UNL     1      43.924   3.021  10.633  0.00  0.00    +0.000 N 
ATOM     19  H   UNL     1      43.373   2.195  10.867  0.00  0.00    +0.000 HD
BRANCH  18  23
ATOM     20  C   UNL     1      46.512   2.701   7.295  0.00  0.00    +0.000 A 
ATOM     21  C   UNL     1      46.022   3.940   7.734  0.00  0.00    +0.000 A 
ATOM     22  C   UNL     1      45.145   4.021   8.823  0.00  0.00    +0.000 A 
ATOM     23  C   UNL     1      44.720   2.875   9.501  0.00  0.00    +0.000 A 
ATOM     24  C   UNL     1      45.250   1.648   9.084  0.00  0.00    +0.000 A 
ATOM     25  C   UNL     1      46.129   1.551   7.991  0.00  0.00    +0.000 A 
ATOM     26 CL   UNL     1      46.720  -0.036   7.632  0.00  0.00    +0.000 Cl
BRANCH  20  28
ATOM     27  N   UNL     1      48.754   2.494   6.328  0.00  0.00    +0.000 N 
ATOM     28  C   UNL     1      47.427   2.732   6.122  0.00  0.00    +0.000 C 
ATOM     29  O   UNL     1      47.000   2.922   4.990  0.00  0.00    +0.000 OA
ATOM     30  H   UNL     1      49.371   2.564   5.531  0.00  0.00    +0.000 HD
ATOM     31  H   UNL     1      49.166   2.420   7.249  0.00  0.00    +0.000 HD
ENDBRANCH  20  28
ENDBRANCH  18  23
ENDBRANCH  17  18
ENDBRANCH   1  17
TORSDOF 7
ENDMDL
MODEL 5
REMARK VINA RESULT:    -7.857      2.251      2.694
REMARK INTER + INTRA:         -11.949
REMARK INTER:                 -11.413
REMARK INTRA:                  -0.536
REMARK UNBOUND:                -0.877
REMARK  Name = 
REMARK  7 active torsions:
REMARK  status: ('A' for Active; 'I' for Inactive)
REMARK    1  A    between atoms: C_2  and  C_4
REMARK    2  A    between atoms: C_7  and  N_8
REMARK    3  A    between atoms: N_8  and  C_9
REMARK    4  A    between atoms: C_9  and  C_10
REMARK    5  A    between atoms: C_10  and  C_13
REMARK    6  A    between atoms: C_17  and  N_18
REMARK    7  A    between atoms: N_18  and  C_19
REMARK                            x       y       z     vdW  Elec       q    Type
REMARK                         _______ _______ _______ _____ _____    ______ ____
ROOT
ATOM      1  C   UNL     1      44.791   6.133  11.489  0.00  0.00    +0.000 C 
ATOM      2  F   UNL     1      45.507   6.467  10.375  0.00  0.00    +0.000 F 
ATOM      3  F   UNL     1      44.183   7.294  11.883  0.00  0.00    +0.000 F 
ENDROOT
BRANCH   1   4
ATOM      4  C   UNL     1      45.668   5.554  12.569  0.00  0.00    +0.000 A 
ATOM      5  C   UNL     1      45.589   4.204  12.883  0.00  0.00    +0.000 A 
ATOM      6  N   UNL     1      46.342   3.610  13.832  0.00  0.00    +0.000 NA
ATOM      7  C   UNL     1      47.204   4.409  14.508  0.00  0.00    +0.000 A 
ATOM      8  C   UNL     1      47.393   5.771  14.271  0.00  0.00    +0.000 A 
ATOM      9  C   UNL     1      46.590   6.341  13.281  0.00  0.00    +0.000 A 
BRANCH   8  10
ATOM     10  N   UNL     1      48.288   6.520  15.060  0.00  0.00    +0.000 N 
ATOM     11  H   UNL     1      48.029   7.503  15.113  0.00  0.00    +0.000 HD
BRANCH  10  12
ATOM     12  C   UNL     1      48.955   6.067  16.254  0.00  0.00    +0.000 C 
ATOM     13  C   UNL     1      48.741   6.992  17.475  0.00  0.00    +0.000 C 
ATOM     14  N   UNL     1      50.192   6.897  17.766  0.00  0.00    +0.000 NA
ATOM     15  C   UNL     1      50.423   6.545  16.343  0.00  0.00    +0.000 C 
ATOM     16  H   UNL     1      50.424   6.138  18.409  0.00  0.00    +0.000 HD
ENDBRANCH  10  12
ENDBRANCH   8  10
ENDBRANCH   1   4
BRANCH   1  17
ATOM     17  C   UNL     1      43.679   5.127  11.091  0.00  0.00    +0.000 C 
BRANCH  17  18
ATOM     18  N   UNL     1      43.654   4.832   9.645  0.00  0.00    +0.000 N 
ATOM     19  H   UNL     1      42.717   4.800   9.243  0.00  0.00    +0.000 HD
BRANCH  18  23
ATOM     20  C   UNL     1      46.189   1.937   7.873  0.00  0.00    +0.000 A 
ATOM     21  C   UNL     1      45.355   1.625   8.957  0.00  0.00    +0.000 A 
ATOM     22  C   UNL     1      44.545   2.604   9.547  0.00  0.00    +0.000 A 
ATOM     23  C   UNL     1      44.547   3.924   9.084  0.00  0.00    +0.000 A 
ATOM     24  C   UNL     1      45.347   4.214   7.973  0.00  0.00    +0.000 A 
ATOM     25  C   UNL     1      46.167   3.243   7.373  0.00  0.00    +0.000 A 
ATOM     26 CL   UNL     1      47.064   3.760   5.985  0.00  0.00    +0.000 Cl
BRANCH  20  28
ATOM     27  N   UNL     1      46.695  -0.453   7.691  0.00  0.00    +0.000 N 
ATOM     28  C   UNL     1      47.014   0.823   7.334  0.00  0.00    +0.000 C 
ATOM     29  O   UNL     1      47.932   1.036   6.551  0.00  0.00    +0.000 OA
ATOM     30  H   UNL     1      47.292  -1.197   7.356  0.00  0.00    +0.000 HD
ATOM     31  H   UNL     1      46.006  -0.673   8.399  0.00  0.00    +0.000 HD
ENDBRANCH  20  28
ENDBRANCH  18  23
ENDBRANCH  17  18
ENDBRANCH   1  17
TORSDOF 7
ENDMDL
MODEL 6
REMARK VINA RESULT:    -7.742      3.832      8.265
REMARK INTER + INTRA:         -11.787
REMARK INTER:                 -11.124
REMARK INTRA:                  -0.663
REMARK UNBOUND:                -0.877
REMARK  Name = 
REMARK  7 active torsions:
REMARK  status: ('A' for Active; 'I' for Inactive)
REMARK    1  A    between atoms: C_2  and  C_4
REMARK    2  A    between atoms: C_7  and  N_8
REMARK    3  A    between atoms: N_8  and  C_9
REMARK    4  A    between atoms: C_9  and  C_10
REMARK    5  A    between atoms: C_10  and  C_13
REMARK    6  A    between atoms: C_17  and  N_18
REMARK    7  A    between atoms: N_18  and  C_19
REMARK                            x       y       z     vdW  Elec       q    Type
REMARK                         _______ _______ _______ _____ _____    ______ ____
ROOT
ATOM      1  C   UNL     1      44.643   5.991  11.293  0.00  0.00    +0.000 C 
ATOM      2  F   UNL     1      43.417   6.588  11.362  0.00  0.00    +0.000 F 
ATOM      3  F   UNL     1      45.465   6.929  10.727  0.00  0.00    +0.000 F 
ENDROOT
BRANCH   1   4
ATOM      4  C   UNL     1      44.603   4.714  10.495  0.00  0.00    +0.000 A 
ATOM      5  C   UNL     1      43.979   3.587  11.013  0.00  0.00    +0.000 A 
ATOM      6  N   UNL     1      43.897   2.409  10.360  0.00  0.00    +0.000 NA
ATOM      7  C   UNL     1      44.480   2.353   9.138  0.00  0.00    +0.000 A 
ATOM      8  C   UNL     1      45.114   3.420   8.500  0.00  0.00    +0.000 A 
ATOM      9  C   UNL     1      45.175   4.617   9.215  0.00  0.00    +0.000 A 
BRANCH   8  10
ATOM     10  N   UNL     1      45.724   3.244   7.241  0.00  0.00    +0.000 N 
ATOM     11  H   UNL     1      45.283   3.805   6.515  0.00  0.00    +0.000 HD
BRANCH  10  12
ATOM     12  C   UNL     1      47.129   3.043   6.997  0.00  0.00    +0.000 C 
ATOM     13  C   UNL     1      47.477   2.833   5.504  0.00  0.00    +0.000 C 
ATOM     14  N   UNL     1      48.349   1.700   5.895  0.00  0.00    +0.000 NA
ATOM     15  C   UNL     1      47.562   1.565   7.146  0.00  0.00    +0.000 C 
ATOM     16  H   UNL     1      49.318   1.976   6.060  0.00  0.00    +0.000 HD
ENDBRANCH  10  12
ENDBRANCH   8  10
ENDBRANCH   1   4
BRANCH   1  17
ATOM     17  C   UNL     1      45.155   5.721  12.732  0.00  0.00    +0.000 C 
BRANCH  17  18
ATOM     18  N   UNL     1      46.610   5.480  12.796  0.00  0.00    +0.000 N 
ATOM     19  H   UNL     1      46.953   4.822  12.097  0.00  0.00    +0.000 HD
BRANCH  18  23
ATOM     20  C   UNL     1      48.523   5.476  16.575  0.00  0.00    +0.000 A 
ATOM     21  C   UNL     1      48.758   6.485  15.629  0.00  0.00    +0.000 A 
ATOM     22  C   UNL     1      48.137   6.452  14.374  0.00  0.00    +0.000 A 
ATOM     23  C   UNL     1      47.272   5.413  14.018  0.00  0.00    +0.000 A 
ATOM     24  C   UNL     1      47.008   4.436  14.986  0.00  0.00    +0.000 A 
ATOM     25  C   UNL     1      47.627   4.455  16.247  0.00  0.00    +0.000 A 
ATOM     26 CL   UNL     1      47.161   3.194  17.339  0.00  0.00    +0.000 Cl
BRANCH  20  28
ATOM     27  N   UNL     1      50.602   5.462  17.872  0.00  0.00    +0.000 N 
ATOM     28  C   UNL     1      49.246   5.605  17.869  0.00  0.00    +0.000 C 
ATOM     29  O   UNL     1      48.649   5.877  18.904  0.00  0.00    +0.000 OA
ATOM     30  H   UNL     1      51.075   5.504  18.764  0.00  0.00    +0.000 HD
ATOM     31  H   UNL     1      51.127   5.151  17.064  0.00  0.00    +0.000 HD
ENDBRANCH  20  28
ENDBRANCH  18  23
ENDBRANCH  17  18
ENDBRANCH   1  17
TORSDOF 7
ENDMDL
MODEL 7
REMARK VINA RESULT:    -7.151      1.901      2.296
REMARK INTER + INTRA:         -10.954
REMARK INTER:                 -10.769
REMARK INTRA:                  -0.185
REMARK UNBOUND:                -0.877
REMARK  Name = 
REMARK  7 active torsions:
REMARK  status: ('A' for Active; 'I' for Inactive)
REMARK    1  A    between atoms: C_2  and  C_4
REMARK    2  A    between atoms: C_7  and  N_8
REMARK    3  A    between atoms: N_8  and  C_9
REMARK    4  A    between atoms: C_9  and  C_10
REMARK    5  A    between atoms: C_10  and  C_13
REMARK    6  A    between atoms: C_17  and  N_18
REMARK    7  A    between atoms: N_18  and  C_19
REMARK                            x       y       z     vdW  Elec       q    Type
REMARK                         _______ _______ _______ _____ _____    ______ ____
ROOT
ATOM      1  C   UNL     1      45.147   6.496  11.418  0.00  0.00    +0.000 C 
ATOM      2  F   UNL     1      45.756   6.591  10.199  0.00  0.00    +0.000 F 
ATOM      3  F   UNL     1      44.389   7.631  11.527  0.00  0.00    +0.000 F 
ENDROOT
BRANCH   1   4
ATOM      4  C   UNL     1      46.146   6.369  12.538  0.00  0.00    +0.000 A 
ATOM      5  C   UNL     1      47.115   7.346  12.724  0.00  0.00    +0.000 A 
ATOM      6  N   UNL     1      48.040   7.306  13.706  0.00  0.00    +0.000 NA
ATOM      7  C   UNL     1      48.002   6.232  14.530  0.00  0.00    +0.000 A 
ATOM      8  C   UNL     1      47.066   5.199  14.463  0.00  0.00    +0.000 A 
ATOM      9  C   UNL     1      46.131   5.282  13.430  0.00  0.00    +0.000 A 
BRANCH   8  10
ATOM     10  N   UNL     1      47.140   4.104  15.346  0.00  0.00    +0.000 N 
ATOM     11  H   UNL     1      47.564   3.285  14.915  0.00  0.00    +0.000 HD
BRANCH  10  12
ATOM     12  C   UNL     1      47.396   4.168  16.762  0.00  0.00    +0.000 C 
ATOM     13  C   UNL     1      48.873   3.905  17.139  0.00  0.00    +0.000 C 
ATOM     14  N   UNL     1      48.407   3.008  18.224  0.00  0.00    +0.000 NA
ATOM     15  C   UNL     1      47.133   2.826  17.486  0.00  0.00    +0.000 C 
ATOM     16  H   UNL     1      48.286   3.486  19.118  0.00  0.00    +0.000 HD
ENDBRANCH  10  12
ENDBRANCH   8  10
ENDBRANCH   1   4
BRANCH   1  17
ATOM     17  C   UNL     1      44.182   5.281  11.406  0.00  0.00    +0.000 C 
BRANCH  17  18
ATOM     18  N   UNL     1      43.855   4.813  10.045  0.00  0.00    +0.000 N 
ATOM     19  H   UNL     1      42.863   4.629   9.896  0.00  0.00    +0.000 HD
BRANCH  18  23
ATOM     20  C   UNL     1      46.257   2.059   7.903  0.00  0.00    +0.000 A 
ATOM     21  C   UNL     1      45.509   1.671   9.024  0.00  0.00    +0.000 A 
ATOM     22  C   UNL     1      44.744   2.604   9.736  0.00  0.00    +0.000 A 
ATOM     23  C   UNL     1      44.706   3.950   9.361  0.00  0.00    +0.000 A 
ATOM     24  C   UNL     1      45.418   4.318   8.212  0.00  0.00    +0.000 A 
ATOM     25  C   UNL     1      46.193   3.393   7.491  0.00  0.00    +0.000 A 
ATOM     26 CL   UNL     1      46.980   4.005   6.076  0.00  0.00    +0.000 Cl
BRANCH  20  28
ATOM     27  N   UNL     1      48.173   1.340   6.555  0.00  0.00    +0.000 N 
ATOM     28  C   UNL     1      47.042   0.988   7.232  0.00  0.00    +0.000 C 
ATOM     29  O   UNL     1      46.713  -0.189   7.318  0.00  0.00    +0.000 OA
ATOM     30  H   UNL     1      48.671   0.610   6.064  0.00  0.00    +0.000 HD
ATOM     31  H   UNL     1      48.436   2.302   6.381  0.00  0.00    +0.000 HD
ENDBRANCH  20  28
ENDBRANCH  18  23
ENDBRANCH  17  18
ENDBRANCH   1  17
TORSDOF 7
ENDMDL
MODEL 8
REMARK VINA RESULT:    -7.126      4.214      7.914
REMARK INTER + INTRA:         -10.919
REMARK INTER:                 -10.199
REMARK INTRA:                  -0.720
REMARK UNBOUND:                -0.877
REMARK  Name = 
REMARK  7 active torsions:
REMARK  status: ('A' for Active; 'I' for Inactive)
REMARK    1  A    between atoms: C_2  and  C_4
REMARK    2  A    between atoms: C_7  and  N_8
REMARK    3  A    between atoms: N_8  and  C_9
REMARK    4  A    between atoms: C_9  and  C_10
REMARK    5  A    between atoms: C_10  and  C_13
REMARK    6  A    between atoms: C_17  and  N_18
REMARK    7  A    between atoms: N_18  and  C_19
REMARK                            x       y       z     vdW  Elec       q    Type
REMARK                         _______ _______ _______ _____ _____    ______ ____
ROOT
ATOM      1  C   UNL     1      44.848   5.957  11.399  0.00  0.00    +0.000 C 
ATOM      2  F   UNL     1      43.627   6.398  11.825  0.00  0.00    +0.000 F 
ATOM      3  F   UNL     1      45.376   7.001  10.689  0.00  0.00    +0.000 F 
ENDROOT
BRANCH   1   4
ATOM      4  C   UNL     1      44.736   4.704  10.571  0.00  0.00    +0.000 A 
ATOM      5  C   UNL     1      44.068   3.594  11.071  0.00  0.00    +0.000 A 
ATOM      6  N   UNL     1      43.921   2.438  10.390  0.00  0.00    +0.000 NA
ATOM      7  C   UNL     1      44.483   2.387   9.158  0.00  0.00    +0.000 A 
ATOM      8  C   UNL     1      45.157   3.439   8.536  0.00  0.00    +0.000 A 
ATOM      9  C   UNL     1      45.284   4.613   9.280  0.00  0.00    +0.000 A 
BRANCH   8  10
ATOM     10  N   UNL     1      45.739   3.267   7.264  0.00  0.00    +0.000 N 
ATOM     11  H   UNL     1      45.281   3.828   6.549  0.00  0.00    +0.000 HD
BRANCH  10  12
ATOM     12  C   UNL     1      47.139   3.070   6.989  0.00  0.00    +0.000 C 
ATOM     13  C   UNL     1      47.453   2.851   5.490  0.00  0.00    +0.000 C 
ATOM     14  N   UNL     1      48.339   1.724   5.869  0.00  0.00    +0.000 NA
ATOM     15  C   UNL     1      47.583   1.596   7.139  0.00  0.00    +0.000 C 
ATOM     16  H   UNL     1      49.311   2.006   6.009  0.00  0.00    +0.000 HD
ENDBRANCH  10  12
ENDBRANCH   8  10
ENDBRANCH   1   4
BRANCH   1  17
ATOM     17  C   UNL     1      45.756   5.717  12.634  0.00  0.00    +0.000 C 
BRANCH  17  18
ATOM     18  N   UNL     1      46.219   6.968  13.266  0.00  0.00    +0.000 N 
ATOM     19  H   UNL     1      45.554   7.739  13.198  0.00  0.00    +0.000 HD
BRANCH  18  23
ATOM     20  C   UNL     1      50.217   8.314  12.890  0.00  0.00    +0.000 A 
ATOM     21  C   UNL     1      49.515   7.773  11.804  0.00  0.00    +0.000 A 
ATOM     22  C   UNL     1      48.202   7.307  11.956  0.00  0.00    +0.000 A 
ATOM     23  C   UNL     1      47.553   7.356  13.193  0.00  0.00    +0.000 A 
ATOM     24  C   UNL     1      48.246   7.941  14.260  0.00  0.00    +0.000 A 
ATOM     25  C   UNL     1      49.564   8.409  14.122  0.00  0.00    +0.000 A 
ATOM     26 CL   UNL     1      50.261   9.137  15.530  0.00  0.00    +0.000 Cl
BRANCH  20  28
ATOM     27  N   UNL     1      52.547   7.826  12.309  0.00  0.00    +0.000 N 
ATOM     28  C   UNL     1      51.608   8.765  12.617  0.00  0.00    +0.000 C 
ATOM     29  O   UNL     1      51.902   9.955  12.622  0.00  0.00    +0.000 OA
ATOM     30  H   UNL     1      53.498   8.140  12.172  0.00  0.00    +0.000 HD
ATOM     31  H   UNL     1      52.376   6.830  12.378  0.00  0.00    +0.000 HD
ENDBRANCH  20  28
ENDBRANCH  18  23
ENDBRANCH  17  18
ENDBRANCH   1  17
TORSDOF 7
ENDMDL
MODEL 9
REMARK VINA RESULT:    -6.634      4.488      8.738
REMARK INTER + INTRA:         -10.226
REMARK INTER:                  -9.717
REMARK INTRA:                  -0.508
REMARK UNBOUND:                -0.877
REMARK  Name = 
REMARK  7 active torsions:
REMARK  status: ('A' for Active; 'I' for Inactive)
REMARK    1  A    between atoms: C_2  and  C_4
REMARK    2  A    between atoms: C_7  and  N_8
REMARK    3  A    between atoms: N_8  and  C_9
REMARK    4  A    between atoms: C_9  and  C_10
REMARK    5  A    between atoms: C_10  and  C_13
REMARK    6  A    between atoms: C_17  and  N_18
REMARK    7  A    between atoms: N_18  and  C_19
REMARK                            x       y       z     vdW  Elec       q    Type
REMARK                         _______ _______ _______ _____ _____    ______ ____
ROOT
ATOM      1  C   UNL     1      46.606   6.448  12.552  0.00  0.00    +0.000 C 
ATOM      2  F   UNL     1      46.155   7.618  13.092  0.00  0.00    +0.000 F 
ATOM      3  F   UNL     1      47.504   6.823  11.589  0.00  0.00    +0.000 F 
ENDROOT
BRANCH   1   4
ATOM      4  C   UNL     1      45.483   5.617  11.990  0.00  0.00    +0.000 A 
ATOM      5  C   UNL     1      44.560   5.025  12.842  0.00  0.00    +0.000 A 
ATOM      6  N   UNL     1      43.524   4.271  12.416  0.00  0.00    +0.000 NA
ATOM      7  C   UNL     1      43.417   4.090  11.077  0.00  0.00    +0.000 A 
ATOM      8  C   UNL     1      44.263   4.651  10.120  0.00  0.00    +0.000 A 
ATOM      9  C   UNL     1      45.321   5.421  10.608  0.00  0.00    +0.000 A 
BRANCH   8  10
ATOM     10  N   UNL     1      44.087   4.367   8.751  0.00  0.00    +0.000 N 
ATOM     11  H   UNL     1      44.066   5.209   8.180  0.00  0.00    +0.000 HD
BRANCH  10  12
ATOM     12  C   UNL     1      44.630   3.239   8.038  0.00  0.00    +0.000 C 
ATOM     13  C   UNL     1      45.264   2.169   8.959  0.00  0.00    +0.000 C 
ATOM     14  N   UNL     1      46.425   2.105   8.039  0.00  0.00    +0.000 NA
ATOM     15  C   UNL     1      46.084   3.469   7.563  0.00  0.00    +0.000 C 
ATOM     16  H   UNL     1      46.326   1.392   7.314  0.00  0.00    +0.000 HD
ENDBRANCH  10  12
ENDBRANCH   8  10
ENDBRANCH   1   4
BRANCH   1  17
ATOM     17  C   UNL     1      47.380   5.657  13.639  0.00  0.00    +0.000 C 
BRANCH  17  18
ATOM     18  N   UNL     1      47.872   6.510  14.738  0.00  0.00    +0.000 N 
ATOM     19  H   UNL     1      48.189   7.432  14.439  0.00  0.00    +0.000 HD
BRANCH  18  23
ATOM     20  C   UNL     1      50.049   5.061  18.071  0.00  0.00    +0.000 A 
ATOM     21  C   UNL     1      50.441   6.216  17.377  0.00  0.00    +0.000 A 
ATOM     22  C   UNL     1      49.723   6.662  16.261  0.00  0.00    +0.000 A 
ATOM     23  C   UNL     1      48.602   5.970  15.793  0.00  0.00    +0.000 A 
ATOM     24  C   UNL     1      48.192   4.845  16.519  0.00  0.00    +0.000 A 
ATOM     25  C   UNL     1      48.904   4.384  17.639  0.00  0.00    +0.000 A 
ATOM     26 CL   UNL     1      48.240   3.003  18.444  0.00  0.00    +0.000 Cl
BRANCH  20  28
ATOM     27  N   UNL     1      51.800   3.668  19.071  0.00  0.00    +0.000 N 
ATOM     28  C   UNL     1      50.892   4.672  19.233  0.00  0.00    +0.000 C 
ATOM     29  O   UNL     1      50.809   5.265  20.303  0.00  0.00    +0.000 OA
ATOM     30  H   UNL     1      52.332   3.382  19.881  0.00  0.00    +0.000 HD
ATOM     31  H   UNL     1      51.844   3.093  18.239  0.00  0.00    +0.000 HD
ENDBRANCH  20  28
ENDBRANCH  18  23
ENDBRANCH  17  18
ENDBRANCH   1  17
TORSDOF 7
ENDMDL
