MODEL 1
REMARK VINA RESULT:    -8.728      0.000      0.000
REMARK INTER + INTRA:         -12.762
REMARK INTER:                 -11.789
REMARK INTRA:                  -0.973
REMARK UNBOUND:                -0.973
REMARK  Name = 
REMARK  9 active torsions:
REMARK  status: ('A' for Active; 'I' for Inactive)
REMARK    1  A    between atoms: C_1  and  C_2
REMARK    2  A    between atoms: C_2  and  N_3
REMARK    3  A    between atoms: N_6  and  C_7
REMARK    4  A    between atoms: C_11  and  C_12
REMARK    5  A    between atoms: C_12  and  C_13
REMARK    6  A    between atoms: C_12  and  C_14
REMARK    7  A    between atoms: C_12  and  C_15
REMARK    8  A    between atoms: C_15  and  N_16
REMARK    9  A    between atoms: C_20  and  C_21
REMARK                            x       y       z     vdW  Elec       q    Type
REMARK                         _______ _______ _______ _____ _____    ______ ____
ROOT
ATOM      1  C   UNL     1      43.637   4.875  12.177  0.00  0.00    +0.000 C 
ATOM      2  C   UNL     1      43.062   4.343  13.510  0.00  0.00    +0.000 C 
ATOM      3  C   UNL     1      42.680   5.958  11.624  0.00  0.00    +0.000 C 
ENDROOT
BRANCH   1   8
ATOM      4  C   UNL     1      47.062   5.612  13.829  0.00  0.00    +0.000 A 
ATOM      5  C   UNL     1      47.655   6.417  12.860  0.00  0.00    +0.000 A 
ATOM      6  C   UNL     1      46.953   6.783  11.708  0.00  0.00    +0.000 A 
ATOM      7  C   UNL     1      45.656   6.311  11.494  0.00  0.00    +0.000 A 
ATOM      8  C   UNL     1      45.018   5.500  12.444  0.00  0.00    +0.000 A 
ATOM      9  C   UNL     1      45.723   5.242  13.628  0.00  0.00    +0.000 A 
BRANCH   4  13
ATOM     10  N   UNL     1      48.046   4.831  17.851  0.00  0.00    +0.000 NA
ATOM     11  C   UNL     1      47.026   4.085  17.074  0.00  0.00    +0.000 C 
ATOM     12  C   UNL     1      47.375   3.861  15.588  0.00  0.00    +0.000 C 
ATOM     13  N   UNL     1      47.729   5.122  14.934  0.00  0.00    +0.000 N 
ATOM     14  C   UNL     1      48.629   6.037  15.670  0.00  0.00    +0.000 C 
ATOM     15  C   UNL     1      48.240   6.136  17.166  0.00  0.00    +0.000 C 
BRANCH  10  17
ATOM     16  C   UNL     1      50.355   4.841  18.843  0.00  0.00    +0.000 C 
ATOM     17  C   UNL     1      49.335   4.130  17.964  0.00  0.00    +0.000 C 
ENDBRANCH  10  17
ENDBRANCH   4  13
ENDBRANCH   1   8
BRANCH   1  18
ATOM     18  C   UNL     1      43.635   3.667  11.175  0.00  0.00    +0.000 C 
BRANCH  18  19
ATOM     19  N   UNL     1      43.685   4.076   9.765  0.00  0.00    +0.000 N 
ATOM     20  C   UNL     1      44.739   3.607   8.992  0.00  0.00    +0.000 A 
ATOM     21  C   UNL     1      45.168   2.287   9.054  0.00  0.00    +0.000 A 
ATOM     22  C   UNL     1      46.170   1.843   8.194  0.00  0.00    +0.000 A 
ATOM     23  C   UNL     1      46.730   2.725   7.274  0.00  0.00    +0.000 A 
ATOM     24  C   UNL     1      46.258   4.027   7.288  0.00  0.00    +0.000 A 
ATOM     25  N   UNL     1      45.283   4.486   8.124  0.00  0.00    +0.000 NA
ATOM     26  H   UNL     1      43.605   5.077   9.598  0.00  0.00    +0.000 HD
BRANCH  23  27
ATOM     27  C   UNL     1      47.765   2.210   6.342  0.00  0.00    +0.000 C 
ATOM     28  N   UNL     1      48.082   2.933   5.228  0.00  0.00    +0.000 N 
ATOM     29  O   UNL     1      48.328   1.140   6.551  0.00  0.00    +0.000 OA
ATOM     30  H   UNL     1      47.642   3.787   4.923  0.00  0.00    +0.000 HD
ATOM     31  H   UNL     1      48.760   2.512   4.603  0.00  0.00    +0.000 HD
ENDBRANCH  23  27
ENDBRANCH  18  19
ENDBRANCH   1  18
TORSDOF 6
ENDMDL
MODEL 2
REMARK VINA RESULT:    -7.783      2.482      3.092
REMARK INTER + INTRA:         -11.486
REMARK INTER:                 -10.871
REMARK INTRA:                  -0.616
REMARK UNBOUND:                -0.973
REMARK  Name = 
REMARK  9 active torsions:
REMARK  status: ('A' for Active; 'I' for Inactive)
REMARK    1  A    between atoms: C_1  and  C_2
REMARK    2  A    between atoms: C_2  and  N_3
REMARK    3  A    between atoms: N_6  and  C_7
REMARK    4  A    between atoms: C_11  and  C_12
REMARK    5  A    between atoms: C_12  and  C_13
REMARK    6  A    between atoms: C_12  and  C_14
REMARK    7  A    between atoms: C_12  and  C_15
REMARK    8  A    between atoms: C_15  and  N_16
REMARK    9  A    between atoms: C_20  and  C_21
REMARK                            x       y       z     vdW  Elec       q    Type
REMARK                         _______ _______ _______ _____ _____    ______ ____
ROOT
ATOM      1  C   UNL     1      44.187   4.562  12.190  0.00  0.00    +0.000 C 
ATOM      2  C   UNL     1      45.380   3.588  12.335  0.00  0.00    +0.000 C 
ATOM      3  C   UNL     1      43.276   4.413  13.430  0.00  0.00    +0.000 C 
ENDROOT
BRANCH   1   8
ATOM      4  C   UNL     1      46.621   7.570  12.363  0.00  0.00    +0.000 A 
ATOM      5  C   UNL     1      45.847   8.570  11.777  0.00  0.00    +0.000 A 
ATOM      6  C   UNL     1      44.531   8.315  11.382  0.00  0.00    +0.000 A 
ATOM      7  C   UNL     1      43.985   7.038  11.533  0.00  0.00    +0.000 A 
ATOM      8  C   UNL     1      44.726   6.002  12.120  0.00  0.00    +0.000 A 
ATOM      9  C   UNL     1      46.005   6.330  12.592  0.00  0.00    +0.000 A 
BRANCH   4  13
ATOM     10  N   UNL     1      50.161   9.146  14.015  0.00  0.00    +0.000 NA
ATOM     11  C   UNL     1      49.209   8.272  14.743  0.00  0.00    +0.000 C 
ATOM     12  C   UNL     1      48.560   7.164  13.889  0.00  0.00    +0.000 C 
ATOM     13  N   UNL     1      47.957   7.718  12.676  0.00  0.00    +0.000 N 
ATOM     14  C   UNL     1      48.744   8.722  11.927  0.00  0.00    +0.000 C 
ATOM     15  C   UNL     1      49.415   9.744  12.878  0.00  0.00    +0.000 C 
BRANCH  10  17
ATOM     16  C   UNL     1      52.368   8.090  14.593  0.00  0.00    +0.000 C 
ATOM     17  C   UNL     1      51.352   8.439  13.514  0.00  0.00    +0.000 C 
ENDBRANCH  10  17
ENDBRANCH   4  13
ENDBRANCH   1   8
BRANCH   1  18
ATOM     18  C   UNL     1      43.377   4.092  10.931  0.00  0.00    +0.000 C 
BRANCH  18  19
ATOM     19  N   UNL     1      43.826   4.715   9.680  0.00  0.00    +0.000 N 
ATOM     20  C   UNL     1      44.815   4.065   8.952  0.00  0.00    +0.000 A 
ATOM     21  C   UNL     1      44.795   2.692   8.744  0.00  0.00    +0.000 A 
ATOM     22  C   UNL     1      45.759   2.099   7.931  0.00  0.00    +0.000 A 
ATOM     23  C   UNL     1      46.733   2.890   7.329  0.00  0.00    +0.000 A 
ATOM     24  C   UNL     1      46.693   4.248   7.600  0.00  0.00    +0.000 A 
ATOM     25  N   UNL     1      45.763   4.849   8.395  0.00  0.00    +0.000 NA
ATOM     26  H   UNL     1      44.094   5.694   9.751  0.00  0.00    +0.000 HD
BRANCH  23  27
ATOM     27  C   UNL     1      47.721   2.235   6.435  0.00  0.00    +0.000 C 
ATOM     28  N   UNL     1      48.098   2.860   5.281  0.00  0.00    +0.000 N 
ATOM     29  O   UNL     1      48.190   1.135   6.709  0.00  0.00    +0.000 OA
ATOM     30  H   UNL     1      47.733   3.729   4.924  0.00  0.00    +0.000 HD
ATOM     31  H   UNL     1      48.739   2.346   4.686  0.00  0.00    +0.000 HD
ENDBRANCH  23  27
ENDBRANCH  18  19
ENDBRANCH   1  18
TORSDOF 6
ENDMDL
MODEL 3
REMARK VINA RESULT:    -7.129      2.980      8.143
REMARK INTER + INTRA:         -10.603
REMARK INTER:                  -9.421
REMARK INTRA:                  -1.182
REMARK UNBOUND:                -0.973
REMARK  Name = 
REMARK  9 active torsions:
REMARK  status: ('A' for Active; 'I' for Inactive)
REMARK    1  A    between atoms: C_1  and  C_2
REMARK    2  A    between atoms: C_2  and  N_3
REMARK    3  A    between atoms: N_6  and  C_7
REMARK    4  A    between atoms: C_11  and  C_12
REMARK    5  A    between atoms: C_12  and  C_13
REMARK    6  A    between atoms: C_12  and  C_14
REMARK    7  A    between atoms: C_12  and  C_15
REMARK    8  A    between atoms: C_15  and  N_16
REMARK    9  A    between atoms: C_20  and  C_21
REMARK                            x       y       z     vdW  Elec       q    Type
REMARK                         _______ _______ _______ _____ _____    ______ ____
ROOT
ATOM      1  C   UNL     1      49.139   8.577  12.468  0.00  0.00    +0.000 C 
ATOM      2  C   UNL     1      49.992   7.457  11.829  0.00  0.00    +0.000 C 
ATOM      3  C   UNL     1      49.538   9.927  11.826  0.00  0.00    +0.000 C 
ENDROOT
BRANCH   1   8
ATOM      4  C   UNL     1      45.896   6.713  11.464  0.00  0.00    +0.000 A 
ATOM      5  C   UNL     1      44.928   7.626  11.878  0.00  0.00    +0.000 A 
ATOM      6  C   UNL     1      45.296   8.860  12.419  0.00  0.00    +0.000 A 
ATOM      7  C   UNL     1      46.645   9.182  12.589  0.00  0.00    +0.000 A 
ATOM      8  C   UNL     1      47.653   8.295  12.184  0.00  0.00    +0.000 A 
ATOM      9  C   UNL     1      47.238   7.112  11.556  0.00  0.00    +0.000 A 
BRANCH   4  13
ATOM     10  N   UNL     1      43.723   3.403  10.026  0.00  0.00    +0.000 NA
ATOM     11  C   UNL     1      44.254   4.495   9.174  0.00  0.00    +0.000 C 
ATOM     12  C   UNL     1      45.623   5.054   9.613  0.00  0.00    +0.000 C 
ATOM     13  N   UNL     1      45.609   5.436  11.026  0.00  0.00    +0.000 N 
ATOM     14  C   UNL     1      44.971   4.498  11.974  0.00  0.00    +0.000 C 
ATOM     15  C   UNL     1      43.642   3.936  11.411  0.00  0.00    +0.000 C 
BRANCH  10  17
ATOM     16  C   UNL     1      45.122   1.841   8.641  0.00  0.00    +0.000 C 
ATOM     17  C   UNL     1      44.547   2.183  10.008  0.00  0.00    +0.000 C 
ENDBRANCH  10  17
ENDBRANCH   4  13
ENDBRANCH   1   8
BRANCH   1  18
ATOM     18  C   UNL     1      49.530   8.626  13.987  0.00  0.00    +0.000 C 
BRANCH  18  19
ATOM     19  N   UNL     1      50.244   7.428  14.446  0.00  0.00    +0.000 N 
ATOM     20  C   UNL     1      49.569   6.556  15.291  0.00  0.00    +0.000 A 
ATOM     21  C   UNL     1      48.249   6.187  15.067  0.00  0.00    +0.000 A 
ATOM     22  C   UNL     1      47.644   5.241  15.890  0.00  0.00    +0.000 A 
ATOM     23  C   UNL     1      48.371   4.666  16.929  0.00  0.00    +0.000 A 
ATOM     24  C   UNL     1      49.675   5.100  17.095  0.00  0.00    +0.000 A 
ATOM     25  N   UNL     1      50.287   6.028  16.306  0.00  0.00    +0.000 NA
ATOM     26  H   UNL     1      51.162   7.596  14.852  0.00  0.00    +0.000 HD
BRANCH  23  27
ATOM     27  C   UNL     1      47.711   3.629  17.762  0.00  0.00    +0.000 C 
ATOM     28  N   UNL     1      48.289   3.249  18.940  0.00  0.00    +0.000 N 
ATOM     29  O   UNL     1      46.665   3.098  17.402  0.00  0.00    +0.000 OA
ATOM     30  H   UNL     1      49.174   3.567  19.302  0.00  0.00    +0.000 HD
ATOM     31  H   UNL     1      47.821   2.504  19.444  0.00  0.00    +0.000 HD
ENDBRANCH  23  27
ENDBRANCH  18  19
ENDBRANCH   1  18
TORSDOF 6
ENDMDL
MODEL 4
REMARK VINA RESULT:    -6.392      3.556      8.299
REMARK INTER + INTRA:          -9.607
REMARK INTER:                  -8.292
REMARK INTRA:                  -1.315
REMARK UNBOUND:                -0.973
REMARK  Name = 
REMARK  9 active torsions:
REMARK  status: ('A' for Active; 'I' for Inactive)
REMARK    1  A    between atoms: C_1  and  C_2
REMARK    2  A    between atoms: C_2  and  N_3
REMARK    3  A    between atoms: N_6  and  C_7
REMARK    4  A    between atoms: C_11  and  C_12
REMARK    5  A    between atoms: C_12  and  C_13
REMARK    6  A    between atoms: C_12  and  C_14
REMARK    7  A    between atoms: C_12  and  C_15
REMARK    8  A    between atoms: C_15  and  N_16
REMARK    9  A    between atoms: C_20  and  C_21
REMARK                            x       y       z     vdW  Elec       q    Type
REMARK                         _______ _______ _______ _____ _____    ______ ____
ROOT
ATOM      1  C   UNL     1      49.446   9.270  16.236  0.00  0.00    +0.000 C 
ATOM      2  C   UNL     1      50.139  10.602  15.867  0.00  0.00    +0.000 C 
ATOM      3  C   UNL     1      48.044   9.586  16.809  0.00  0.00    +0.000 C 
ENDROOT
BRANCH   1   8
ATOM      4  C   UNL     1      47.906   6.942  13.550  0.00  0.00    +0.000 A 
ATOM      5  C   UNL     1      48.863   7.033  12.542  0.00  0.00    +0.000 A 
ATOM      6  C   UNL     1      50.030   7.780  12.730  0.00  0.00    +0.000 A 
ATOM      7  C   UNL     1      50.234   8.480  13.921  0.00  0.00    +0.000 A 
ATOM      8  C   UNL     1      49.298   8.416  14.964  0.00  0.00    +0.000 A 
ATOM      9  C   UNL     1      48.193   7.575  14.769  0.00  0.00    +0.000 A 
BRANCH   4  13
ATOM     10  N   UNL     1      44.891   4.453  11.983  0.00  0.00    +0.000 NA
ATOM     11  C   UNL     1      45.971   3.996  12.892  0.00  0.00    +0.000 C 
ATOM     12  C   UNL     1      46.377   5.011  13.981  0.00  0.00    +0.000 C 
ATOM     13  N   UNL     1      46.686   6.317  13.395  0.00  0.00    +0.000 N 
ATOM     14  C   UNL     1      45.764   6.829  12.358  0.00  0.00    +0.000 C 
ATOM     15  C   UNL     1      45.358   5.717  11.359  0.00  0.00    +0.000 C 
BRANCH  10  17
ATOM     16  C   UNL     1      42.531   5.291  11.768  0.00  0.00    +0.000 C 
ATOM     17  C   UNL     1      43.602   4.676  12.658  0.00  0.00    +0.000 C 
ENDBRANCH  10  17
ENDBRANCH   4  13
ENDBRANCH   1   8
BRANCH   1  18
ATOM     18  C   UNL     1      50.304   8.621  17.378  0.00  0.00    +0.000 C 
BRANCH  18  19
ATOM     19  N   UNL     1      49.580   7.600  18.145  0.00  0.00    +0.000 N 
ATOM     20  C   UNL     1      49.791   6.268  17.811  0.00  0.00    +0.000 A 
ATOM     21  C   UNL     1      51.060   5.766  17.551  0.00  0.00    +0.000 A 
ATOM     22  C   UNL     1      51.231   4.405  17.308  0.00  0.00    +0.000 A 
ATOM     23  C   UNL     1      50.127   3.557  17.334  0.00  0.00    +0.000 A 
ATOM     24  C   UNL     1      48.895   4.139  17.584  0.00  0.00    +0.000 A 
ATOM     25  N   UNL     1      48.703   5.468  17.819  0.00  0.00    +0.000 NA
ATOM     26  H   UNL     1      48.575   7.740  18.219  0.00  0.00    +0.000 HD
BRANCH  23  27
ATOM     27  C   UNL     1      50.347   2.105  17.113  0.00  0.00    +0.000 C 
ATOM     28  N   UNL     1      51.194   1.423  17.940  0.00  0.00    +0.000 N 
ATOM     29  O   UNL     1      49.794   1.514  16.192  0.00  0.00    +0.000 OA
ATOM     30  H   UNL     1      51.748   1.815  18.685  0.00  0.00    +0.000 HD
ATOM     31  H   UNL     1      51.344   0.446  17.715  0.00  0.00    +0.000 HD
ENDBRANCH  23  27
ENDBRANCH  18  19
ENDBRANCH   1  18
TORSDOF 6
ENDMDL
MODEL 5
REMARK VINA RESULT:    -6.114      3.275      6.512
REMARK INTER + INTRA:          -9.231
REMARK INTER:                  -8.397
REMARK INTRA:                  -0.834
REMARK UNBOUND:                -0.973
REMARK  Name = 
REMARK  9 active torsions:
REMARK  status: ('A' for Active; 'I' for Inactive)
REMARK    1  A    between atoms: C_1  and  C_2
REMARK    2  A    between atoms: C_2  and  N_3
REMARK    3  A    between atoms: N_6  and  C_7
REMARK    4  A    between atoms: C_11  and  C_12
REMARK    5  A    between atoms: C_12  and  C_13
REMARK    6  A    between atoms: C_12  and  C_14
REMARK    7  A    between atoms: C_12  and  C_15
REMARK    8  A    between atoms: C_15  and  N_16
REMARK    9  A    between atoms: C_20  and  C_21
REMARK                            x       y       z     vdW  Elec       q    Type
REMARK                         _______ _______ _______ _____ _____    ______ ____
ROOT
ATOM      1  C   UNL     1      48.085   4.078  17.266  0.00  0.00    +0.000 C 
ATOM      2  C   UNL     1      47.115   2.887  17.449  0.00  0.00    +0.000 C 
ATOM      3  C   UNL     1      47.854   5.083  18.419  0.00  0.00    +0.000 C 
ENDROOT
BRANCH   1   8
ATOM      4  C   UNL     1      51.907   3.952  17.877  0.00  0.00    +0.000 A 
ATOM      5  C   UNL     1      52.160   2.595  17.690  0.00  0.00    +0.000 A 
ATOM      6  C   UNL     1      51.136   1.724  17.309  0.00  0.00    +0.000 A 
ATOM      7  C   UNL     1      49.832   2.197  17.148  0.00  0.00    +0.000 A 
ATOM      8  C   UNL     1      49.532   3.556  17.323  0.00  0.00    +0.000 A 
ATOM      9  C   UNL     1      50.608   4.408  17.607  0.00  0.00    +0.000 A 
BRANCH   4  13
ATOM     10  N   UNL     1      53.679   6.957  20.239  0.00  0.00    +0.000 NA
ATOM     11  C   UNL     1      53.600   5.525  20.619  0.00  0.00    +0.000 C 
ATOM     12  C   UNL     1      53.763   4.532  19.449  0.00  0.00    +0.000 C 
ATOM     13  N   UNL     1      52.841   4.848  18.357  0.00  0.00    +0.000 N 
ATOM     14  C   UNL     1      52.710   6.269  17.972  0.00  0.00    +0.000 C 
ATOM     15  C   UNL     1      52.628   7.190  19.215  0.00  0.00    +0.000 C 
BRANCH  10  17
ATOM     16  C   UNL     1      55.060   8.806  19.244  0.00  0.00    +0.000 C 
ATOM     17  C   UNL     1      54.992   7.357  19.707  0.00  0.00    +0.000 C 
ENDBRANCH  10  17
ENDBRANCH   4  13
ENDBRANCH   1   8
BRANCH   1  18
ATOM     18  C   UNL     1      47.683   4.780  15.921  0.00  0.00    +0.000 C 
BRANCH  18  19
ATOM     19  N   UNL     1      47.598   3.857  14.782  0.00  0.00    +0.000 N 
ATOM     20  C   UNL     1      46.691   4.156  13.773  0.00  0.00    +0.000 A 
ATOM     21  C   UNL     1      46.543   5.443  13.272  0.00  0.00    +0.000 A 
ATOM     22  C   UNL     1      45.686   5.676  12.199  0.00  0.00    +0.000 A 
ATOM     23  C   UNL     1      44.987   4.613  11.633  0.00  0.00    +0.000 A 
ATOM     24  C   UNL     1      45.177   3.365  12.201  0.00  0.00    +0.000 A 
ATOM     25  N   UNL     1      46.006   3.114  13.254  0.00  0.00    +0.000 NA
ATOM     26  H   UNL     1      47.473   2.876  15.024  0.00  0.00    +0.000 HD
BRANCH  23  27
ATOM     27  C   UNL     1      44.114   4.886  10.463  0.00  0.00    +0.000 C 
ATOM     28  N   UNL     1      44.591   4.659   9.204  0.00  0.00    +0.000 N 
ATOM     29  O   UNL     1      42.978   5.326  10.611  0.00  0.00    +0.000 OA
ATOM     30  H   UNL     1      45.523   4.362   8.961  0.00  0.00    +0.000 HD
ATOM     31  H   UNL     1      43.970   4.907   8.442  0.00  0.00    +0.000 HD
ENDBRANCH  23  27
ENDBRANCH  18  19
ENDBRANCH   1  18
TORSDOF 6
ENDMDL
MODEL 6
REMARK VINA RESULT:    -5.856      4.065      7.319
REMARK INTER + INTRA:          -8.883
REMARK INTER:                  -7.517
REMARK INTRA:                  -1.366
REMARK UNBOUND:                -0.973
REMARK  Name = 
REMARK  9 active torsions:
REMARK  status: ('A' for Active; 'I' for Inactive)
REMARK    1  A    between atoms: C_1  and  C_2
REMARK    2  A    between atoms: C_2  and  N_3
REMARK    3  A    between atoms: N_6  and  C_7
REMARK    4  A    between atoms: C_11  and  C_12
REMARK    5  A    between atoms: C_12  and  C_13
REMARK    6  A    between atoms: C_12  and  C_14
REMARK    7  A    between atoms: C_12  and  C_15
REMARK    8  A    between atoms: C_15  and  N_16
REMARK    9  A    between atoms: C_20  and  C_21
REMARK                            x       y       z     vdW  Elec       q    Type
REMARK                         _______ _______ _______ _____ _____    ______ ____
ROOT
ATOM      1  C   UNL     1      45.500   5.725  12.246  0.00  0.00    +0.000 C 
ATOM      2  C   UNL     1      44.168   5.474  12.992  0.00  0.00    +0.000 C 
ATOM      3  C   UNL     1      45.338   5.263  10.779  0.00  0.00    +0.000 C 
ENDROOT
BRANCH   1   8
ATOM      4  C   UNL     1      47.460   9.050  12.569  0.00  0.00    +0.000 A 
ATOM      5  C   UNL     1      46.513   9.961  12.107  0.00  0.00    +0.000 A 
ATOM      6  C   UNL     1      45.230   9.538  11.751  0.00  0.00    +0.000 A 
ATOM      7  C   UNL     1      44.891   8.184  11.816  0.00  0.00    +0.000 A 
ATOM      8  C   UNL     1      45.811   7.232  12.277  0.00  0.00    +0.000 A 
ATOM      9  C   UNL     1      47.051   7.715  12.717  0.00  0.00    +0.000 A 
BRANCH   4  13
ATOM     10  N   UNL     1      51.635   8.682  12.996  0.00  0.00    +0.000 NA
ATOM     11  C   UNL     1      50.939   8.930  11.709  0.00  0.00    +0.000 C 
ATOM     12  C   UNL     1      49.704   9.848  11.805  0.00  0.00    +0.000 C 
ATOM     13  N   UNL     1      48.775   9.377  12.833  0.00  0.00    +0.000 N 
ATOM     14  C   UNL     1      49.355   8.953  14.126  0.00  0.00    +0.000 C 
ATOM     15  C   UNL     1      50.632   8.099  13.924  0.00  0.00    +0.000 C 
BRANCH  10  17
ATOM     16  C   UNL     1      53.298  10.549  12.737  0.00  0.00    +0.000 C 
ATOM     17  C   UNL     1      52.225   9.891  13.594  0.00  0.00    +0.000 C 
ENDBRANCH  10  17
ENDBRANCH   4  13
ENDBRANCH   1   8
BRANCH   1  18
ATOM     18  C   UNL     1      46.574   4.808  12.929  0.00  0.00    +0.000 C 
BRANCH  18  19
ATOM     19  N   UNL     1      46.170   4.319  14.253  0.00  0.00    +0.000 N 
ATOM     20  C   UNL     1      47.102   4.385  15.281  0.00  0.00    +0.000 A 
ATOM     21  C   UNL     1      47.900   5.505  15.481  0.00  0.00    +0.000 A 
ATOM     22  C   UNL     1      48.756   5.559  16.579  0.00  0.00    +0.000 A 
ATOM     23  C   UNL     1      48.801   4.491  17.471  0.00  0.00    +0.000 A 
ATOM     24  C   UNL     1      47.987   3.406  17.190  0.00  0.00    +0.000 A 
ATOM     25  N   UNL     1      47.146   3.328  16.120  0.00  0.00    +0.000 NA
ATOM     26  H   UNL     1      45.765   3.386  14.269  0.00  0.00    +0.000 HD
BRANCH  23  27
ATOM     27  C   UNL     1      49.692   4.597  18.654  0.00  0.00    +0.000 C 
ATOM     28  N   UNL     1      49.289   4.066  19.845  0.00  0.00    +0.000 N 
ATOM     29  O   UNL     1      50.777   5.166  18.580  0.00  0.00    +0.000 OA
ATOM     30  H   UNL     1      48.399   3.635  20.038  0.00  0.00    +0.000 HD
ATOM     31  H   UNL     1      49.915   4.208  20.630  0.00  0.00    +0.000 HD
ENDBRANCH  23  27
ENDBRANCH  18  19
ENDBRANCH   1  18
TORSDOF 6
ENDMDL
MODEL 7
REMARK VINA RESULT:    -5.796      3.719      8.378
REMARK INTER + INTRA:          -8.803
REMARK INTER:                  -7.834
REMARK INTRA:                  -0.969
REMARK UNBOUND:                -0.973
REMARK  Name = 
REMARK  9 active torsions:
REMARK  status: ('A' for Active; 'I' for Inactive)
REMARK    1  A    between atoms: C_1  and  C_2
REMARK    2  A    between atoms: C_2  and  N_3
REMARK    3  A    between atoms: N_6  and  C_7
REMARK    4  A    between atoms: C_11  and  C_12
REMARK    5  A    between atoms: C_12  and  C_13
REMARK    6  A    between atoms: C_12  and  C_14
REMARK    7  A    between atoms: C_12  and  C_15
REMARK    8  A    between atoms: C_15  and  N_16
REMARK    9  A    between atoms: C_20  and  C_21
REMARK                            x       y       z     vdW  Elec       q    Type
REMARK                         _______ _______ _______ _____ _____    ______ ____
ROOT
ATOM      1  C   UNL     1      50.640   8.765  12.156  0.00  0.00    +0.000 C 
ATOM      2  C   UNL     1      51.200   7.751  11.133  0.00  0.00    +0.000 C 
ATOM      3  C   UNL     1      51.236  10.159  11.847  0.00  0.00    +0.000 C 
ENDROOT
BRANCH   1   8
ATOM      4  C   UNL     1      46.948   7.628  11.868  0.00  0.00    +0.000 A 
ATOM      5  C   UNL     1      46.285   8.845  12.006  0.00  0.00    +0.000 A 
ATOM      6  C   UNL     1      47.002  10.039  12.128  0.00  0.00    +0.000 A 
ATOM      7  C   UNL     1      48.398  10.023  12.153  0.00  0.00    +0.000 A 
ATOM      8  C   UNL     1      49.108   8.821  12.015  0.00  0.00    +0.000 A 
ATOM      9  C   UNL     1      48.349   7.662  11.795  0.00  0.00    +0.000 A 
BRANCH   4  13
ATOM     10  N   UNL     1      43.879   4.747  12.040  0.00  0.00    +0.000 NA
ATOM     11  C   UNL     1      44.221   5.542  10.835  0.00  0.00    +0.000 C 
ATOM     12  C   UNL     1      45.726   5.821  10.646  0.00  0.00    +0.000 C 
ATOM     13  N   UNL     1      46.310   6.404  11.854  0.00  0.00    +0.000 N 
ATOM     14  C   UNL     1      45.933   5.797  13.149  0.00  0.00    +0.000 C 
ATOM     15  C   UNL     1      44.417   5.487  13.212  0.00  0.00    +0.000 C 
BRANCH  10  17
ATOM     16  C   UNL     1      43.391   2.305  11.698  0.00  0.00    +0.000 C 
ATOM     17  C   UNL     1      44.421   3.379  12.022  0.00  0.00    +0.000 C 
ENDBRANCH  10  17
ENDBRANCH   4  13
ENDBRANCH   1   8
BRANCH   1  18
ATOM     18  C   UNL     1      51.163   8.314  13.566  0.00  0.00    +0.000 C 
BRANCH  18  19
ATOM     19  N   UNL     1      50.137   8.368  14.615  0.00  0.00    +0.000 N 
ATOM     20  C   UNL     1      50.059   7.300  15.499  0.00  0.00    +0.000 A 
ATOM     21  C   UNL     1      51.190   6.721  16.059  0.00  0.00    +0.000 A 
ATOM     22  C   UNL     1      51.056   5.711  17.009  0.00  0.00    +0.000 A 
ATOM     23  C   UNL     1      49.785   5.293  17.394  0.00  0.00    +0.000 A 
ATOM     24  C   UNL     1      48.709   5.909  16.777  0.00  0.00    +0.000 A 
ATOM     25  N   UNL     1      48.816   6.895  15.841  0.00  0.00    +0.000 NA
ATOM     26  H   UNL     1      49.193   8.568  14.293  0.00  0.00    +0.000 HD
BRANCH  23  27
ATOM     27  C   UNL     1      49.674   4.245  18.440  0.00  0.00    +0.000 C 
ATOM     28  N   UNL     1      50.624   4.172  19.419  0.00  0.00    +0.000 N 
ATOM     29  O   UNL     1      48.752   3.435  18.429  0.00  0.00    +0.000 OA
ATOM     30  H   UNL     1      51.454   4.739  19.491  0.00  0.00    +0.000 HD
ATOM     31  H   UNL     1      50.525   3.409  20.078  0.00  0.00    +0.000 HD
ENDBRANCH  23  27
ENDBRANCH  18  19
ENDBRANCH   1  18
TORSDOF 6
ENDMDL
