MODEL 1
REMARK VINA RESULT:    -7.394      0.000      0.000
REMARK INTER + INTRA:          -9.545
REMARK INTER:                  -9.123
REMARK INTRA:                  -0.422
REMARK UNBOUND:                -0.422
REMARK  Name = 
REMARK  4 active torsions:
REMARK  status: ('A' for Active; 'I' for Inactive)
REMARK    1  A    between atoms: C_2  and  C_4
REMARK    2  A    between atoms: C_7  and  N_8
REMARK    3  A    between atoms: N_8  and  C_9
REMARK    4  A    between atoms: C_9  and  C_10
REMARK                            x       y       z     vdW  Elec       q    Type
REMARK                         _______ _______ _______ _____ _____    ______ ____
ROOT
ATOM      1  C   UNL     1      46.385   2.719   7.542  0.00  0.00    +0.000 A 
ATOM      2  N   UNL     1      45.952   1.700   8.322  0.00  0.00    +0.000 NA
ATOM      3  C   UNL     1      45.052   2.042   9.272  0.00  0.00    +0.000 A 
ATOM      4  C   UNL     1      44.564   3.326   9.481  0.00  0.00    +0.000 A 
ATOM      5  C   UNL     1      45.039   4.248   8.563  0.00  0.00    +0.000 A 
ATOM      6  N   UNL     1      45.955   3.994   7.607  0.00  0.00    +0.000 NA
ENDROOT
BRANCH   1   8
ATOM      7  N   UNL     1      47.475   3.100   5.382  0.00  0.00    +0.000 N 
ATOM      8  C   UNL     1      47.486   2.393   6.560  0.00  0.00    +0.000 C 
ATOM      9  O   UNL     1      48.358   1.550   6.760  0.00  0.00    +0.000 OA
ATOM     10  H   UNL     1      48.221   2.946   4.719  0.00  0.00    +0.000 HD
ATOM     11  H   UNL     1      46.793   3.838   5.235  0.00  0.00    +0.000 HD
ENDBRANCH   1   8
BRANCH   4  12
ATOM     12  N   UNL     1      43.705   3.713  10.494  0.00  0.00    +0.000 N 
ATOM     13  H   UNL     1      42.729   3.845  10.234  0.00  0.00    +0.000 HD
BRANCH  12  14
ATOM     14  C   UNL     1      43.883   3.183  11.846  0.00  0.00    +0.000 C 
BRANCH  14  15
ATOM     15  C   UNL     1      44.997   3.936  12.550  0.00  0.00    +0.000 A 
ATOM     16  C   UNL     1      44.985   5.333  12.579  0.00  0.00    +0.000 A 
ATOM     17  C   UNL     1      46.009   6.002  13.242  0.00  0.00    +0.000 A 
ATOM     18  C   UNL     1      47.018   5.268  13.850  0.00  0.00    +0.000 A 
ATOM     19  C   UNL     1      46.963   3.887  13.769  0.00  0.00    +0.000 A 
ATOM     20  N   UNL     1      45.978   3.206  13.139  0.00  0.00    +0.000 NA
ENDBRANCH  14  15
ENDBRANCH  12  14
ENDBRANCH   4  12
TORSDOF 4
ENDMDL
MODEL 2
REMARK VINA RESULT:    -7.385      2.589      6.218
REMARK INTER + INTRA:          -9.533
REMARK INTER:                  -9.167
REMARK INTRA:                  -0.366
REMARK UNBOUND:                -0.422
REMARK  Name = 
REMARK  4 active torsions:
REMARK  status: ('A' for Active; 'I' for Inactive)
REMARK    1  A    between atoms: C_2  and  C_4
REMARK    2  A    between atoms: C_7  and  N_8
REMARK    3  A    between atoms: N_8  and  C_9
REMARK    4  A    between atoms: C_9  and  C_10
REMARK                            x       y       z     vdW  Elec       q    Type
REMARK                         _______ _______ _______ _____ _____    ______ ____
ROOT
ATOM      1  C   UNL     1      46.475   4.651  13.696  0.00  0.00    +0.000 A 
ATOM      2  N   UNL     1      46.859   5.785  13.063  0.00  0.00    +0.000 NA
ATOM      3  C   UNL     1      46.272   6.004  11.864  0.00  0.00    +0.000 A 
ATOM      4  C   UNL     1      45.334   5.168  11.273  0.00  0.00    +0.000 A 
ATOM      5  C   UNL     1      44.985   4.089  12.066  0.00  0.00    +0.000 A 
ATOM      6  N   UNL     1      45.541   3.786  13.257  0.00  0.00    +0.000 NA
ENDROOT
BRANCH   1   8
ATOM      7  N   UNL     1      47.467   5.366  15.818  0.00  0.00    +0.000 N 
ATOM      8  C   UNL     1      47.208   4.314  14.974  0.00  0.00    +0.000 C 
ATOM      9  O   UNL     1      47.571   3.179  15.279  0.00  0.00    +0.000 OA
ATOM     10  H   UNL     1      47.913   5.176  16.703  0.00  0.00    +0.000 HD
ATOM     11  H   UNL     1      47.119   6.294  15.600  0.00  0.00    +0.000 HD
ENDBRANCH   1   8
BRANCH   4  12
ATOM     12  N   UNL     1      44.780   5.331  10.016  0.00  0.00    +0.000 N 
ATOM     13  H   UNL     1      45.259   5.977   9.390  0.00  0.00    +0.000 HD
BRANCH  12  14
ATOM     14  C   UNL     1      44.181   4.187   9.328  0.00  0.00    +0.000 C 
BRANCH  14  15
ATOM     15  C   UNL     1      45.245   3.448   8.538  0.00  0.00    +0.000 A 
ATOM     16  C   UNL     1      45.441   2.080   8.742  0.00  0.00    +0.000 A 
ATOM     17  C   UNL     1      46.413   1.420   7.997  0.00  0.00    +0.000 A 
ATOM     18  C   UNL     1      47.168   2.136   7.077  0.00  0.00    +0.000 A 
ATOM     19  C   UNL     1      46.918   3.491   6.940  0.00  0.00    +0.000 A 
ATOM     20  N   UNL     1      45.976   4.161   7.643  0.00  0.00    +0.000 NA
ENDBRANCH  14  15
ENDBRANCH  12  14
ENDBRANCH   4  12
TORSDOF 4
ENDMDL
MODEL 3
REMARK VINA RESULT:    -7.326      1.161      1.427
REMARK INTER + INTRA:          -9.461
REMARK INTER:                  -9.055
REMARK INTRA:                  -0.406
REMARK UNBOUND:                -0.422
REMARK  Name = 
REMARK  4 active torsions:
REMARK  status: ('A' for Active; 'I' for Inactive)
REMARK    1  A    between atoms: C_2  and  C_4
REMARK    2  A    between atoms: C_7  and  N_8
REMARK    3  A    between atoms: N_8  and  C_9
REMARK    4  A    between atoms: C_9  and  C_10
REMARK                            x       y       z     vdW  Elec       q    Type
REMARK                         _______ _______ _______ _____ _____    ______ ____
ROOT
ATOM      1  C   UNL     1      46.123   2.048   7.996  0.00  0.00    +0.000 A 
ATOM      2  N   UNL     1      45.211   1.571   8.875  0.00  0.00    +0.000 NA
ATOM      3  C   UNL     1      44.435   2.509   9.468  0.00  0.00    +0.000 A 
ATOM      4  C   UNL     1      44.518   3.875   9.232  0.00  0.00    +0.000 A 
ATOM      5  C   UNL     1      45.443   4.208   8.258  0.00  0.00    +0.000 A 
ATOM      6  N   UNL     1      46.270   3.339   7.641  0.00  0.00    +0.000 NA
ENDROOT
BRANCH   1   8
ATOM      7  N   UNL     1      46.799  -0.281   7.658  0.00  0.00    +0.000 N 
ATOM      8  C   UNL     1      47.089   1.041   7.417  0.00  0.00    +0.000 C 
ATOM      9  O   UNL     1      48.087   1.340   6.765  0.00  0.00    +0.000 OA
ATOM     10  H   UNL     1      47.393  -0.987   7.249  0.00  0.00    +0.000 HD
ATOM     11  H   UNL     1      45.946  -0.537   8.145  0.00  0.00    +0.000 HD
ENDBRANCH   1   8
BRANCH   4  12
ATOM     12  N   UNL     1      43.791   4.856   9.883  0.00  0.00    +0.000 N 
ATOM     13  H   UNL     1      43.025   5.275   9.358  0.00  0.00    +0.000 HD
BRANCH  12  14
ATOM     14  C   UNL     1      43.521   4.736  11.316  0.00  0.00    +0.000 C 
BRANCH  14  15
ATOM     15  C   UNL     1      44.780   5.045  12.104  0.00  0.00    +0.000 A 
ATOM     16  C   UNL     1      45.516   6.198  11.820  0.00  0.00    +0.000 A 
ATOM     17  C   UNL     1      46.660   6.468  12.564  0.00  0.00    +0.000 A 
ATOM     18  C   UNL     1      47.046   5.584  13.563  0.00  0.00    +0.000 A 
ATOM     19  C   UNL     1      46.267   4.459  13.777  0.00  0.00    +0.000 A 
ATOM     20  N   UNL     1      45.146   4.172  13.076  0.00  0.00    +0.000 NA
ENDBRANCH  14  15
ENDBRANCH  12  14
ENDBRANCH   4  12
TORSDOF 4
ENDMDL
MODEL 4
REMARK VINA RESULT:    -6.860      2.748      5.920
REMARK INTER + INTRA:          -8.886
REMARK INTER:                  -8.577
REMARK INTRA:                  -0.309
REMARK UNBOUND:                -0.422
REMARK  Name = 
REMARK  4 active torsions:
REMARK  status: ('A' for Active; 'I' for Inactive)
REMARK    1  A    between atoms: C_2  and  C_4
REMARK    2  A    between atoms: C_7  and  N_8
REMARK    3  A    between atoms: N_8  and  C_9
REMARK    4  A    between atoms: C_9  and  C_10
REMARK                            x       y       z     vdW  Elec       q    Type
REMARK                         _______ _______ _______ _____ _____    ______ ____
ROOT
ATOM      1  C   UNL     1      46.621   5.442  12.831  0.00  0.00    +0.000 A 
ATOM      2  N   UNL     1      46.176   4.190  13.095  0.00  0.00    +0.000 NA
ATOM      3  C   UNL     1      45.404   3.637  12.131  0.00  0.00    +0.000 A 
ATOM      4  C   UNL     1      45.060   4.254  10.935  0.00  0.00    +0.000 A 
ATOM      5  C   UNL     1      45.647   5.498  10.772  0.00  0.00    +0.000 A 
ATOM      6  N   UNL     1      46.403   6.127  11.693  0.00  0.00    +0.000 NA
ENDROOT
BRANCH   1   8
ATOM      7  N   UNL     1      47.236   7.499  14.009  0.00  0.00    +0.000 N 
ATOM      8  C   UNL     1      47.376   6.133  13.942  0.00  0.00    +0.000 C 
ATOM      9  O   UNL     1      48.085   5.549  14.759  0.00  0.00    +0.000 OA
ATOM     10  H   UNL     1      47.685   7.993  14.766  0.00  0.00    +0.000 HD
ATOM     11  H   UNL     1      46.606   7.979  13.375  0.00  0.00    +0.000 HD
ENDBRANCH   1   8
BRANCH   4  12
ATOM     12  N   UNL     1      44.210   3.741   9.971  0.00  0.00    +0.000 N 
ATOM     13  H   UNL     1      43.913   4.385   9.241  0.00  0.00    +0.000 HD
BRANCH  12  14
ATOM     14  C   UNL     1      44.382   2.366   9.502  0.00  0.00    +0.000 C 
BRANCH  14  15
ATOM     15  C   UNL     1      45.449   2.320   8.424  0.00  0.00    +0.000 A 
ATOM     16  C   UNL     1      45.652   3.427   7.597  0.00  0.00    +0.000 A 
ATOM     17  C   UNL     1      46.644   3.367   6.623  0.00  0.00    +0.000 A 
ATOM     18  C   UNL     1      47.401   2.210   6.494  0.00  0.00    +0.000 A 
ATOM     19  C   UNL     1      47.132   1.153   7.347  0.00  0.00    +0.000 A 
ATOM     20  N   UNL     1      46.180   1.182   8.308  0.00  0.00    +0.000 NA
ENDBRANCH  14  15
ENDBRANCH  12  14
ENDBRANCH   4  12
TORSDOF 4
ENDMDL
MODEL 5
REMARK VINA RESULT:    -5.809      3.457      5.664
REMARK INTER + INTRA:          -7.589
REMARK INTER:                  -7.264
REMARK INTRA:                  -0.325
REMARK UNBOUND:                -0.422
REMARK  Name = 
REMARK  4 active torsions:
REMARK  status: ('A' for Active; 'I' for Inactive)
REMARK    1  A    between atoms: C_2  and  C_4
REMARK    2  A    between atoms: C_7  and  N_8
REMARK    3  A    between atoms: N_8  and  C_9
REMARK    4  A    between atoms: C_9  and  C_10
REMARK                            x       y       z     vdW  Elec       q    Type
REMARK                         _______ _______ _______ _____ _____    ______ ____
ROOT
ATOM      1  C   UNL     1      44.997   4.204  11.949  0.00  0.00    +0.000 A 
ATOM      2  N   UNL     1      45.134   5.528  12.200  0.00  0.00    +0.000 NA
ATOM      3  C   UNL     1      45.932   5.837  13.249  0.00  0.00    +0.000 A 
ATOM      4  C   UNL     1      46.593   4.911  14.045  0.00  0.00    +0.000 A 
ATOM      5  C   UNL     1      46.418   3.603  13.626  0.00  0.00    +0.000 A 
ATOM      6  N   UNL     1      45.621   3.212  12.611  0.00  0.00    +0.000 NA
ENDROOT
BRANCH   1   8
ATOM      7  N   UNL     1      43.804   4.761   9.884  0.00  0.00    +0.000 N 
ATOM      8  C   UNL     1      44.011   3.825  10.869  0.00  0.00    +0.000 C 
ATOM      9  O   UNL     1      43.406   2.755  10.834  0.00  0.00    +0.000 OA
ATOM     10  H   UNL     1      43.189   4.527   9.118  0.00  0.00    +0.000 HD
ATOM     11  H   UNL     1      44.343   5.621   9.874  0.00  0.00    +0.000 HD
ENDBRANCH   1   8
BRANCH   4  12
ATOM     12  N   UNL     1      47.349   5.199  15.168  0.00  0.00    +0.000 N 
ATOM     13  H   UNL     1      47.533   6.184  15.349  0.00  0.00    +0.000 HD
BRANCH  12  14
ATOM     14  C   UNL     1      47.184   4.403  16.384  0.00  0.00    +0.000 C 
BRANCH  14  15
ATOM     15  C   UNL     1      48.508   3.768  16.766  0.00  0.00    +0.000 A 
ATOM     16  C   UNL     1      49.445   4.498  17.501  0.00  0.00    +0.000 A 
ATOM     17  C   UNL     1      50.648   3.892  17.852  0.00  0.00    +0.000 A 
ATOM     18  C   UNL     1      50.888   2.582  17.458  0.00  0.00    +0.000 A 
ATOM     19  C   UNL     1      49.912   1.929  16.725  0.00  0.00    +0.000 A 
ATOM     20  N   UNL     1      48.731   2.488  16.374  0.00  0.00    +0.000 NA
ENDBRANCH  14  15
ENDBRANCH  12  14
ENDBRANCH   4  12
TORSDOF 4
ENDMDL
MODEL 6
REMARK VINA RESULT:    -5.546      2.618      4.104
REMARK INTER + INTRA:          -7.265
REMARK INTER:                  -6.994
REMARK INTRA:                  -0.271
REMARK UNBOUND:                -0.422
REMARK  Name = 
REMARK  4 active torsions:
REMARK  status: ('A' for Active; 'I' for Inactive)
REMARK    1  A    between atoms: C_2  and  C_4
REMARK    2  A    between atoms: C_7  and  N_8
REMARK    3  A    between atoms: N_8  and  C_9
REMARK    4  A    between atoms: C_9  and  C_10
REMARK                            x       y       z     vdW  Elec       q    Type
REMARK                         _______ _______ _______ _____ _____    ______ ____
ROOT
ATOM      1  C   UNL     1      44.897   3.749  10.378  0.00  0.00    +0.000 A 
ATOM      2  N   UNL     1      44.865   3.065  11.546  0.00  0.00    +0.000 NA
ATOM      3  C   UNL     1      45.250   3.767  12.637  0.00  0.00    +0.000 A 
ATOM      4  C   UNL     1      45.655   5.096  12.626  0.00  0.00    +0.000 A 
ATOM      5  C   UNL     1      45.567   5.685  11.376  0.00  0.00    +0.000 A 
ATOM      6  N   UNL     1      45.219   5.048  10.239  0.00  0.00    +0.000 NA
ENDROOT
BRANCH   1   8
ATOM      7  N   UNL     1      44.329   3.688   7.996  0.00  0.00    +0.000 N 
ATOM      8  C   UNL     1      44.598   2.955   9.127  0.00  0.00    +0.000 C 
ATOM      9  O   UNL     1      44.584   1.727   9.079  0.00  0.00    +0.000 OA
ATOM     10  H   UNL     1      44.171   3.196   7.129  0.00  0.00    +0.000 HD
ATOM     11  H   UNL     1      44.397   4.700   8.015  0.00  0.00    +0.000 HD
ENDBRANCH   1   8
BRANCH   4  12
ATOM     12  N   UNL     1      46.127   5.810  13.713  0.00  0.00    +0.000 N 
ATOM     13  H   UNL     1      45.571   5.757  14.564  0.00  0.00    +0.000 HD
BRANCH  12  14
ATOM     14  C   UNL     1      47.566   5.900  13.959  0.00  0.00    +0.000 C 
BRANCH  14  15
ATOM     15  C   UNL     1      47.900   5.259  15.293  0.00  0.00    +0.000 A 
ATOM     16  C   UNL     1      47.134   4.191  15.766  0.00  0.00    +0.000 A 
ATOM     17  C   UNL     1      47.466   3.611  16.986  0.00  0.00    +0.000 A 
ATOM     18  C   UNL     1      48.544   4.111  17.705  0.00  0.00    +0.000 A 
ATOM     19  C   UNL     1      49.248   5.177  17.172  0.00  0.00    +0.000 A 
ATOM     20  N   UNL     1      48.955   5.759  15.986  0.00  0.00    +0.000 NA
ENDBRANCH  14  15
ENDBRANCH  12  14
ENDBRANCH   4  12
TORSDOF 4
ENDMDL
MODEL 7
REMARK VINA RESULT:    -5.475      3.595      6.553
REMARK INTER + INTRA:          -7.177
REMARK INTER:                  -6.857
REMARK INTRA:                  -0.321
REMARK UNBOUND:                -0.422
REMARK  Name = 
REMARK  4 active torsions:
REMARK  status: ('A' for Active; 'I' for Inactive)
REMARK    1  A    between atoms: C_2  and  C_4
REMARK    2  A    between atoms: C_7  and  N_8
REMARK    3  A    between atoms: N_8  and  C_9
REMARK    4  A    between atoms: C_9  and  C_10
REMARK                            x       y       z     vdW  Elec       q    Type
REMARK                         _______ _______ _______ _____ _____    ______ ____
ROOT
ATOM      1  C   UNL     1      48.107   6.686  14.328  0.00  0.00    +0.000 A 
ATOM      2  N   UNL     1      47.294   7.107  13.329  0.00  0.00    +0.000 NA
ATOM      3  C   UNL     1      46.374   6.205  12.915  0.00  0.00    +0.000 A 
ATOM      4  C   UNL     1      46.219   4.928  13.438  0.00  0.00    +0.000 A 
ATOM      5  C   UNL     1      47.069   4.665  14.500  0.00  0.00    +0.000 A 
ATOM      6  N   UNL     1      48.028   5.497  14.953  0.00  0.00    +0.000 NA
ENDROOT
BRANCH   1   8
ATOM      7  N   UNL     1      50.454   7.362  14.160  0.00  0.00    +0.000 N 
ATOM      8  C   UNL     1      49.227   7.621  14.720  0.00  0.00    +0.000 C 
ATOM      9  O   UNL     1      49.093   8.568  15.493  0.00  0.00    +0.000 OA
ATOM     10  H   UNL     1      51.218   7.992  14.359  0.00  0.00    +0.000 HD
ATOM     11  H   UNL     1      50.558   6.619  13.476  0.00  0.00    +0.000 HD
ENDBRANCH   1   8
BRANCH   4  12
ATOM     12  N   UNL     1      45.340   3.964  12.980  0.00  0.00    +0.000 N 
ATOM     13  H   UNL     1      45.046   3.262  13.656  0.00  0.00    +0.000 HD
BRANCH  12  14
ATOM     14  C   UNL     1      44.296   4.324  12.020  0.00  0.00    +0.000 C 
BRANCH  14  15
ATOM     15  C   UNL     1      44.697   3.869  10.629  0.00  0.00    +0.000 A 
ATOM     16  C   UNL     1      45.220   4.789   9.718  0.00  0.00    +0.000 A 
ATOM     17  C   UNL     1      45.594   4.348   8.453  0.00  0.00    +0.000 A 
ATOM     18  C   UNL     1      45.431   3.008   8.125  0.00  0.00    +0.000 A 
ATOM     19  C   UNL     1      44.898   2.161   9.082  0.00  0.00    +0.000 A 
ATOM     20  N   UNL     1      44.532   2.557  10.322  0.00  0.00    +0.000 NA
ENDBRANCH  14  15
ENDBRANCH  12  14
ENDBRANCH   4  12
TORSDOF 4
ENDMDL
MODEL 8
REMARK VINA RESULT:    -5.315      4.777      7.794
REMARK INTER + INTRA:          -6.979
REMARK INTER:                  -6.707
REMARK INTRA:                  -0.272
REMARK UNBOUND:                -0.422
REMARK  Name = 
REMARK  4 active torsions:
REMARK  status: ('A' for Active; 'I' for Inactive)
REMARK    1  A    between atoms: C_2  and  C_4
REMARK    2  A    between atoms: C_7  and  N_8
REMARK    3  A    between atoms: N_8  and  C_9
REMARK    4  A    between atoms: C_9  and  C_10
REMARK                            x       y       z     vdW  Elec       q    Type
REMARK                         _______ _______ _______ _____ _____    ______ ____
ROOT
ATOM      1  C   UNL     1      49.741   3.485  17.131  0.00  0.00    +0.000 A 
ATOM      2  N   UNL     1      49.509   4.819  17.080  0.00  0.00    +0.000 NA
ATOM      3  C   UNL     1      48.403   5.186  16.392  0.00  0.00    +0.000 A 
ATOM      4  C   UNL     1      47.528   4.308  15.764  0.00  0.00    +0.000 A 
ATOM      5  C   UNL     1      47.852   2.976  15.963  0.00  0.00    +0.000 A 
ATOM      6  N   UNL     1      48.948   2.531  16.610  0.00  0.00    +0.000 NA
ENDROOT
BRANCH   1   8
ATOM      7  N   UNL     1      51.295   1.705  17.774  0.00  0.00    +0.000 N 
ATOM      8  C   UNL     1      51.036   3.054  17.779  0.00  0.00    +0.000 C 
ATOM      9  O   UNL     1      51.839   3.830  18.295  0.00  0.00    +0.000 OA
ATOM     10  H   UNL     1      52.172   1.380  18.155  0.00  0.00    +0.000 HD
ATOM     11  H   UNL     1      50.666   1.065  17.299  0.00  0.00    +0.000 HD
ENDBRANCH   1   8
BRANCH   4  12
ATOM     12  N   UNL     1      46.438   4.663  14.991  0.00  0.00    +0.000 N 
ATOM     13  H   UNL     1      45.698   5.181  15.462  0.00  0.00    +0.000 HD
BRANCH  12  14
ATOM     14  C   UNL     1      46.629   5.058  13.595  0.00  0.00    +0.000 C 
BRANCH  14  15
ATOM     15  C   UNL     1      45.380   4.740  12.795  0.00  0.00    +0.000 A 
ATOM     16  C   UNL     1      45.009   5.559  11.726  0.00  0.00    +0.000 A 
ATOM     17  C   UNL     1      43.866   5.241  10.998  0.00  0.00    +0.000 A 
ATOM     18  C   UNL     1      43.121   4.125  11.356  0.00  0.00    +0.000 A 
ATOM     19  C   UNL     1      43.551   3.369  12.434  0.00  0.00    +0.000 A 
ATOM     20  N   UNL     1      44.660   3.647  13.157  0.00  0.00    +0.000 NA
ENDBRANCH  14  15
ENDBRANCH  12  14
ENDBRANCH   4  12
TORSDOF 4
ENDMDL
MODEL 9
REMARK VINA RESULT:    -5.300      2.970      4.376
REMARK INTER + INTRA:          -6.962
REMARK INTER:                  -6.599
REMARK INTRA:                  -0.363
REMARK UNBOUND:                -0.422
REMARK  Name = 
REMARK  4 active torsions:
REMARK  status: ('A' for Active; 'I' for Inactive)
REMARK    1  A    between atoms: C_2  and  C_4
REMARK    2  A    between atoms: C_7  and  N_8
REMARK    3  A    between atoms: N_8  and  C_9
REMARK    4  A    between atoms: C_9  and  C_10
REMARK                            x       y       z     vdW  Elec       q    Type
REMARK                         _______ _______ _______ _____ _____    ______ ____
ROOT
ATOM      1  C   UNL     1      44.888   3.724  10.400  0.00  0.00    +0.000 A 
ATOM      2  N   UNL     1      45.064   3.048  11.561  0.00  0.00    +0.000 NA
ATOM      3  C   UNL     1      45.444   3.804  12.617  0.00  0.00    +0.000 A 
ATOM      4  C   UNL     1      45.652   5.177  12.579  0.00  0.00    +0.000 A 
ATOM      5  C   UNL     1      45.364   5.741  11.347  0.00  0.00    +0.000 A 
ATOM      6  N   UNL     1      45.008   5.055  10.242  0.00  0.00    +0.000 NA
ENDROOT
BRANCH   1   8
ATOM      7  N   UNL     1      44.352   3.583   8.015  0.00  0.00    +0.000 N 
ATOM      8  C   UNL     1      44.591   2.889   9.176  0.00  0.00    +0.000 C 
ATOM      9  O   UNL     1      44.554   1.660   9.175  0.00  0.00    +0.000 OA
ATOM     10  H   UNL     1      44.197   3.061   7.164  0.00  0.00    +0.000 HD
ATOM     11  H   UNL     1      44.439   4.594   7.996  0.00  0.00    +0.000 HD
ENDBRANCH   1   8
BRANCH   4  12
ATOM     12  N   UNL     1      46.116   5.957  13.623  0.00  0.00    +0.000 N 
ATOM     13  H   UNL     1      45.568   5.937  14.481  0.00  0.00    +0.000 HD
BRANCH  12  14
ATOM     14  C   UNL     1      47.555   6.090  13.852  0.00  0.00    +0.000 C 
BRANCH  14  15
ATOM     15  C   UNL     1      48.090   7.281  13.081  0.00  0.00    +0.000 A 
ATOM     16  C   UNL     1      49.264   7.159  12.334  0.00  0.00    +0.000 A 
ATOM     17  C   UNL     1      49.730   8.261  11.624  0.00  0.00    +0.000 A 
ATOM     18  C   UNL     1      49.022   9.455  11.681  0.00  0.00    +0.000 A 
ATOM     19  C   UNL     1      47.872   9.497  12.450  0.00  0.00    +0.000 A 
ATOM     20  N   UNL     1      47.389   8.442  13.146  0.00  0.00    +0.000 NA
ENDBRANCH  14  15
ENDBRANCH  12  14
ENDBRANCH   4  12
TORSDOF 4
ENDMDL
