MODEL 1
REMARK VINA RESULT:    -7.781      0.000      0.000
REMARK INTER + INTRA:         -10.655
REMARK INTER:                 -10.055
REMARK INTRA:                  -0.600
REMARK UNBOUND:                -0.600
REMARK  Name = 
REMARK  6 active torsions:
REMARK  status: ('A' for Active; 'I' for Inactive)
REMARK    1  A    between atoms: C_1  and  O_2
REMARK    2  A    between atoms: O_2  and  C_3
REMARK    3  A    between atoms: C_7  and  N_8
REMARK    4  A    between atoms: N_8  and  C_9
REMARK    5  A    between atoms: C_9  and  C_10
REMARK    6  A    between atoms: C_14  and  C_15
REMARK                            x       y       z     vdW  Elec       q    Type
REMARK                         _______ _______ _______ _____ _____    ______ ____
ROOT
ATOM      1  C   UNL     1      43.969   4.828  10.699  0.00  0.00    +0.000 A 
ATOM      2  C   UNL     1      43.267   3.834  11.382  0.00  0.00    +0.000 A 
ATOM      3  C   UNL     1      43.424   2.498  11.025  0.00  0.00    +0.000 A 
ATOM      4  C   UNL     1      44.290   2.147   9.983  0.00  0.00    +0.000 A 
ATOM      5  C   UNL     1      45.016   3.117   9.273  0.00  0.00    +0.000 A 
ATOM      6  C   UNL     1      44.853   4.459   9.666  0.00  0.00    +0.000 A 
ENDROOT
BRANCH   5   7
ATOM      7  C   UNL     1      45.885   2.754   8.132  0.00  0.00    +0.000 A 
ATOM      8  C   UNL     1      46.177   3.649   7.090  0.00  0.00    +0.000 A 
ATOM      9  C   UNL     1      46.972   3.255   6.014  0.00  0.00    +0.000 A 
ATOM     10  C   UNL     1      47.473   1.966   6.002  0.00  0.00    +0.000 A 
ATOM     11  N   UNL     1      47.232   1.066   6.974  0.00  0.00    +0.000 NA
ATOM     12  C   UNL     1      46.446   1.479   8.001  0.00  0.00    +0.000 A 
ENDBRANCH   5   7
BRANCH   1  13
ATOM     13  C   UNL     1      43.763   6.285  11.030  0.00  0.00    +0.000 C 
BRANCH  13  14
ATOM     14  N   UNL     1      44.043   6.540  12.433  0.00  0.00    +0.000 N 
ATOM     15  H   UNL     1      43.657   7.415  12.779  0.00  0.00    +0.000 HD
BRANCH  14  20
ATOM     16  C   UNL     1      46.906   4.878  14.159  0.00  0.00    +0.000 A 
ATOM     17  C   UNL     1      47.798   5.938  14.115  0.00  0.00    +0.000 A 
ATOM     18  N   UNL     1      47.539   7.125  13.515  0.00  0.00    +0.000 NA
ATOM     19  C   UNL     1      46.310   7.255  12.958  0.00  0.00    +0.000 A 
ATOM     20  C   UNL     1      45.321   6.263  12.939  0.00  0.00    +0.000 A 
ATOM     21  C   UNL     1      45.647   5.069  13.592  0.00  0.00    +0.000 A 
BRANCH  16  23
ATOM     22  C   UNL     1      47.514   3.901  16.215  0.00  0.00    +0.000 C 
ATOM     23  O   UNL     1      47.312   3.747  14.812  0.00  0.00    +0.000 OA
ENDBRANCH  16  23
ENDBRANCH  14  20
ENDBRANCH  13  14
ENDBRANCH   1  13
TORSDOF 5
ENDMDL
MODEL 2
REMARK VINA RESULT:    -7.687      1.746      2.300
REMARK INTER + INTRA:         -10.533
REMARK INTER:                  -9.694
REMARK INTRA:                  -0.840
REMARK UNBOUND:                -0.600
REMARK  Name = 
REMARK  6 active torsions:
REMARK  status: ('A' for Active; 'I' for Inactive)
REMARK    1  A    between atoms: C_1  and  O_2
REMARK    2  A    between atoms: O_2  and  C_3
REMARK    3  A    between atoms: C_7  and  N_8
REMARK    4  A    between atoms: N_8  and  C_9
REMARK    5  A    between atoms: C_9  and  C_10
REMARK    6  A    between atoms: C_14  and  C_15
REMARK                            x       y       z     vdW  Elec       q    Type
REMARK                         _______ _______ _______ _____ _____    ______ ____
ROOT
ATOM      1  C   UNL     1      44.021   4.972  10.988  0.00  0.00    +0.000 A 
ATOM      2  C   UNL     1      43.296   4.020  11.707  0.00  0.00    +0.000 A 
ATOM      3  C   UNL     1      43.375   2.675  11.358  0.00  0.00    +0.000 A 
ATOM      4  C   UNL     1      44.183   2.272  10.289  0.00  0.00    +0.000 A 
ATOM      5  C   UNL     1      44.929   3.199   9.543  0.00  0.00    +0.000 A 
ATOM      6  C   UNL     1      44.847   4.550   9.928  0.00  0.00    +0.000 A 
ENDROOT
BRANCH   5   7
ATOM      7  C   UNL     1      45.737   2.784   8.375  0.00  0.00    +0.000 A 
ATOM      8  C   UNL     1      46.034   3.653   7.314  0.00  0.00    +0.000 A 
ATOM      9  C   UNL     1      46.768   3.211   6.213  0.00  0.00    +0.000 A 
ATOM     10  C   UNL     1      47.205   1.899   6.197  0.00  0.00    +0.000 A 
ATOM     11  N   UNL     1      46.955   1.021   7.187  0.00  0.00    +0.000 NA
ATOM     12  C   UNL     1      46.229   1.481   8.238  0.00  0.00    +0.000 A 
ENDBRANCH   5   7
BRANCH   1  13
ATOM     13  C   UNL     1      43.901   6.440  11.312  0.00  0.00    +0.000 C 
BRANCH  13  14
ATOM     14  N   UNL     1      44.488   6.733  12.608  0.00  0.00    +0.000 N 
ATOM     15  H   UNL     1      44.022   7.483  13.113  0.00  0.00    +0.000 HD
BRANCH  14  20
ATOM     16  C   UNL     1      48.085   7.626  12.160  0.00  0.00    +0.000 A 
ATOM     17  C   UNL     1      48.635   6.571  12.871  0.00  0.00    +0.000 A 
ATOM     18  N   UNL     1      47.906   5.632  13.522  0.00  0.00    +0.000 NA
ATOM     19  C   UNL     1      46.560   5.752  13.427  0.00  0.00    +0.000 A 
ATOM     20  C   UNL     1      45.884   6.766  12.737  0.00  0.00    +0.000 A 
ATOM     21  C   UNL     1      46.696   7.692  12.072  0.00  0.00    +0.000 A 
BRANCH  16  23
ATOM     22  C   UNL     1      50.291   8.007  11.425  0.00  0.00    +0.000 C 
ATOM     23  O   UNL     1      48.954   8.487  11.547  0.00  0.00    +0.000 OA
ENDBRANCH  16  23
ENDBRANCH  14  20
ENDBRANCH  13  14
ENDBRANCH   1  13
TORSDOF 5
ENDMDL
MODEL 3
REMARK VINA RESULT:    -7.259      2.632      6.660
REMARK INTER + INTRA:          -9.980
REMARK INTER:                  -9.437
REMARK INTRA:                  -0.543
REMARK UNBOUND:                -0.600
REMARK  Name = 
REMARK  6 active torsions:
REMARK  status: ('A' for Active; 'I' for Inactive)
REMARK    1  A    between atoms: C_1  and  O_2
REMARK    2  A    between atoms: O_2  and  C_3
REMARK    3  A    between atoms: C_7  and  N_8
REMARK    4  A    between atoms: N_8  and  C_9
REMARK    5  A    between atoms: C_9  and  C_10
REMARK    6  A    between atoms: C_14  and  C_15
REMARK                            x       y       z     vdW  Elec       q    Type
REMARK                         _______ _______ _______ _____ _____    ______ ____
ROOT
ATOM      1  C   UNL     1      44.711   4.028  12.145  0.00  0.00    +0.000 A 
ATOM      2  C   UNL     1      45.632   3.273  12.874  0.00  0.00    +0.000 A 
ATOM      3  C   UNL     1      46.733   3.893  13.460  0.00  0.00    +0.000 A 
ATOM      4  C   UNL     1      46.917   5.273  13.322  0.00  0.00    +0.000 A 
ATOM      5  C   UNL     1      46.012   6.067  12.598  0.00  0.00    +0.000 A 
ATOM      6  C   UNL     1      44.898   5.420  12.032  0.00  0.00    +0.000 A 
ENDROOT
BRANCH   5   7
ATOM      7  C   UNL     1      46.237   7.516  12.400  0.00  0.00    +0.000 A 
ATOM      8  C   UNL     1      47.472   8.131  12.661  0.00  0.00    +0.000 A 
ATOM      9  C   UNL     1      47.631   9.507  12.495  0.00  0.00    +0.000 A 
ATOM     10  C   UNL     1      46.549  10.248  12.060  0.00  0.00    +0.000 A 
ATOM     11  N   UNL     1      45.343   9.713  11.789  0.00  0.00    +0.000 NA
ATOM     12  C   UNL     1      45.219   8.373  11.971  0.00  0.00    +0.000 A 
ENDBRANCH   5   7
BRANCH   1  13
ATOM     13  C   UNL     1      43.547   3.365  11.452  0.00  0.00    +0.000 C 
BRANCH  13  14
ATOM     14  N   UNL     1      44.005   2.296  10.580  0.00  0.00    +0.000 N 
ATOM     15  H   UNL     1      44.397   1.498  11.075  0.00  0.00    +0.000 HD
BRANCH  14  20
ATOM     16  C   UNL     1      46.379   2.166   7.702  0.00  0.00    +0.000 A 
ATOM     17  C   UNL     1      46.211   3.468   7.255  0.00  0.00    +0.000 A 
ATOM     18  N   UNL     1      45.340   4.351   7.800  0.00  0.00    +0.000 NA
ATOM     19  C   UNL     1      44.626   3.906   8.863  0.00  0.00    +0.000 A 
ATOM     20  C   UNL     1      44.707   2.619   9.410  0.00  0.00    +0.000 A 
ATOM     21  C   UNL     1      45.639   1.763   8.812  0.00  0.00    +0.000 A 
BRANCH  16  23
ATOM     22  C   UNL     1      48.110   2.096   6.105  0.00  0.00    +0.000 C 
ATOM     23  O   UNL     1      47.306   1.398   7.053  0.00  0.00    +0.000 OA
ENDBRANCH  16  23
ENDBRANCH  14  20
ENDBRANCH  13  14
ENDBRANCH   1  13
TORSDOF 5
ENDMDL
MODEL 4
REMARK VINA RESULT:    -7.115      2.653      6.418
REMARK INTER + INTRA:          -9.794
REMARK INTER:                  -9.050
REMARK INTRA:                  -0.744
REMARK UNBOUND:                -0.600
REMARK  Name = 
REMARK  6 active torsions:
REMARK  status: ('A' for Active; 'I' for Inactive)
REMARK    1  A    between atoms: C_1  and  O_2
REMARK    2  A    between atoms: O_2  and  C_3
REMARK    3  A    between atoms: C_7  and  N_8
REMARK    4  A    between atoms: N_8  and  C_9
REMARK    5  A    between atoms: C_9  and  C_10
REMARK    6  A    between atoms: C_14  and  C_15
REMARK                            x       y       z     vdW  Elec       q    Type
REMARK                         _______ _______ _______ _____ _____    ______ ____
ROOT
ATOM      1  C   UNL     1      45.251   5.598  12.065  0.00  0.00    +0.000 A 
ATOM      2  C   UNL     1      45.214   4.593  13.033  0.00  0.00    +0.000 A 
ATOM      3  C   UNL     1      46.290   4.419  13.899  0.00  0.00    +0.000 A 
ATOM      4  C   UNL     1      47.410   5.252  13.804  0.00  0.00    +0.000 A 
ATOM      5  C   UNL     1      47.485   6.276  12.846  0.00  0.00    +0.000 A 
ATOM      6  C   UNL     1      46.377   6.444  11.995  0.00  0.00    +0.000 A 
ENDROOT
BRANCH   5   7
ATOM      7  C   UNL     1      48.693   7.119  12.704  0.00  0.00    +0.000 A 
ATOM      8  C   UNL     1      49.144   7.589  11.461  0.00  0.00    +0.000 A 
ATOM      9  C   UNL     1      50.309   8.352  11.367  0.00  0.00    +0.000 A 
ATOM     10  C   UNL     1      51.002   8.641  12.528  0.00  0.00    +0.000 A 
ATOM     11  N   UNL     1      50.614   8.223  13.748  0.00  0.00    +0.000 NA
ATOM     12  C   UNL     1      49.483   7.474  13.802  0.00  0.00    +0.000 A 
ENDBRANCH   5   7
BRANCH   1  13
ATOM     13  C   UNL     1      44.122   5.762  11.079  0.00  0.00    +0.000 C 
BRANCH  13  14
ATOM     14  N   UNL     1      43.746   4.481  10.507  0.00  0.00    +0.000 N 
ATOM     15  H   UNL     1      43.397   3.810  11.188  0.00  0.00    +0.000 HD
BRANCH  14  20
ATOM     16  C   UNL     1      45.706   2.002   8.520  0.00  0.00    +0.000 A 
ATOM     17  C   UNL     1      46.397   2.899   7.721  0.00  0.00    +0.000 A 
ATOM     18  N   UNL     1      46.219   4.241   7.758  0.00  0.00    +0.000 NA
ATOM     19  C   UNL     1      45.321   4.699   8.664  0.00  0.00    +0.000 A 
ATOM     20  C   UNL     1      44.565   3.898   9.530  0.00  0.00    +0.000 A 
ATOM     21  C   UNL     1      44.811   2.522   9.453  0.00  0.00    +0.000 A 
BRANCH  16  23
ATOM     22  C   UNL     1      47.006   0.388   7.398  0.00  0.00    +0.000 C 
ATOM     23  O   UNL     1      46.005   0.675   8.373  0.00  0.00    +0.000 OA
ENDBRANCH  16  23
ENDBRANCH  14  20
ENDBRANCH  13  14
ENDBRANCH   1  13
TORSDOF 5
ENDMDL
MODEL 5
REMARK VINA RESULT:    -7.096      2.425      6.671
REMARK INTER + INTRA:          -9.770
REMARK INTER:                  -9.280
REMARK INTRA:                  -0.489
REMARK UNBOUND:                -0.600
REMARK  Name = 
REMARK  6 active torsions:
REMARK  status: ('A' for Active; 'I' for Inactive)
REMARK    1  A    between atoms: C_1  and  O_2
REMARK    2  A    between atoms: O_2  and  C_3
REMARK    3  A    between atoms: C_7  and  N_8
REMARK    4  A    between atoms: N_8  and  C_9
REMARK    5  A    between atoms: C_9  and  C_10
REMARK    6  A    between atoms: C_14  and  C_15
REMARK                            x       y       z     vdW  Elec       q    Type
REMARK                         _______ _______ _______ _____ _____    ______ ____
ROOT
ATOM      1  C   UNL     1      44.514   5.558  12.067  0.00  0.00    +0.000 A 
ATOM      2  C   UNL     1      44.974   6.811  11.658  0.00  0.00    +0.000 A 
ATOM      3  C   UNL     1      46.121   7.354  12.231  0.00  0.00    +0.000 A 
ATOM      4  C   UNL     1      46.817   6.644  13.214  0.00  0.00    +0.000 A 
ATOM      5  C   UNL     1      46.388   5.380  13.651  0.00  0.00    +0.000 A 
ATOM      6  C   UNL     1      45.237   4.846  13.043  0.00  0.00    +0.000 A 
ENDROOT
BRANCH   5   7
ATOM      7  C   UNL     1      47.089   4.655  14.734  0.00  0.00    +0.000 A 
ATOM      8  C   UNL     1      47.542   5.291  15.900  0.00  0.00    +0.000 A 
ATOM      9  C   UNL     1      48.230   4.577  16.881  0.00  0.00    +0.000 A 
ATOM     10  C   UNL     1      48.447   3.226  16.682  0.00  0.00    +0.000 A 
ATOM     11  N   UNL     1      48.032   2.560  15.587  0.00  0.00    +0.000 NA
ATOM     12  C   UNL     1      47.374   3.288  14.648  0.00  0.00    +0.000 A 
ENDBRANCH   5   7
BRANCH   1  13
ATOM     13  C   UNL     1      43.239   4.982  11.502  0.00  0.00    +0.000 C 
BRANCH  13  14
ATOM     14  N   UNL     1      43.445   3.617  11.051  0.00  0.00    +0.000 N 
ATOM     15  H   UNL     1      43.634   2.957  11.803  0.00  0.00    +0.000 HD
BRANCH  14  20
ATOM     16  C   UNL     1      45.688   2.010   8.536  0.00  0.00    +0.000 A 
ATOM     17  C   UNL     1      45.915   3.123   7.742  0.00  0.00    +0.000 A 
ATOM     18  N   UNL     1      45.342   4.334   7.950  0.00  0.00    +0.000 NA
ATOM     19  C   UNL     1      44.523   4.428   9.026  0.00  0.00    +0.000 A 
ATOM     20  C   UNL     1      44.217   3.382   9.905  0.00  0.00    +0.000 A 
ATOM     21  C   UNL     1      44.856   2.164   9.644  0.00  0.00    +0.000 A 
BRANCH  16  23
ATOM     22  C   UNL     1      47.326   1.003   7.175  0.00  0.00    +0.000 C 
ATOM     23  O   UNL     1      46.349   0.860   8.203  0.00  0.00    +0.000 OA
ENDBRANCH  16  23
ENDBRANCH  14  20
ENDBRANCH  13  14
ENDBRANCH   1  13
TORSDOF 5
ENDMDL
MODEL 6
REMARK VINA RESULT:    -6.789      2.546      7.398
REMARK INTER + INTRA:          -9.373
REMARK INTER:                  -8.650
REMARK INTRA:                  -0.724
REMARK UNBOUND:                -0.600
REMARK  Name = 
REMARK  6 active torsions:
REMARK  status: ('A' for Active; 'I' for Inactive)
REMARK    1  A    between atoms: C_1  and  O_2
REMARK    2  A    between atoms: O_2  and  C_3
REMARK    3  A    between atoms: C_7  and  N_8
REMARK    4  A    between atoms: N_8  and  C_9
REMARK    5  A    between atoms: C_9  and  C_10
REMARK    6  A    between atoms: C_14  and  C_15
REMARK                            x       y       z     vdW  Elec       q    Type
REMARK                         _______ _______ _______ _____ _____    ______ ____
ROOT
ATOM      1  C   UNL     1      46.091   6.214  12.267  0.00  0.00    +0.000 A 
ATOM      2  C   UNL     1      47.078   7.028  11.709  0.00  0.00    +0.000 A 
ATOM      3  C   UNL     1      48.290   7.208  12.371  0.00  0.00    +0.000 A 
ATOM      4  C   UNL     1      48.523   6.571  13.594  0.00  0.00    +0.000 A 
ATOM      5  C   UNL     1      47.557   5.743  14.187  0.00  0.00    +0.000 A 
ATOM      6  C   UNL     1      46.348   5.562  13.490  0.00  0.00    +0.000 A 
ENDROOT
BRANCH   5   7
ATOM      7  C   UNL     1      47.778   5.117  15.510  0.00  0.00    +0.000 A 
ATOM      8  C   UNL     1      47.141   3.928  15.899  0.00  0.00    +0.000 A 
ATOM      9  C   UNL     1      47.350   3.390  17.169  0.00  0.00    +0.000 A 
ATOM     10  C   UNL     1      48.205   4.051  18.032  0.00  0.00    +0.000 A 
ATOM     11  N   UNL     1      48.846   5.191  17.713  0.00  0.00    +0.000 NA
ATOM     12  C   UNL     1      48.613   5.692  16.473  0.00  0.00    +0.000 A 
ENDBRANCH   5   7
BRANCH   1  13
ATOM     13  C   UNL     1      44.750   6.057  11.596  0.00  0.00    +0.000 C 
BRANCH  13  14
ATOM     14  N   UNL     1      44.909   5.829  10.170  0.00  0.00    +0.000 N 
ATOM     15  H   UNL     1      44.304   6.405   9.589  0.00  0.00    +0.000 HD
BRANCH  14  20
ATOM     16  C   UNL     1      45.718   2.884   8.024  0.00  0.00    +0.000 A 
ATOM     17  C   UNL     1      45.020   1.925   8.741  0.00  0.00    +0.000 A 
ATOM     18  N   UNL     1      44.357   2.175   9.896  0.00  0.00    +0.000 NA
ATOM     19  C   UNL     1      44.380   3.459  10.330  0.00  0.00    +0.000 A 
ATOM     20  C   UNL     1      45.043   4.517   9.696  0.00  0.00    +0.000 A 
ATOM     21  C   UNL     1      45.692   4.194   8.499  0.00  0.00    +0.000 A 
BRANCH  16  23
ATOM     22  C   UNL     1      47.753   2.539   6.887  0.00  0.00    +0.000 C 
ATOM     23  O   UNL     1      46.329   2.478   6.869  0.00  0.00    +0.000 OA
ENDBRANCH  16  23
ENDBRANCH  14  20
ENDBRANCH  13  14
ENDBRANCH   1  13
TORSDOF 5
ENDMDL
MODEL 7
REMARK VINA RESULT:    -6.672      2.271      3.478
REMARK INTER + INTRA:          -9.221
REMARK INTER:                  -8.725
REMARK INTRA:                  -0.497
REMARK UNBOUND:                -0.600
REMARK  Name = 
REMARK  6 active torsions:
REMARK  status: ('A' for Active; 'I' for Inactive)
REMARK    1  A    between atoms: C_1  and  O_2
REMARK    2  A    between atoms: O_2  and  C_3
REMARK    3  A    between atoms: C_7  and  N_8
REMARK    4  A    between atoms: N_8  and  C_9
REMARK    5  A    between atoms: C_9  and  C_10
REMARK    6  A    between atoms: C_14  and  C_15
REMARK                            x       y       z     vdW  Elec       q    Type
REMARK                         _______ _______ _______ _____ _____    ______ ____
ROOT
ATOM      1  C   UNL     1      45.305   5.071  12.916  0.00  0.00    +0.000 A 
ATOM      2  C   UNL     1      43.972   5.470  13.027  0.00  0.00    +0.000 A 
ATOM      3  C   UNL     1      43.101   5.297  11.954  0.00  0.00    +0.000 A 
ATOM      4  C   UNL     1      43.558   4.719  10.765  0.00  0.00    +0.000 A 
ATOM      5  C   UNL     1      44.890   4.302  10.615  0.00  0.00    +0.000 A 
ATOM      6  C   UNL     1      45.746   4.471  11.720  0.00  0.00    +0.000 A 
ENDROOT
BRANCH   5   7
ATOM      7  C   UNL     1      45.390   3.746   9.339  0.00  0.00    +0.000 A 
ATOM      8  C   UNL     1      45.456   2.366   9.089  0.00  0.00    +0.000 A 
ATOM      9  C   UNL     1      45.968   1.883   7.885  0.00  0.00    +0.000 A 
ATOM     10  C   UNL     1      46.400   2.794   6.940  0.00  0.00    +0.000 A 
ATOM     11  N   UNL     1      46.357   4.128   7.120  0.00  0.00    +0.000 NA
ATOM     12  C   UNL     1      45.862   4.564   8.307  0.00  0.00    +0.000 A 
ENDBRANCH   5   7
BRANCH   1  13
ATOM     13  C   UNL     1      46.277   5.307  14.044  0.00  0.00    +0.000 C 
BRANCH  13  14
ATOM     14  N   UNL     1      46.077   4.340  15.110  0.00  0.00    +0.000 N 
ATOM     15  H   UNL     1      45.195   4.447  15.605  0.00  0.00    +0.000 HD
BRANCH  14  20
ATOM     16  C   UNL     1      49.033   2.633  16.622  0.00  0.00    +0.000 A 
ATOM     17  C   UNL     1      49.062   3.326  17.821  0.00  0.00    +0.000 A 
ATOM     18  N   UNL     1      48.219   4.339  18.134  0.00  0.00    +0.000 NA
ATOM     19  C   UNL     1      47.285   4.646  17.201  0.00  0.00    +0.000 A 
ATOM     20  C   UNL     1      47.148   4.020  15.955  0.00  0.00    +0.000 A 
ATOM     21  C   UNL     1      48.040   2.970  15.704  0.00  0.00    +0.000 A 
BRANCH  16  23
ATOM     22  C   UNL     1      51.127   1.752  17.247  0.00  0.00    +0.000 C 
ATOM     23  O   UNL     1      49.946   1.627  16.458  0.00  0.00    +0.000 OA
ENDBRANCH  16  23
ENDBRANCH  14  20
ENDBRANCH  13  14
ENDBRANCH   1  13
TORSDOF 5
ENDMDL
MODEL 8
REMARK VINA RESULT:    -6.521      2.392      4.519
REMARK INTER + INTRA:          -9.027
REMARK INTER:                  -8.419
REMARK INTRA:                  -0.608
REMARK UNBOUND:                -0.600
REMARK  Name = 
REMARK  6 active torsions:
REMARK  status: ('A' for Active; 'I' for Inactive)
REMARK    1  A    between atoms: C_1  and  O_2
REMARK    2  A    between atoms: O_2  and  C_3
REMARK    3  A    between atoms: C_7  and  N_8
REMARK    4  A    between atoms: N_8  and  C_9
REMARK    5  A    between atoms: C_9  and  C_10
REMARK    6  A    between atoms: C_14  and  C_15
REMARK                            x       y       z     vdW  Elec       q    Type
REMARK                         _______ _______ _______ _____ _____    ______ ____
ROOT
ATOM      1  C   UNL     1      47.156   7.137  13.139  0.00  0.00    +0.000 A 
ATOM      2  C   UNL     1      46.413   8.318  13.137  0.00  0.00    +0.000 A 
ATOM      3  C   UNL     1      45.305   8.443  12.302  0.00  0.00    +0.000 A 
ATOM      4  C   UNL     1      44.933   7.385  11.467  0.00  0.00    +0.000 A 
ATOM      5  C   UNL     1      45.654   6.180  11.441  0.00  0.00    +0.000 A 
ATOM      6  C   UNL     1      46.757   6.072  12.307  0.00  0.00    +0.000 A 
ENDROOT
BRANCH   5   7
ATOM      7  C   UNL     1      45.298   5.083  10.514  0.00  0.00    +0.000 A 
ATOM      8  C   UNL     1      45.688   5.076   9.166  0.00  0.00    +0.000 A 
ATOM      9  C   UNL     1      45.300   4.039   8.317  0.00  0.00    +0.000 A 
ATOM     10  C   UNL     1      44.532   3.014   8.837  0.00  0.00    +0.000 A 
ATOM     11  N   UNL     1      44.133   2.964  10.122  0.00  0.00    +0.000 NA
ATOM     12  C   UNL     1      44.518   3.994  10.918  0.00  0.00    +0.000 A 
ENDBRANCH   5   7
BRANCH   1  13
ATOM     13  C   UNL     1      48.395   7.006  13.990  0.00  0.00    +0.000 C 
BRANCH  13  14
ATOM     14  N   UNL     1      48.045   6.878  15.394  0.00  0.00    +0.000 N 
ATOM     15  H   UNL     1      48.351   7.660  15.969  0.00  0.00    +0.000 HD
BRANCH  14  20
ATOM     16  C   UNL     1      49.407   4.059  17.427  0.00  0.00    +0.000 A 
ATOM     17  C   UNL     1      48.521   3.077  17.013  0.00  0.00    +0.000 A 
ATOM     18  N   UNL     1      47.488   3.296  16.163  0.00  0.00    +0.000 NA
ATOM     19  C   UNL     1      47.364   4.560  15.690  0.00  0.00    +0.000 A 
ATOM     20  C   UNL     1      48.194   5.636  16.027  0.00  0.00    +0.000 A 
ATOM     21  C   UNL     1      49.251   5.338  16.895  0.00  0.00    +0.000 A 
BRANCH  16  23
ATOM     22  C   UNL     1      51.439   2.896  17.689  0.00  0.00    +0.000 C 
ATOM     23  O   UNL     1      50.405   3.679  18.282  0.00  0.00    +0.000 OA
ENDBRANCH  16  23
ENDBRANCH  14  20
ENDBRANCH  13  14
ENDBRANCH   1  13
TORSDOF 5
ENDMDL
MODEL 9
REMARK VINA RESULT:    -6.414      1.884      2.426
REMARK INTER + INTRA:          -8.889
REMARK INTER:                  -8.147
REMARK INTRA:                  -0.741
REMARK UNBOUND:                -0.600
REMARK  Name = 
REMARK  6 active torsions:
REMARK  status: ('A' for Active; 'I' for Inactive)
REMARK    1  A    between atoms: C_1  and  O_2
REMARK    2  A    between atoms: O_2  and  C_3
REMARK    3  A    between atoms: C_7  and  N_8
REMARK    4  A    between atoms: N_8  and  C_9
REMARK    5  A    between atoms: C_9  and  C_10
REMARK    6  A    between atoms: C_14  and  C_15
REMARK                            x       y       z     vdW  Elec       q    Type
REMARK                         _______ _______ _______ _____ _____    ______ ____
ROOT
ATOM      1  C   UNL     1      44.552   5.436  12.122  0.00  0.00    +0.000 A 
ATOM      2  C   UNL     1      43.626   4.600  12.748  0.00  0.00    +0.000 A 
ATOM      3  C   UNL     1      43.318   3.361  12.191  0.00  0.00    +0.000 A 
ATOM      4  C   UNL     1      43.939   2.950  11.006  0.00  0.00    +0.000 A 
ATOM      5  C   UNL     1      44.877   3.762  10.348  0.00  0.00    +0.000 A 
ATOM      6  C   UNL     1      45.185   5.001  10.941  0.00  0.00    +0.000 A 
ENDROOT
BRANCH   5   7
ATOM      7  C   UNL     1      45.489   3.356   9.064  0.00  0.00    +0.000 A 
ATOM      8  C   UNL     1      45.735   2.013   8.735  0.00  0.00    +0.000 A 
ATOM      9  C   UNL     1      46.347   1.676   7.528  0.00  0.00    +0.000 A 
ATOM     10  C   UNL     1      46.697   2.693   6.659  0.00  0.00    +0.000 A 
ATOM     11  N   UNL     1      46.481   3.997   6.918  0.00  0.00    +0.000 NA
ATOM     12  C   UNL     1      45.893   4.291   8.106  0.00  0.00    +0.000 A 
ENDBRANCH   5   7
BRANCH   1  13
ATOM     13  C   UNL     1      44.852   6.807  12.677  0.00  0.00    +0.000 C 
BRANCH  13  14
ATOM     14  N   UNL     1      45.941   7.432  11.947  0.00  0.00    +0.000 N 
ATOM     15  H   UNL     1      46.104   7.033  11.025  0.00  0.00    +0.000 HD
BRANCH  14  20
ATOM     16  C   UNL     1      48.934   7.248  14.170  0.00  0.00    +0.000 A 
ATOM     17  C   UNL     1      49.303   8.583  14.108  0.00  0.00    +0.000 A 
ATOM     18  N   UNL     1      48.670   9.511  13.349  0.00  0.00    +0.000 NA
ATOM     19  C   UNL     1      47.599   9.073  12.643  0.00  0.00    +0.000 A 
ATOM     20  C   UNL     1      47.125   7.755  12.625  0.00  0.00    +0.000 A 
ATOM     21  C   UNL     1      47.813   6.852  13.444  0.00  0.00    +0.000 A 
BRANCH  16  23
ATOM     22  C   UNL     1      50.503   7.118  15.924  0.00  0.00    +0.000 C 
ATOM     23  O   UNL     1      49.667   6.436  14.991  0.00  0.00    +0.000 OA
ENDBRANCH  16  23
ENDBRANCH  14  20
ENDBRANCH  13  14
ENDBRANCH   1  13
TORSDOF 5
ENDMDL
