MODEL 1
REMARK VINA RESULT:    -6.238      0.000      0.000
REMARK INTER + INTRA:          -9.683
REMARK INTER:                  -8.609
REMARK INTRA:                  -1.075
REMARK UNBOUND:                -1.075
REMARK  Name = 
REMARK  10 active torsions:
REMARK  status: ('A' for Active; 'I' for Inactive)
REMARK    1  A    between atoms: C_1  and  C_2
REMARK    2  A    between atoms: C_2  and  C_3
REMARK    3  A    between atoms: C_2  and  C_4
REMARK    4  A    between atoms: C_2  and  C_5
REMARK    5  A    between atoms: C_8  and  C_9
REMARK    6  A    between atoms: N_16  and  C_17
REMARK    7  A    between atoms: C_17  and  C_18
REMARK    8  A    between atoms: C_21  and  C_22
REMARK    9  A    between atoms: C_22  and  C_23
REMARK   10  A    between atoms: C_23  and  N_24
REMARK                            x       y       z     vdW  Elec       q    Type
REMARK                         _______ _______ _______ _____ _____    ______ ____
ROOT
ATOM      1  C   UNL     1      45.085   6.180  12.057  0.00  0.00    +0.000 A 
ATOM      2  N   UNL     1      44.431   7.270  11.692  0.00  0.00    +0.000 NA
ATOM      3  C   UNL     1      45.258   8.336  11.864  0.00  0.00    +0.000 A 
ATOM      4  C   UNL     1      45.013   9.696  11.638  0.00  0.00    +0.000 A 
ATOM      5  C   UNL     1      46.051  10.553  11.932  0.00  0.00    +0.000 A 
ATOM      6  N   UNL     1      47.246  10.160  12.436  0.00  0.00    +0.000 NA
ATOM      7  C   UNL     1      47.472   8.842  12.658  0.00  0.00    +0.000 A 
ATOM      8  C   UNL     1      46.484   7.912  12.355  0.00  0.00    +0.000 A 
ATOM      9  N   UNL     1      46.399   6.515  12.411  0.00  0.00    +0.000 N 
ENDROOT
BRANCH   4  10
ATOM     10  C   UNL     1      43.729  10.206  11.122  0.00  0.00    +0.000 C 
ATOM     11  N   UNL     1      43.280   9.692   9.940  0.00  0.00    +0.000 N 
ATOM     12  O   UNL     1      43.090  11.050  11.741  0.00  0.00    +0.000 OA
ATOM     13  H   UNL     1      43.815   8.985   9.437  0.00  0.00    +0.000 HD
ATOM     14  H   UNL     1      42.398  10.008   9.565  0.00  0.00    +0.000 HD
ENDBRANCH   4  10
BRANCH   1  16
ATOM     15  C   UNL     1      43.396   4.914  10.748  0.00  0.00    +0.000 C 
ATOM     16  C   UNL     1      44.355   4.841  11.949  0.00  0.00    +0.000 C 
ATOM     17  C   UNL     1      43.482   4.657  13.231  0.00  0.00    +0.000 C 
ATOM     18  C   UNL     1      45.234   3.597  11.862  0.00  0.00    +0.000 C 
ENDBRANCH   1  16
BRANCH   9  19
ATOM     19  C   UNL     1      47.506   5.649  12.857  0.00  0.00    +0.000 C 
BRANCH  19  20
ATOM     20  C   UNL     1      47.562   5.447  14.362  0.00  0.00    +0.000 A 
ATOM     21  C   UNL     1      48.356   6.266  15.179  0.00  0.00    +0.000 A 
ATOM     22  C   UNL     1      48.723   5.855  16.466  0.00  0.00    +0.000 A 
ATOM     23  C   UNL     1      48.223   4.661  16.989  0.00  0.00    +0.000 A 
ATOM     24  C   UNL     1      47.213   4.000  16.276  0.00  0.00    +0.000 A 
ATOM     25  C   UNL     1      46.893   4.381  14.969  0.00  0.00    +0.000 A 
BRANCH  23  26
ATOM     26  C   UNL     1      48.917   3.931  18.121  0.00  0.00    +0.000 C 
BRANCH  26  27
ATOM     27  C   UNL     1      48.928   4.575  19.511  0.00  0.00    +0.000 C 
BRANCH  27  28
ATOM     28  N   UNL     1      48.418   3.621  20.501  0.00  0.00    +0.000 NA
ATOM     29  H   UNL     1      47.425   3.781  20.663  0.00  0.00    +0.000 HD
ATOM     30  H   UNL     1      48.887   3.761  21.395  0.00  0.00    +0.000 HD
ENDBRANCH  27  28
ENDBRANCH  26  27
ENDBRANCH  23  26
ENDBRANCH  19  20
ENDBRANCH   9  19
TORSDOF 7
ENDMDL
MODEL 2
REMARK VINA RESULT:    -5.987      3.469      5.505
REMARK INTER + INTRA:          -9.336
REMARK INTER:                  -7.870
REMARK INTRA:                  -1.466
REMARK UNBOUND:                -1.075
REMARK  Name = 
REMARK  10 active torsions:
REMARK  status: ('A' for Active; 'I' for Inactive)
REMARK    1  A    between atoms: C_1  and  C_2
REMARK    2  A    between atoms: C_2  and  C_3
REMARK    3  A    between atoms: C_2  and  C_4
REMARK    4  A    between atoms: C_2  and  C_5
REMARK    5  A    between atoms: C_8  and  C_9
REMARK    6  A    between atoms: N_16  and  C_17
REMARK    7  A    between atoms: C_17  and  C_18
REMARK    8  A    between atoms: C_21  and  C_22
REMARK    9  A    between atoms: C_22  and  C_23
REMARK   10  A    between atoms: C_23  and  N_24
REMARK                            x       y       z     vdW  Elec       q    Type
REMARK                         _______ _______ _______ _____ _____    ______ ____
ROOT
ATOM      1  C   UNL     1      47.782   4.928  16.001  0.00  0.00    +0.000 A 
ATOM      2  N   UNL     1      46.837   4.427  15.224  0.00  0.00    +0.000 NA
ATOM      3  C   UNL     1      46.825   5.137  14.064  0.00  0.00    +0.000 A 
ATOM      4  C   UNL     1      45.992   4.998  12.947  0.00  0.00    +0.000 A 
ATOM      5  C   UNL     1      46.207   5.892  11.920  0.00  0.00    +0.000 A 
ATOM      6  N   UNL     1      47.134   6.879  11.948  0.00  0.00    +0.000 NA
ATOM      7  C   UNL     1      47.932   7.010  13.037  0.00  0.00    +0.000 A 
ATOM      8  C   UNL     1      47.798   6.125  14.101  0.00  0.00    +0.000 A 
ATOM      9  N   UNL     1      48.464   5.946  15.320  0.00  0.00    +0.000 N 
ENDROOT
BRANCH   4  10
ATOM     10  C   UNL     1      44.939   3.971  12.852  0.00  0.00    +0.000 C 
ATOM     11  N   UNL     1      45.332   2.695  12.564  0.00  0.00    +0.000 N 
ATOM     12  O   UNL     1      43.761   4.255  13.037  0.00  0.00    +0.000 OA
ATOM     13  H   UNL     1      46.315   2.469  12.419  0.00  0.00    +0.000 HD
ATOM     14  H   UNL     1      44.638   1.965  12.506  0.00  0.00    +0.000 HD
ENDBRANCH   4  10
BRANCH   1  16
ATOM     15  C   UNL     1      47.246   2.941  17.391  0.00  0.00    +0.000 C 
ATOM     16  C   UNL     1      47.991   4.288  17.374  0.00  0.00    +0.000 C 
ATOM     17  C   UNL     1      47.321   5.204  18.446  0.00  0.00    +0.000 C 
ATOM     18  C   UNL     1      49.438   4.108  17.824  0.00  0.00    +0.000 C 
ENDBRANCH   1  16
BRANCH   9  19
ATOM     19  C   UNL     1      49.601   6.777  15.756  0.00  0.00    +0.000 C 
BRANCH  19  20
ATOM     20  C   UNL     1      49.248   7.786  16.836  0.00  0.00    +0.000 A 
ATOM     21  C   UNL     1      49.827   7.721  18.112  0.00  0.00    +0.000 A 
ATOM     22  C   UNL     1      49.234   8.368  19.203  0.00  0.00    +0.000 A 
ATOM     23  C   UNL     1      48.106   9.168  19.013  0.00  0.00    +0.000 A 
ATOM     24  C   UNL     1      47.710   9.450  17.698  0.00  0.00    +0.000 A 
ATOM     25  C   UNL     1      48.267   8.756  16.619  0.00  0.00    +0.000 A 
BRANCH  23  26
ATOM     26  C   UNL     1      47.157   9.494  20.148  0.00  0.00    +0.000 C 
BRANCH  26  27
ATOM     27  C   UNL     1      46.689  10.942  20.320  0.00  0.00    +0.000 C 
BRANCH  27  28
ATOM     28  N   UNL     1      45.230  10.977  20.466  0.00  0.00    +0.000 NA
ATOM     29  H   UNL     1      44.785  10.920  19.550  0.00  0.00    +0.000 HD
ATOM     30  H   UNL     1      44.940  11.862  20.877  0.00  0.00    +0.000 HD
ENDBRANCH  27  28
ENDBRANCH  26  27
ENDBRANCH  23  26
ENDBRANCH  19  20
ENDBRANCH   9  19
TORSDOF 7
ENDMDL
MODEL 3
REMARK VINA RESULT:    -5.948      3.456      7.221
REMARK INTER + INTRA:          -9.282
REMARK INTER:                  -8.256
REMARK INTRA:                  -1.026
REMARK UNBOUND:                -1.075
REMARK  Name = 
REMARK  10 active torsions:
REMARK  status: ('A' for Active; 'I' for Inactive)
REMARK    1  A    between atoms: C_1  and  C_2
REMARK    2  A    between atoms: C_2  and  C_3
REMARK    3  A    between atoms: C_2  and  C_4
REMARK    4  A    between atoms: C_2  and  C_5
REMARK    5  A    between atoms: C_8  and  C_9
REMARK    6  A    between atoms: N_16  and  C_17
REMARK    7  A    between atoms: C_17  and  C_18
REMARK    8  A    between atoms: C_21  and  C_22
REMARK    9  A    between atoms: C_22  and  C_23
REMARK   10  A    between atoms: C_23  and  N_24
REMARK                            x       y       z     vdW  Elec       q    Type
REMARK                         _______ _______ _______ _____ _____    ______ ____
ROOT
ATOM      1  C   UNL     1      45.056   7.052  11.985  0.00  0.00    +0.000 A 
ATOM      2  N   UNL     1      46.075   7.168  12.819  0.00  0.00    +0.000 NA
ATOM      3  C   UNL     1      46.442   5.918  13.214  0.00  0.00    +0.000 A 
ATOM      4  C   UNL     1      47.450   5.528  14.104  0.00  0.00    +0.000 A 
ATOM      5  C   UNL     1      47.568   4.173  14.326  0.00  0.00    +0.000 A 
ATOM      6  N   UNL     1      46.767   3.235  13.764  0.00  0.00    +0.000 NA
ATOM      7  C   UNL     1      45.789   3.623  12.908  0.00  0.00    +0.000 A 
ATOM      8  C   UNL     1      45.629   4.971  12.609  0.00  0.00    +0.000 A 
ATOM      9  N   UNL     1      44.782   5.695  11.761  0.00  0.00    +0.000 N 
ENDROOT
BRANCH   4  10
ATOM     10  C   UNL     1      48.341   6.488  14.779  0.00  0.00    +0.000 C 
ATOM     11  N   UNL     1      47.863   7.751  14.983  0.00  0.00    +0.000 N 
ATOM     12  O   UNL     1      49.462   6.157  15.151  0.00  0.00    +0.000 OA
ATOM     13  H   UNL     1      46.928   8.014  14.676  0.00  0.00    +0.000 HD
ATOM     14  H   UNL     1      48.442   8.430  15.455  0.00  0.00    +0.000 HD
ENDBRANCH   4  10
BRANCH   1  16
ATOM     15  C   UNL     1      45.302   8.727  10.169  0.00  0.00    +0.000 C 
ATOM     16  C   UNL     1      44.465   8.334  11.399  0.00  0.00    +0.000 C 
ATOM     17  C   UNL     1      44.626   9.472  12.455  0.00  0.00    +0.000 C 
ATOM     18  C   UNL     1      42.980   8.297  11.050  0.00  0.00    +0.000 C 
ENDBRANCH   1  16
BRANCH   9  19
ATOM     19  C   UNL     1      43.764   5.068  10.897  0.00  0.00    +0.000 C 
BRANCH  19  20
ATOM     20  C   UNL     1      44.344   4.249   9.757  0.00  0.00    +0.000 A 
ATOM     21  C   UNL     1      44.133   2.864   9.673  0.00  0.00    +0.000 A 
ATOM     22  C   UNL     1      44.964   2.059   8.885  0.00  0.00    +0.000 A 
ATOM     23  C   UNL     1      45.959   2.639   8.097  0.00  0.00    +0.000 A 
ATOM     24  C   UNL     1      45.973   4.036   7.973  0.00  0.00    +0.000 A 
ATOM     25  C   UNL     1      45.182   4.836   8.805  0.00  0.00    +0.000 A 
BRANCH  23  26
ATOM     26  C   UNL     1      47.161   1.851   7.617  0.00  0.00    +0.000 C 
BRANCH  26  27
ATOM     27  C   UNL     1      48.192   2.554   6.729  0.00  0.00    +0.000 C 
BRANCH  27  28
ATOM     28  N   UNL     1      48.345   1.817   5.471  0.00  0.00    +0.000 NA
ATOM     29  H   UNL     1      47.584   1.147   5.362  0.00  0.00    +0.000 HD
ATOM     30  H   UNL     1      49.209   1.277   5.484  0.00  0.00    +0.000 HD
ENDBRANCH  27  28
ENDBRANCH  26  27
ENDBRANCH  23  26
ENDBRANCH  19  20
ENDBRANCH   9  19
TORSDOF 7
ENDMDL
MODEL 4
REMARK VINA RESULT:    -5.756      3.513      6.417
REMARK INTER + INTRA:          -9.018
REMARK INTER:                  -8.038
REMARK INTRA:                  -0.980
REMARK UNBOUND:                -1.075
REMARK  Name = 
REMARK  10 active torsions:
REMARK  status: ('A' for Active; 'I' for Inactive)
REMARK    1  A    between atoms: C_1  and  C_2
REMARK    2  A    between atoms: C_2  and  C_3
REMARK    3  A    between atoms: C_2  and  C_4
REMARK    4  A    between atoms: C_2  and  C_5
REMARK    5  A    between atoms: C_8  and  C_9
REMARK    6  A    between atoms: N_16  and  C_17
REMARK    7  A    between atoms: C_17  and  C_18
REMARK    8  A    between atoms: C_21  and  C_22
REMARK    9  A    between atoms: C_22  and  C_23
REMARK   10  A    between atoms: C_23  and  N_24
REMARK                            x       y       z     vdW  Elec       q    Type
REMARK                         _______ _______ _______ _____ _____    ______ ____
ROOT
ATOM      1  C   UNL     1      46.292   5.446  13.305  0.00  0.00    +0.000 A 
ATOM      2  N   UNL     1      46.632   4.534  14.198  0.00  0.00    +0.000 NA
ATOM      3  C   UNL     1      47.521   5.098  15.060  0.00  0.00    +0.000 A 
ATOM      4  C   UNL     1      48.180   4.528  16.157  0.00  0.00    +0.000 A 
ATOM      5  C   UNL     1      49.051   5.354  16.833  0.00  0.00    +0.000 A 
ATOM      6  N   UNL     1      49.311   6.637  16.486  0.00  0.00    +0.000 NA
ATOM      7  C   UNL     1      48.673   7.179  15.419  0.00  0.00    +0.000 A 
ATOM      8  C   UNL     1      47.754   6.418  14.705  0.00  0.00    +0.000 A 
ATOM      9  N   UNL     1      46.909   6.666  13.617  0.00  0.00    +0.000 N 
ENDROOT
BRANCH   4  10
ATOM     10  C   UNL     1      47.975   3.130  16.579  0.00  0.00    +0.000 C 
ATOM     11  N   UNL     1      47.015   2.894  17.521  0.00  0.00    +0.000 N 
ATOM     12  O   UNL     1      48.636   2.220  16.091  0.00  0.00    +0.000 OA
ATOM     13  H   UNL     1      46.466   3.658  17.914  0.00  0.00    +0.000 HD
ATOM     14  H   UNL     1      46.839   1.947  17.822  0.00  0.00    +0.000 HD
ENDBRANCH   4  10
BRANCH   1  16
ATOM     15  C   UNL     1      43.898   5.538  12.650  0.00  0.00    +0.000 C 
ATOM     16  C   UNL     1      45.292   5.045  12.221  0.00  0.00    +0.000 C 
ATOM     17  C   UNL     1      45.235   3.485  12.163  0.00  0.00    +0.000 C 
ATOM     18  C   UNL     1      45.611   5.502  10.801  0.00  0.00    +0.000 C 
ENDBRANCH   1  16
BRANCH   9  19
ATOM     19  C   UNL     1      46.817   7.971  12.937  0.00  0.00    +0.000 C 
BRANCH  19  20
ATOM     20  C   UNL     1      48.069   8.352  12.164  0.00  0.00    +0.000 A 
ATOM     21  C   UNL     1      48.907   7.376  11.606  0.00  0.00    +0.000 A 
ATOM     22  C   UNL     1      50.228   7.680  11.254  0.00  0.00    +0.000 A 
ATOM     23  C   UNL     1      50.700   8.988  11.369  0.00  0.00    +0.000 A 
ATOM     24  C   UNL     1      49.774  10.001  11.658  0.00  0.00    +0.000 A 
ATOM     25  C   UNL     1      48.473   9.686  12.065  0.00  0.00    +0.000 A 
BRANCH  23  26
ATOM     26  C   UNL     1      52.179   9.299  11.474  0.00  0.00    +0.000 C 
BRANCH  26  27
ATOM     27  C   UNL     1      52.874   9.112  12.825  0.00  0.00    +0.000 C 
BRANCH  27  28
ATOM     28  N   UNL     1      53.439   7.761  12.908  0.00  0.00    +0.000 NA
ATOM     29  H   UNL     1      54.400   7.762  12.569  0.00  0.00    +0.000 HD
ATOM     30  H   UNL     1      52.918   7.126  12.307  0.00  0.00    +0.000 HD
ENDBRANCH  27  28
ENDBRANCH  26  27
ENDBRANCH  23  26
ENDBRANCH  19  20
ENDBRANCH   9  19
TORSDOF 7
ENDMDL
MODEL 5
REMARK VINA RESULT:    -5.752      1.948      4.189
REMARK INTER + INTRA:          -9.013
REMARK INTER:                  -8.208
REMARK INTRA:                  -0.804
REMARK UNBOUND:                -1.075
REMARK  Name = 
REMARK  10 active torsions:
REMARK  status: ('A' for Active; 'I' for Inactive)
REMARK    1  A    between atoms: C_1  and  C_2
REMARK    2  A    between atoms: C_2  and  C_3
REMARK    3  A    between atoms: C_2  and  C_4
REMARK    4  A    between atoms: C_2  and  C_5
REMARK    5  A    between atoms: C_8  and  C_9
REMARK    6  A    between atoms: N_16  and  C_17
REMARK    7  A    between atoms: C_17  and  C_18
REMARK    8  A    between atoms: C_21  and  C_22
REMARK    9  A    between atoms: C_22  and  C_23
REMARK   10  A    between atoms: C_23  and  N_24
REMARK                            x       y       z     vdW  Elec       q    Type
REMARK                         _______ _______ _______ _____ _____    ______ ____
ROOT
ATOM      1  C   UNL     1      47.242   7.622  12.795  0.00  0.00    +0.000 A 
ATOM      2  N   UNL     1      46.133   7.263  12.172  0.00  0.00    +0.000 NA
ATOM      3  C   UNL     1      45.915   5.944  12.423  0.00  0.00    +0.000 A 
ATOM      4  C   UNL     1      44.886   5.111  11.967  0.00  0.00    +0.000 A 
ATOM      5  C   UNL     1      44.947   3.797  12.378  0.00  0.00    +0.000 A 
ATOM      6  N   UNL     1      45.934   3.284  13.152  0.00  0.00    +0.000 NA
ATOM      7  C   UNL     1      46.930   4.097  13.583  0.00  0.00    +0.000 A 
ATOM      8  C   UNL     1      46.920   5.443  13.238  0.00  0.00    +0.000 A 
ATOM      9  N   UNL     1      47.738   6.540  13.538  0.00  0.00    +0.000 N 
ENDROOT
BRANCH   4  10
ATOM     10  C   UNL     1      43.795   5.585  11.097  0.00  0.00    +0.000 C 
ATOM     11  N   UNL     1      43.313   6.843  11.324  0.00  0.00    +0.000 N 
ATOM     12  O   UNL     1      43.349   4.878  10.200  0.00  0.00    +0.000 OA
ATOM     13  H   UNL     1      43.696   7.425  12.068  0.00  0.00    +0.000 HD
ATOM     14  H   UNL     1      42.576   7.204  10.738  0.00  0.00    +0.000 HD
ENDBRANCH   4  10
BRANCH   1  16
ATOM     15  C   UNL     1      46.555   9.876  12.011  0.00  0.00    +0.000 C 
ATOM     16  C   UNL     1      47.697   9.075  12.663  0.00  0.00    +0.000 C 
ATOM     17  C   UNL     1      48.913   9.118  11.684  0.00  0.00    +0.000 C 
ATOM     18  C   UNL     1      48.169   9.757  13.943  0.00  0.00    +0.000 C 
ENDBRANCH   1  16
BRANCH   9  19
ATOM     19  C   UNL     1      48.924   6.458  14.409  0.00  0.00    +0.000 C 
BRANCH  19  20
ATOM     20  C   UNL     1      48.600   6.475  15.894  0.00  0.00    +0.000 A 
ATOM     21  C   UNL     1      48.705   7.651  16.651  0.00  0.00    +0.000 A 
ATOM     22  C   UNL     1      48.799   7.600  18.046  0.00  0.00    +0.000 A 
ATOM     23  C   UNL     1      48.695   6.378  18.711  0.00  0.00    +0.000 A 
ATOM     24  C   UNL     1      48.309   5.253  17.968  0.00  0.00    +0.000 A 
ATOM     25  C   UNL     1      48.273   5.297  16.570  0.00  0.00    +0.000 A 
BRANCH  23  26
ATOM     26  C   UNL     1      49.248   6.176  20.107  0.00  0.00    +0.000 C 
BRANCH  26  27
ATOM     27  C   UNL     1      49.626   4.760  20.549  0.00  0.00    +0.000 C 
BRANCH  27  28
ATOM     28  N   UNL     1      48.430   4.053  21.018  0.00  0.00    +0.000 NA
ATOM     29  H   UNL     1      48.550   3.047  20.904  0.00  0.00    +0.000 HD
ATOM     30  H   UNL     1      47.624   4.317  20.455  0.00  0.00    +0.000 HD
ENDBRANCH  27  28
ENDBRANCH  26  27
ENDBRANCH  23  26
ENDBRANCH  19  20
ENDBRANCH   9  19
TORSDOF 7
ENDMDL
MODEL 6
REMARK VINA RESULT:    -5.473      3.222      7.186
REMARK INTER + INTRA:          -8.627
REMARK INTER:                  -7.920
REMARK INTRA:                  -0.707
REMARK UNBOUND:                -1.075
REMARK  Name = 
REMARK  10 active torsions:
REMARK  status: ('A' for Active; 'I' for Inactive)
REMARK    1  A    between atoms: C_1  and  C_2
REMARK    2  A    between atoms: C_2  and  C_3
REMARK    3  A    between atoms: C_2  and  C_4
REMARK    4  A    between atoms: C_2  and  C_5
REMARK    5  A    between atoms: C_8  and  C_9
REMARK    6  A    between atoms: N_16  and  C_17
REMARK    7  A    between atoms: C_17  and  C_18
REMARK    8  A    between atoms: C_21  and  C_22
REMARK    9  A    between atoms: C_22  and  C_23
REMARK   10  A    between atoms: C_23  and  N_24
REMARK                            x       y       z     vdW  Elec       q    Type
REMARK                         _______ _______ _______ _____ _____    ______ ____
ROOT
ATOM      1  C   UNL     1      48.853   7.781  14.669  0.00  0.00    +0.000 A 
ATOM      2  N   UNL     1      48.962   7.173  15.838  0.00  0.00    +0.000 NA
ATOM      3  C   UNL     1      48.409   5.935  15.723  0.00  0.00    +0.000 A 
ATOM      4  C   UNL     1      48.267   4.933  16.691  0.00  0.00    +0.000 A 
ATOM      5  C   UNL     1      47.635   3.780  16.277  0.00  0.00    +0.000 A 
ATOM      6  N   UNL     1      47.139   3.587  15.031  0.00  0.00    +0.000 NA
ATOM      7  C   UNL     1      47.276   4.566  14.103  0.00  0.00    +0.000 A 
ATOM      8  C   UNL     1      47.932   5.745  14.435  0.00  0.00    +0.000 A 
ATOM      9  N   UNL     1      48.281   6.906  13.734  0.00  0.00    +0.000 N 
ENDROOT
BRANCH   4  10
ATOM     10  C   UNL     1      48.751   5.078  18.076  0.00  0.00    +0.000 C 
ATOM     11  N   UNL     1      50.057   5.437  18.249  0.00  0.00    +0.000 N 
ATOM     12  O   UNL     1      48.002   4.895  19.029  0.00  0.00    +0.000 OA
ATOM     13  H   UNL     1      50.669   5.594  17.450  0.00  0.00    +0.000 HD
ATOM     14  H   UNL     1      50.417   5.559  19.184  0.00  0.00    +0.000 HD
ENDBRANCH   4  10
BRANCH   1  16
ATOM     15  C   UNL     1      50.797   9.112  13.884  0.00  0.00    +0.000 C 
ATOM     16  C   UNL     1      49.410   9.199  14.548  0.00  0.00    +0.000 C 
ATOM     17  C   UNL     1      49.619   9.766  15.988  0.00  0.00    +0.000 C 
ATOM     18  C   UNL     1      48.530  10.213  13.824  0.00  0.00    +0.000 C 
ENDBRANCH   1  16
BRANCH   9  19
ATOM     19  C   UNL     1      47.983   7.116  12.305  0.00  0.00    +0.000 C 
BRANCH  19  20
ATOM     20  C   UNL     1      46.555   6.770  11.916  0.00  0.00    +0.000 A 
ATOM     21  C   UNL     1      45.469   7.148  12.719  0.00  0.00    +0.000 A 
ATOM     22  C   UNL     1      44.228   6.513  12.592  0.00  0.00    +0.000 A 
ATOM     23  C   UNL     1      44.031   5.554  11.597  0.00  0.00    +0.000 A 
ATOM     24  C   UNL     1      45.031   5.393  10.628  0.00  0.00    +0.000 A 
ATOM     25  C   UNL     1      46.288   5.985  10.792  0.00  0.00    +0.000 A 
BRANCH  23  26
ATOM     26  C   UNL     1      42.932   4.515  11.693  0.00  0.00    +0.000 C 
BRANCH  26  27
ATOM     27  C   UNL     1      43.298   3.041  11.496  0.00  0.00    +0.000 C 
BRANCH  27  28
ATOM     28  N   UNL     1      44.082   2.569  12.642  0.00  0.00    +0.000 NA
ATOM     29  H   UNL     1      45.060   2.460  12.376  0.00  0.00    +0.000 HD
ATOM     30  H   UNL     1      43.754   1.651  12.936  0.00  0.00    +0.000 HD
ENDBRANCH  27  28
ENDBRANCH  26  27
ENDBRANCH  23  26
ENDBRANCH  19  20
ENDBRANCH   9  19
TORSDOF 7
ENDMDL
MODEL 7
REMARK VINA RESULT:    -5.311      4.593      7.920
REMARK INTER + INTRA:          -8.403
REMARK INTER:                  -7.173
REMARK INTRA:                  -1.230
REMARK UNBOUND:                -1.075
REMARK  Name = 
REMARK  10 active torsions:
REMARK  status: ('A' for Active; 'I' for Inactive)
REMARK    1  A    between atoms: C_1  and  C_2
REMARK    2  A    between atoms: C_2  and  C_3
REMARK    3  A    between atoms: C_2  and  C_4
REMARK    4  A    between atoms: C_2  and  C_5
REMARK    5  A    between atoms: C_8  and  C_9
REMARK    6  A    between atoms: N_16  and  C_17
REMARK    7  A    between atoms: C_17  and  C_18
REMARK    8  A    between atoms: C_21  and  C_22
REMARK    9  A    between atoms: C_22  and  C_23
REMARK   10  A    between atoms: C_23  and  N_24
REMARK                            x       y       z     vdW  Elec       q    Type
REMARK                         _______ _______ _______ _____ _____    ______ ____
ROOT
ATOM      1  C   UNL     1      49.593   7.596  14.259  0.00  0.00    +0.000 A 
ATOM      2  N   UNL     1      49.018   6.488  14.692  0.00  0.00    +0.000 NA
ATOM      3  C   UNL     1      48.040   6.147  13.810  0.00  0.00    +0.000 A 
ATOM      4  C   UNL     1      47.146   5.070  13.847  0.00  0.00    +0.000 A 
ATOM      5  C   UNL     1      46.242   5.000  12.809  0.00  0.00    +0.000 A 
ATOM      6  N   UNL     1      46.163   5.905  11.804  0.00  0.00    +0.000 NA
ATOM      7  C   UNL     1      47.028   6.948  11.780  0.00  0.00    +0.000 A 
ATOM      8  C   UNL     1      47.991   7.069  12.775  0.00  0.00    +0.000 A 
ATOM      9  N   UNL     1      49.039   7.965  13.024  0.00  0.00    +0.000 N 
ENDROOT
BRANCH   4  10
ATOM     10  C   UNL     1      47.148   4.061  14.922  0.00  0.00    +0.000 C 
ATOM     11  N   UNL     1      46.726   4.461  16.157  0.00  0.00    +0.000 N 
ATOM     12  O   UNL     1      47.505   2.908  14.707  0.00  0.00    +0.000 OA
ATOM     13  H   UNL     1      46.424   5.421  16.324  0.00  0.00    +0.000 HD
ATOM     14  H   UNL     1      46.701   3.793  16.913  0.00  0.00    +0.000 HD
ENDBRANCH   4  10
BRANCH   1  16
ATOM     15  C   UNL     1      50.760   7.450  16.446  0.00  0.00    +0.000 C 
ATOM     16  C   UNL     1      50.735   8.180  15.091  0.00  0.00    +0.000 C 
ATOM     17  C   UNL     1      50.411   9.681  15.377  0.00  0.00    +0.000 C 
ATOM     18  C   UNL     1      52.118   8.168  14.447  0.00  0.00    +0.000 C 
ENDBRANCH   1  16
BRANCH   9  19
ATOM     19  C   UNL     1      49.366   9.101  12.144  0.00  0.00    +0.000 C 
BRANCH  19  20
ATOM     20  C   UNL     1      50.680   8.944  11.398  0.00  0.00    +0.000 A 
ATOM     21  C   UNL     1      51.453  10.058  11.037  0.00  0.00    +0.000 A 
ATOM     22  C   UNL     1      52.424   9.963  10.033  0.00  0.00    +0.000 A 
ATOM     23  C   UNL     1      52.701   8.730   9.442  0.00  0.00    +0.000 A 
ATOM     24  C   UNL     1      52.127   7.582  10.007  0.00  0.00    +0.000 A 
ATOM     25  C   UNL     1      51.116   7.688  10.968  0.00  0.00    +0.000 A 
BRANCH  23  26
ATOM     26  C   UNL     1      53.352   8.625   8.078  0.00  0.00    +0.000 C 
BRANCH  26  27
ATOM     27  C   UNL     1      53.752   7.241   7.560  0.00  0.00    +0.000 C 
BRANCH  27  28
ATOM     28  N   UNL     1      52.774   6.782   6.568  0.00  0.00    +0.000 NA
ATOM     29  H   UNL     1      52.917   5.794   6.366  0.00  0.00    +0.000 HD
ATOM     30  H   UNL     1      52.905   7.282   5.691  0.00  0.00    +0.000 HD
ENDBRANCH  27  28
ENDBRANCH  26  27
ENDBRANCH  23  26
ENDBRANCH  19  20
ENDBRANCH   9  19
TORSDOF 7
ENDMDL
MODEL 8
REMARK VINA RESULT:    -5.003      3.377      6.225
REMARK INTER + INTRA:          -7.979
REMARK INTER:                  -6.587
REMARK INTRA:                  -1.393
REMARK UNBOUND:                -1.075
REMARK  Name = 
REMARK  10 active torsions:
REMARK  status: ('A' for Active; 'I' for Inactive)
REMARK    1  A    between atoms: C_1  and  C_2
REMARK    2  A    between atoms: C_2  and  C_3
REMARK    3  A    between atoms: C_2  and  C_4
REMARK    4  A    between atoms: C_2  and  C_5
REMARK    5  A    between atoms: C_8  and  C_9
REMARK    6  A    between atoms: N_16  and  C_17
REMARK    7  A    between atoms: C_17  and  C_18
REMARK    8  A    between atoms: C_21  and  C_22
REMARK    9  A    between atoms: C_22  and  C_23
REMARK   10  A    between atoms: C_23  and  N_24
REMARK                            x       y       z     vdW  Elec       q    Type
REMARK                         _______ _______ _______ _____ _____    ______ ____
ROOT
ATOM      1  C   UNL     1      46.836   8.619  12.571  0.00  0.00    +0.000 A 
ATOM      2  N   UNL     1      45.687   8.158  12.107  0.00  0.00    +0.000 NA
ATOM      3  C   UNL     1      45.565   6.861  12.497  0.00  0.00    +0.000 A 
ATOM      4  C   UNL     1      44.537   5.947  12.233  0.00  0.00    +0.000 A 
ATOM      5  C   UNL     1      44.709   4.680  12.750  0.00  0.00    +0.000 A 
ATOM      6  N   UNL     1      45.797   4.284  13.453  0.00  0.00    +0.000 NA
ATOM      7  C   UNL     1      46.790   5.174  13.699  0.00  0.00    +0.000 A 
ATOM      8  C   UNL     1      46.674   6.481  13.238  0.00  0.00    +0.000 A 
ATOM      9  N   UNL     1      47.461   7.634  13.348  0.00  0.00    +0.000 N 
ENDROOT
BRANCH   4  10
ATOM     10  C   UNL     1      43.337   6.291  11.449  0.00  0.00    +0.000 C 
ATOM     11  N   UNL     1      43.133   7.611  11.164  0.00  0.00    +0.000 N 
ATOM     12  O   UNL     1      42.564   5.422  11.063  0.00  0.00    +0.000 OA
ATOM     13  H   UNL     1      43.786   8.325  11.484  0.00  0.00    +0.000 HD
ATOM     14  H   UNL     1      42.329   7.880  10.617  0.00  0.00    +0.000 HD
ENDBRANCH   4  10
BRANCH   1  16
ATOM     15  C   UNL     1      45.924  10.793  11.788  0.00  0.00    +0.000 C 
ATOM     16  C   UNL     1      47.199  10.071  12.261  0.00  0.00    +0.000 C 
ATOM     17  C   UNL     1      48.206  10.078  11.068  0.00  0.00    +0.000 C 
ATOM     18  C   UNL     1      47.876  10.855  13.381  0.00  0.00    +0.000 C 
ENDBRANCH   1  16
BRANCH   9  19
ATOM     19  C   UNL     1      48.736   7.683  14.088  0.00  0.00    +0.000 C 
BRANCH  19  20
ATOM     20  C   UNL     1      49.955   7.876  13.202  0.00  0.00    +0.000 A 
ATOM     21  C   UNL     1      50.970   8.781  13.545  0.00  0.00    +0.000 A 
ATOM     22  C   UNL     1      51.867   9.252  12.579  0.00  0.00    +0.000 A 
ATOM     23  C   UNL     1      51.821   8.751  11.277  0.00  0.00    +0.000 A 
ATOM     24  C   UNL     1      50.993   7.648  11.023  0.00  0.00    +0.000 A 
ATOM     25  C   UNL     1      50.059   7.221  11.972  0.00  0.00    +0.000 A 
BRANCH  23  26
ATOM     26  C   UNL     1      52.398   9.518  10.104  0.00  0.00    +0.000 C 
BRANCH  26  27
ATOM     27  C   UNL     1      53.574   8.908   9.337  0.00  0.00    +0.000 C 
BRANCH  27  28
ATOM     28  N   UNL     1      54.549   8.356  10.284  0.00  0.00    +0.000 NA
ATOM     29  H   UNL     1      54.095   7.686  10.904  0.00  0.00    +0.000 HD
ATOM     30  H   UNL     1      54.920   9.097  10.876  0.00  0.00    +0.000 HD
ENDBRANCH  27  28
ENDBRANCH  26  27
ENDBRANCH  23  26
ENDBRANCH  19  20
ENDBRANCH   9  19
TORSDOF 7
ENDMDL
MODEL 9
REMARK VINA RESULT:    -4.952      4.446      7.481
REMARK INTER + INTRA:          -7.908
REMARK INTER:                  -6.523
REMARK INTRA:                  -1.386
REMARK UNBOUND:                -1.075
REMARK  Name = 
REMARK  10 active torsions:
REMARK  status: ('A' for Active; 'I' for Inactive)
REMARK    1  A    between atoms: C_1  and  C_2
REMARK    2  A    between atoms: C_2  and  C_3
REMARK    3  A    between atoms: C_2  and  C_4
REMARK    4  A    between atoms: C_2  and  C_5
REMARK    5  A    between atoms: C_8  and  C_9
REMARK    6  A    between atoms: N_16  and  C_17
REMARK    7  A    between atoms: C_17  and  C_18
REMARK    8  A    between atoms: C_21  and  C_22
REMARK    9  A    between atoms: C_22  and  C_23
REMARK   10  A    between atoms: C_23  and  N_24
REMARK                            x       y       z     vdW  Elec       q    Type
REMARK                         _______ _______ _______ _____ _____    ______ ____
ROOT
ATOM      1  C   UNL     1      49.389   7.710  14.364  0.00  0.00    +0.000 A 
ATOM      2  N   UNL     1      48.890   6.561  14.784  0.00  0.00    +0.000 NA
ATOM      3  C   UNL     1      47.930   6.170  13.903  0.00  0.00    +0.000 A 
ATOM      4  C   UNL     1      47.108   5.037  13.929  0.00  0.00    +0.000 A 
ATOM      5  C   UNL     1      46.202   4.925  12.897  0.00  0.00    +0.000 A 
ATOM      6  N   UNL     1      46.056   5.838  11.907  0.00  0.00    +0.000 NA
ATOM      7  C   UNL     1      46.853   6.936  11.893  0.00  0.00    +0.000 A 
ATOM      8  C   UNL     1      47.814   7.103  12.883  0.00  0.00    +0.000 A 
ATOM      9  N   UNL     1      48.803   8.061  13.139  0.00  0.00    +0.000 N 
ENDROOT
BRANCH   4  10
ATOM     10  C   UNL     1      47.183   4.015  14.988  0.00  0.00    +0.000 C 
ATOM     11  N   UNL     1      46.783   4.380  16.242  0.00  0.00    +0.000 N 
ATOM     12  O   UNL     1      47.580   2.880  14.745  0.00  0.00    +0.000 OA
ATOM     13  H   UNL     1      46.447   5.323  16.432  0.00  0.00    +0.000 HD
ATOM     14  H   UNL     1      46.808   3.700  16.987  0.00  0.00    +0.000 HD
ENDBRANCH   4  10
BRANCH   1  16
ATOM     15  C   UNL     1      50.191   9.858  15.320  0.00  0.00    +0.000 C 
ATOM     16  C   UNL     1      50.497   8.354  15.197  0.00  0.00    +0.000 C 
ATOM     17  C   UNL     1      51.840   8.216  14.413  0.00  0.00    +0.000 C 
ATOM     18  C   UNL     1      50.753   7.743  16.572  0.00  0.00    +0.000 C 
ENDBRANCH   1  16
BRANCH   9  19
ATOM     19  C   UNL     1      49.049   9.230  12.275  0.00  0.00    +0.000 C 
BRANCH  19  20
ATOM     20  C   UNL     1      50.267   9.087  11.378  0.00  0.00    +0.000 A 
ATOM     21  C   UNL     1      50.711   7.828  10.946  0.00  0.00    +0.000 A 
ATOM     22  C   UNL     1      52.016   7.651  10.471  0.00  0.00    +0.000 A 
ATOM     23  C   UNL     1      52.866   8.750  10.334  0.00  0.00    +0.000 A 
ATOM     24  C   UNL     1      52.320  10.032  10.499  0.00  0.00    +0.000 A 
ATOM     25  C   UNL     1      51.036  10.199  11.028  0.00  0.00    +0.000 A 
BRANCH  23  26
ATOM     26  C   UNL     1      54.373   8.597  10.297  0.00  0.00    +0.000 C 
BRANCH  26  27
ATOM     27  C   UNL     1      55.194   9.145  11.467  0.00  0.00    +0.000 C 
BRANCH  27  28
ATOM     28  N   UNL     1      55.329   8.114  12.502  0.00  0.00    +0.000 NA
ATOM     29  H   UNL     1      56.099   7.486  12.272  0.00  0.00    +0.000 HD
ATOM     30  H   UNL     1      54.487   7.543  12.539  0.00  0.00    +0.000 HD
ENDBRANCH  27  28
ENDBRANCH  26  27
ENDBRANCH  23  26
ENDBRANCH  19  20
ENDBRANCH   9  19
TORSDOF 7
ENDMDL
