MODEL 1
REMARK VINA RESULT:    -7.966      0.000      0.000
REMARK INTER + INTRA:         -11.091
REMARK INTER:                 -10.295
REMARK INTRA:                  -0.797
REMARK UNBOUND:                -0.797
REMARK  Name = 
REMARK  5 active torsions:
REMARK  status: ('A' for Active; 'I' for Inactive)
REMARK    1  A    between atoms: C_2  and  C_3
REMARK    2  A    between atoms: N_7  and  C_8
REMARK    3  A    between atoms: C_8  and  C_9
REMARK    4  A    between atoms: C_13  and  C_14
REMARK    5  A    between atoms: C_18  and  C_19
REMARK                            x       y       z     vdW  Elec       q    Type
REMARK                         _______ _______ _______ _____ _____    ______ ____
ROOT
ATOM      1  C   UNL     1      44.961   5.139  12.265  0.00  0.00    +0.000 A 
ATOM      2  C   UNL     1      45.463   4.105  13.065  0.00  0.00    +0.000 A 
ATOM      3  C   UNL     1      46.752   4.176  13.587  0.00  0.00    +0.000 A 
ATOM      4  C   UNL     1      47.546   5.296  13.333  0.00  0.00    +0.000 A 
ATOM      5  C   UNL     1      47.055   6.391  12.603  0.00  0.00    +0.000 A 
ATOM      6  C   UNL     1      45.741   6.304  12.124  0.00  0.00    +0.000 A 
ENDROOT
BRANCH   5   7
ATOM      7  C   UNL     1      47.912   7.536  12.237  0.00  0.00    +0.000 A 
ATOM      8  C   UNL     1      47.425   8.856  12.208  0.00  0.00    +0.000 A 
ATOM      9  C   UNL     1      48.236   9.925  11.812  0.00  0.00    +0.000 A 
ATOM     10  C   UNL     1      49.562   9.697  11.451  0.00  0.00    +0.000 A 
ATOM     11  C   UNL     1      50.071   8.398  11.470  0.00  0.00    +0.000 A 
ATOM     12  C   UNL     1      49.247   7.330  11.847  0.00  0.00    +0.000 A 
BRANCH  11  13
ATOM     13  C   UNL     1      51.435   8.147  11.108  0.00  0.00    +0.000 C 
ATOM     14  N   UNL     1      52.538   7.929  10.821  0.00  0.00    +0.000 NA
ENDBRANCH  11  13
ENDBRANCH   5   7
BRANCH   1  15
ATOM     15  C   UNL     1      43.720   4.970  11.399  0.00  0.00    +0.000 C 
ATOM     16  C   UNL     1      42.461   5.548  12.041  0.00  0.00    +0.000 C 
ATOM     17  C   UNL     1      43.036   6.198  10.828  0.00  0.00    +0.000 C 
BRANCH  15  22
ATOM     18  C   UNL     1      46.341   2.620   7.829  0.00  0.00    +0.000 A 
ATOM     19  C   UNL     1      45.688   1.703   8.614  0.00  0.00    +0.000 A 
ATOM     20  N   UNL     1      44.777   2.042   9.551  0.00  0.00    +0.000 NA
ATOM     21  C   UNL     1      44.519   3.351   9.709  0.00  0.00    +0.000 A 
ATOM     22  N   UNL     1      43.608   3.675  10.715  0.00  0.00    +0.000 N 
ATOM     23  N   UNL     1      45.095   4.313   8.971  0.00  0.00    +0.000 NA
ATOM     24  C   UNL     1      45.996   3.930   8.046  0.00  0.00    +0.000 A 
ATOM     25  H   UNL     1      43.515   2.843  11.286  0.00  0.00    +0.000 HD
BRANCH  18  27
ATOM     26  N   UNL     1      48.134   1.937   6.103  0.00  0.00    +0.000 NA
ATOM     27  C   UNL     1      47.328   2.247   6.876  0.00  0.00    +0.000 C 
ENDBRANCH  18  27
ENDBRANCH  15  22
ENDBRANCH   1  15
TORSDOF 5
ENDMDL
MODEL 2
REMARK VINA RESULT:    -7.755      2.459      3.942
REMARK INTER + INTRA:         -10.818
REMARK INTER:                 -10.425
REMARK INTRA:                  -0.393
REMARK UNBOUND:                -0.797
REMARK  Name = 
REMARK  5 active torsions:
REMARK  status: ('A' for Active; 'I' for Inactive)
REMARK    1  A    between atoms: C_2  and  C_3
REMARK    2  A    between atoms: N_7  and  C_8
REMARK    3  A    between atoms: C_8  and  C_9
REMARK    4  A    between atoms: C_13  and  C_14
REMARK    5  A    between atoms: C_18  and  C_19
REMARK                            x       y       z     vdW  Elec       q    Type
REMARK                         _______ _______ _______ _____ _____    ______ ____
ROOT
ATOM      1  C   UNL     1      45.478   5.249  11.767  0.00  0.00    +0.000 A 
ATOM      2  C   UNL     1      46.175   6.275  11.117  0.00  0.00    +0.000 A 
ATOM      3  C   UNL     1      47.291   6.859  11.710  0.00  0.00    +0.000 A 
ATOM      4  C   UNL     1      47.739   6.404  12.952  0.00  0.00    +0.000 A 
ATOM      5  C   UNL     1      47.120   5.325  13.603  0.00  0.00    +0.000 A 
ATOM      6  C   UNL     1      46.021   4.735  12.961  0.00  0.00    +0.000 A 
ENDROOT
BRANCH   5   7
ATOM      7  C   UNL     1      47.512   4.899  14.961  0.00  0.00    +0.000 A 
ATOM      8  C   UNL     1      47.120   3.659  15.499  0.00  0.00    +0.000 A 
ATOM      9  C   UNL     1      47.459   3.290  16.805  0.00  0.00    +0.000 A 
ATOM     10  C   UNL     1      48.214   4.151  17.598  0.00  0.00    +0.000 A 
ATOM     11  C   UNL     1      48.616   5.386  17.090  0.00  0.00    +0.000 A 
ATOM     12  C   UNL     1      48.255   5.758  15.790  0.00  0.00    +0.000 A 
BRANCH  11  13
ATOM     13  C   UNL     1      49.400   6.280  17.891  0.00  0.00    +0.000 C 
ATOM     14  N   UNL     1      50.027   6.999  18.552  0.00  0.00    +0.000 NA
ENDBRANCH  11  13
ENDBRANCH   5   7
BRANCH   1  15
ATOM     15  C   UNL     1      44.081   4.817  11.343  0.00  0.00    +0.000 C 
ATOM     16  C   UNL     1      43.005   5.194  12.360  0.00  0.00    +0.000 C 
ATOM     17  C   UNL     1      43.036   5.873  11.033  0.00  0.00    +0.000 C 
BRANCH  15  22
ATOM     18  C   UNL     1      46.458   2.539   7.562  0.00  0.00    +0.000 A 
ATOM     19  C   UNL     1      45.980   1.606   8.448  0.00  0.00    +0.000 A 
ATOM     20  N   UNL     1      45.160   1.909   9.476  0.00  0.00    +0.000 NA
ATOM     21  C   UNL     1      44.812   3.199   9.622  0.00  0.00    +0.000 A 
ATOM     22  N   UNL     1      44.000   3.491  10.718  0.00  0.00    +0.000 N 
ATOM     23  N   UNL     1      45.215   4.173   8.790  0.00  0.00    +0.000 NA
ATOM     24  C   UNL     1      46.031   3.826   7.777  0.00  0.00    +0.000 A 
ATOM     25  H   UNL     1      44.044   2.678  11.323  0.00  0.00    +0.000 HD
BRANCH  18  27
ATOM     26  N   UNL     1      48.092   1.935   5.658  0.00  0.00    +0.000 NA
ATOM     27  C   UNL     1      47.355   2.207   6.510  0.00  0.00    +0.000 C 
ENDBRANCH  18  27
ENDBRANCH  15  22
ENDBRANCH   1  15
TORSDOF 5
ENDMDL
MODEL 3
REMARK VINA RESULT:    -6.760      3.573      7.897
REMARK INTER + INTRA:          -9.532
REMARK INTER:                  -8.901
REMARK INTRA:                  -0.631
REMARK UNBOUND:                -0.797
REMARK  Name = 
REMARK  5 active torsions:
REMARK  status: ('A' for Active; 'I' for Inactive)
REMARK    1  A    between atoms: C_2  and  C_3
REMARK    2  A    between atoms: N_7  and  C_8
REMARK    3  A    between atoms: C_8  and  C_9
REMARK    4  A    between atoms: C_13  and  C_14
REMARK    5  A    between atoms: C_18  and  C_19
REMARK                            x       y       z     vdW  Elec       q    Type
REMARK                         _______ _______ _______ _____ _____    ______ ____
ROOT
ATOM      1  C   UNL     1      47.244   7.714  12.401  0.00  0.00    +0.000 A 
ATOM      2  C   UNL     1      46.304   8.742  12.550  0.00  0.00    +0.000 A 
ATOM      3  C   UNL     1      45.016   8.603  12.039  0.00  0.00    +0.000 A 
ATOM      4  C   UNL     1      44.646   7.421  11.394  0.00  0.00    +0.000 A 
ATOM      5  C   UNL     1      45.530   6.335  11.292  0.00  0.00    +0.000 A 
ATOM      6  C   UNL     1      46.807   6.494  11.850  0.00  0.00    +0.000 A 
ENDROOT
BRANCH   5   7
ATOM      7  C   UNL     1      45.194   5.119  10.524  0.00  0.00    +0.000 A 
ATOM      8  C   UNL     1      44.385   4.099  11.056  0.00  0.00    +0.000 A 
ATOM      9  C   UNL     1      44.114   2.931  10.334  0.00  0.00    +0.000 A 
ATOM     10  C   UNL     1      44.637   2.767   9.054  0.00  0.00    +0.000 A 
ATOM     11  C   UNL     1      45.444   3.763   8.503  0.00  0.00    +0.000 A 
ATOM     12  C   UNL     1      45.727   4.919   9.239  0.00  0.00    +0.000 A 
BRANCH  11  13
ATOM     13  C   UNL     1      45.984   3.613   7.184  0.00  0.00    +0.000 C 
ATOM     14  N   UNL     1      46.436   3.492   6.121  0.00  0.00    +0.000 NA
ENDBRANCH  11  13
ENDBRANCH   5   7
BRANCH   1  15
ATOM     15  C   UNL     1      48.733   7.935  12.624  0.00  0.00    +0.000 C 
ATOM     16  C   UNL     1      49.480   8.307  11.344  0.00  0.00    +0.000 C 
ATOM     17  C   UNL     1      49.320   9.320  12.427  0.00  0.00    +0.000 C 
BRANCH  15  22
ATOM     18  C   UNL     1      48.651   7.199  17.583  0.00  0.00    +0.000 A 
ATOM     19  C   UNL     1      48.962   6.028  16.938  0.00  0.00    +0.000 A 
ATOM     20  N   UNL     1      49.218   5.953  15.615  0.00  0.00    +0.000 NA
ATOM     21  C   UNL     1      49.151   7.097  14.913  0.00  0.00    +0.000 A 
ATOM     22  N   UNL     1      49.376   6.984  13.541  0.00  0.00    +0.000 N 
ATOM     23  N   UNL     1      48.875   8.290  15.466  0.00  0.00    +0.000 NA
ATOM     24  C   UNL     1      48.628   8.319  16.789  0.00  0.00    +0.000 A 
ATOM     25  H   UNL     1      49.303   5.996  13.327  0.00  0.00    +0.000 HD
BRANCH  18  27
ATOM     26  N   UNL     1      48.090   7.300  20.100  0.00  0.00    +0.000 NA
ATOM     27  C   UNL     1      48.343   7.251  18.970  0.00  0.00    +0.000 C 
ENDBRANCH  18  27
ENDBRANCH  15  22
ENDBRANCH   1  15
TORSDOF 5
ENDMDL
MODEL 4
REMARK VINA RESULT:    -6.304      2.915      4.872
REMARK INTER + INTRA:          -8.944
REMARK INTER:                  -8.248
REMARK INTRA:                  -0.696
REMARK UNBOUND:                -0.797
REMARK  Name = 
REMARK  5 active torsions:
REMARK  status: ('A' for Active; 'I' for Inactive)
REMARK    1  A    between atoms: C_2  and  C_3
REMARK    2  A    between atoms: N_7  and  C_8
REMARK    3  A    between atoms: C_8  and  C_9
REMARK    4  A    between atoms: C_13  and  C_14
REMARK    5  A    between atoms: C_18  and  C_19
REMARK                            x       y       z     vdW  Elec       q    Type
REMARK                         _______ _______ _______ _____ _____    ______ ____
ROOT
ATOM      1  C   UNL     1      46.866   7.662  12.390  0.00  0.00    +0.000 A 
ATOM      2  C   UNL     1      47.892   8.304  11.685  0.00  0.00    +0.000 A 
ATOM      3  C   UNL     1      49.199   8.289  12.166  0.00  0.00    +0.000 A 
ATOM      4  C   UNL     1      49.498   7.609  13.349  0.00  0.00    +0.000 A 
ATOM      5  C   UNL     1      48.517   6.886  14.045  0.00  0.00    +0.000 A 
ATOM      6  C   UNL     1      47.219   6.889  13.514  0.00  0.00    +0.000 A 
ENDROOT
BRANCH   5   7
ATOM      7  C   UNL     1      48.790   6.249  15.350  0.00  0.00    +0.000 A 
ATOM      8  C   UNL     1      49.862   6.651  16.168  0.00  0.00    +0.000 A 
ATOM      9  C   UNL     1      50.137   6.007  17.379  0.00  0.00    +0.000 A 
ATOM     10  C   UNL     1      49.333   4.952  17.805  0.00  0.00    +0.000 A 
ATOM     11  C   UNL     1      48.265   4.532  17.012  0.00  0.00    +0.000 A 
ATOM     12  C   UNL     1      48.008   5.168  15.792  0.00  0.00    +0.000 A 
BRANCH  11  13
ATOM     13  C   UNL     1      47.424   3.453  17.440  0.00  0.00    +0.000 C 
ATOM     14  N   UNL     1      46.730   2.588  17.781  0.00  0.00    +0.000 NA
ENDBRANCH  11  13
ENDBRANCH   5   7
BRANCH   1  15
ATOM     15  C   UNL     1      45.394   7.928  12.107  0.00  0.00    +0.000 C 
ATOM     16  C   UNL     1      44.921   9.282  12.632  0.00  0.00    +0.000 C 
ATOM     17  C   UNL     1      45.007   9.050  11.161  0.00  0.00    +0.000 C 
BRANCH  15  22
ATOM     18  C   UNL     1      45.025   3.388  10.013  0.00  0.00    +0.000 A 
ATOM     19  C   UNL     1      44.499   3.366  11.280  0.00  0.00    +0.000 A 
ATOM     20  N   UNL     1      44.309   4.475  12.025  0.00  0.00    +0.000 NA
ATOM     21  C   UNL     1      44.670   5.648  11.479  0.00  0.00    +0.000 A 
ATOM     22  N   UNL     1      44.504   6.773  12.288  0.00  0.00    +0.000 N 
ATOM     23  N   UNL     1      45.172   5.764  10.239  0.00  0.00    +0.000 NA
ATOM     24  C   UNL     1      45.342   4.632   9.530  0.00  0.00    +0.000 A 
ATOM     25  H   UNL     1      44.368   6.423  13.229  0.00  0.00    +0.000 HD
BRANCH  18  27
ATOM     26  N   UNL     1      45.440   1.236   8.649  0.00  0.00    +0.000 NA
ATOM     27  C   UNL     1      45.256   2.204   9.259  0.00  0.00    +0.000 C 
ENDBRANCH  18  27
ENDBRANCH  15  22
ENDBRANCH   1  15
TORSDOF 5
ENDMDL
MODEL 5
REMARK VINA RESULT:    -5.910      5.215      8.341
REMARK INTER + INTRA:          -8.434
REMARK INTER:                  -8.704
REMARK INTRA:                   0.270
REMARK UNBOUND:                -0.797
REMARK  Name = 
REMARK  5 active torsions:
REMARK  status: ('A' for Active; 'I' for Inactive)
REMARK    1  A    between atoms: C_2  and  C_3
REMARK    2  A    between atoms: N_7  and  C_8
REMARK    3  A    between atoms: C_8  and  C_9
REMARK    4  A    between atoms: C_13  and  C_14
REMARK    5  A    between atoms: C_18  and  C_19
REMARK                            x       y       z     vdW  Elec       q    Type
REMARK                         _______ _______ _______ _____ _____    ______ ____
ROOT
ATOM      1  C   UNL     1      48.190   5.142  16.038  0.00  0.00    +0.000 A 
ATOM      2  C   UNL     1      48.963   6.309  16.084  0.00  0.00    +0.000 A 
ATOM      3  C   UNL     1      48.938   7.216  15.028  0.00  0.00    +0.000 A 
ATOM      4  C   UNL     1      48.118   6.977  13.922  0.00  0.00    +0.000 A 
ATOM      5  C   UNL     1      47.268   5.860  13.870  0.00  0.00    +0.000 A 
ATOM      6  C   UNL     1      47.290   4.986  14.966  0.00  0.00    +0.000 A 
ENDROOT
BRANCH   5   7
ATOM      7  C   UNL     1      46.475   5.535  12.668  0.00  0.00    +0.000 A 
ATOM      8  C   UNL     1      46.598   6.264  11.471  0.00  0.00    +0.000 A 
ATOM      9  C   UNL     1      45.804   5.974  10.355  0.00  0.00    +0.000 A 
ATOM     10  C   UNL     1      44.879   4.935  10.409  0.00  0.00    +0.000 A 
ATOM     11  C   UNL     1      44.736   4.197  11.584  0.00  0.00    +0.000 A 
ATOM     12  C   UNL     1      45.518   4.505  12.703  0.00  0.00    +0.000 A 
BRANCH  11  13
ATOM     13  C   UNL     1      43.793   3.119  11.654  0.00  0.00    +0.000 C 
ATOM     14  N   UNL     1      43.040   2.238  11.701  0.00  0.00    +0.000 NA
ENDBRANCH  11  13
ENDBRANCH   5   7
BRANCH   1  15
ATOM     15  C   UNL     1      48.431   3.969  16.979  0.00  0.00    +0.000 C 
ATOM     16  C   UNL     1      47.137   3.327  17.477  0.00  0.00    +0.000 C 
ATOM     17  C   UNL     1      48.025   2.571  16.547  0.00  0.00    +0.000 C 
BRANCH  15  22
ATOM     18  C   UNL     1      52.895   1.817  17.739  0.00  0.00    +0.000 A 
ATOM     19  C   UNL     1      52.900   3.098  18.232  0.00  0.00    +0.000 A 
ATOM     20  N   UNL     1      51.793   3.865  18.318  0.00  0.00    +0.000 NA
ATOM     21  C   UNL     1      50.640   3.327  17.887  0.00  0.00    +0.000 A 
ATOM     22  N   UNL     1      49.520   4.157  17.947  0.00  0.00    +0.000 N 
ATOM     23  N   UNL     1      50.540   2.075  17.411  0.00  0.00    +0.000 NA
ATOM     24  C   UNL     1      51.669   1.344  17.344  0.00  0.00    +0.000 A 
ATOM     25  H   UNL     1      49.875   5.096  18.084  0.00  0.00    +0.000 HD
BRANCH  18  27
ATOM     26  N   UNL     1      55.043   0.405  17.510  0.00  0.00    +0.000 NA
ATOM     27  C   UNL     1      54.079   1.040  17.617  0.00  0.00    +0.000 C 
ENDBRANCH  18  27
ENDBRANCH  15  22
ENDBRANCH   1  15
TORSDOF 5
ENDMDL
MODEL 6
REMARK VINA RESULT:    -5.853      2.272      6.828
REMARK INTER + INTRA:          -8.360
REMARK INTER:                  -8.968
REMARK INTRA:                   0.608
REMARK UNBOUND:                -0.797
REMARK  Name = 
REMARK  5 active torsions:
REMARK  status: ('A' for Active; 'I' for Inactive)
REMARK    1  A    between atoms: C_2  and  C_3
REMARK    2  A    between atoms: N_7  and  C_8
REMARK    3  A    between atoms: C_8  and  C_9
REMARK    4  A    between atoms: C_13  and  C_14
REMARK    5  A    between atoms: C_18  and  C_19
REMARK                            x       y       z     vdW  Elec       q    Type
REMARK                         _______ _______ _______ _____ _____    ______ ____
ROOT
ATOM      1  C   UNL     1      45.002   5.863  12.161  0.00  0.00    +0.000 A 
ATOM      2  C   UNL     1      43.686   5.508  12.484  0.00  0.00    +0.000 A 
ATOM      3  C   UNL     1      42.993   4.581  11.709  0.00  0.00    +0.000 A 
ATOM      4  C   UNL     1      43.619   3.980  10.615  0.00  0.00    +0.000 A 
ATOM      5  C   UNL     1      44.961   4.246  10.302  0.00  0.00    +0.000 A 
ATOM      6  C   UNL     1      45.643   5.155  11.124  0.00  0.00    +0.000 A 
ENDROOT
BRANCH   5   7
ATOM      7  C   UNL     1      45.607   3.702   9.091  0.00  0.00    +0.000 A 
ATOM      8  C   UNL     1      46.004   4.525   8.021  0.00  0.00    +0.000 A 
ATOM      9  C   UNL     1      46.571   3.989   6.860  0.00  0.00    +0.000 A 
ATOM     10  C   UNL     1      46.767   2.615   6.750  0.00  0.00    +0.000 A 
ATOM     11  C   UNL     1      46.382   1.776   7.796  0.00  0.00    +0.000 A 
ATOM     12  C   UNL     1      45.796   2.316   8.947  0.00  0.00    +0.000 A 
BRANCH  11  13
ATOM     13  C   UNL     1      46.583   0.360   7.702  0.00  0.00    +0.000 C 
ATOM     14  N   UNL     1      46.748  -0.788   7.642  0.00  0.00    +0.000 NA
ENDBRANCH  11  13
ENDBRANCH   5   7
BRANCH   1  15
ATOM     15  C   UNL     1      45.679   7.095  12.744  0.00  0.00    +0.000 C 
ATOM     16  C   UNL     1      45.836   8.227  11.730  0.00  0.00    +0.000 C 
ATOM     17  C   UNL     1      44.893   8.387  12.874  0.00  0.00    +0.000 C 
BRANCH  15  22
ATOM     18  C   UNL     1      50.600   8.047  12.643  0.00  0.00    +0.000 A 
ATOM     19  C   UNL     1      50.172   7.920  13.940  0.00  0.00    +0.000 A 
ATOM     20  N   UNL     1      48.934   7.503  14.277  0.00  0.00    +0.000 NA
ATOM     21  C   UNL     1      48.093   7.208  13.271  0.00  0.00    +0.000 A 
ATOM     22  N   UNL     1      46.806   6.822  13.646  0.00  0.00    +0.000 N 
ATOM     23  N   UNL     1      48.435   7.283  11.974  0.00  0.00    +0.000 NA
ATOM     24  C   UNL     1      49.681   7.702  11.684  0.00  0.00    +0.000 A 
ATOM     25  H   UNL     1      46.708   7.085  14.620  0.00  0.00    +0.000 HD
BRANCH  18  27
ATOM     26  N   UNL     1      52.954   8.916  12.037  0.00  0.00    +0.000 NA
ATOM     27  C   UNL     1      51.895   8.529  12.307  0.00  0.00    +0.000 C 
ENDBRANCH  18  27
ENDBRANCH  15  22
ENDBRANCH   1  15
TORSDOF 5
ENDMDL
MODEL 7
REMARK VINA RESULT:    -5.821      3.037      7.520
REMARK INTER + INTRA:          -8.319
REMARK INTER:                  -8.744
REMARK INTRA:                   0.425
REMARK UNBOUND:                -0.797
REMARK  Name = 
REMARK  5 active torsions:
REMARK  status: ('A' for Active; 'I' for Inactive)
REMARK    1  A    between atoms: C_2  and  C_3
REMARK    2  A    between atoms: N_7  and  C_8
REMARK    3  A    between atoms: C_8  and  C_9
REMARK    4  A    between atoms: C_13  and  C_14
REMARK    5  A    between atoms: C_18  and  C_19
REMARK                            x       y       z     vdW  Elec       q    Type
REMARK                         _______ _______ _______ _____ _____    ______ ____
ROOT
ATOM      1  C   UNL     1      45.266   6.205  11.570  0.00  0.00    +0.000 A 
ATOM      2  C   UNL     1      43.933   5.942  11.910  0.00  0.00    +0.000 A 
ATOM      3  C   UNL     1      43.203   4.980  11.216  0.00  0.00    +0.000 A 
ATOM      4  C   UNL     1      43.807   4.252  10.188  0.00  0.00    +0.000 A 
ATOM      5  C   UNL     1      45.163   4.427   9.868  0.00  0.00    +0.000 A 
ATOM      6  C   UNL     1      45.880   5.377  10.610  0.00  0.00    +0.000 A 
ENDROOT
BRANCH   5   7
ATOM      7  C   UNL     1      45.791   3.745   8.719  0.00  0.00    +0.000 A 
ATOM      8  C   UNL     1      46.235   4.447   7.583  0.00  0.00    +0.000 A 
ATOM      9  C   UNL     1      46.785   3.781   6.482  0.00  0.00    +0.000 A 
ATOM     10  C   UNL     1      46.916   2.394   6.500  0.00  0.00    +0.000 A 
ATOM     11  C   UNL     1      46.482   1.674   7.613  0.00  0.00    +0.000 A 
ATOM     12  C   UNL     1      45.914   2.344   8.703  0.00  0.00    +0.000 A 
BRANCH  11  13
ATOM     13  C   UNL     1      46.616   0.247   7.652  0.00  0.00    +0.000 C 
ATOM     14  N   UNL     1      46.720  -0.909   7.667  0.00  0.00    +0.000 NA
ENDBRANCH  11  13
ENDBRANCH   5   7
BRANCH   1  15
ATOM     15  C   UNL     1      45.995   7.454  12.045  0.00  0.00    +0.000 C 
ATOM     16  C   UNL     1      45.427   8.741  11.449  0.00  0.00    +0.000 C 
ATOM     17  C   UNL     1      45.260   8.465  12.905  0.00  0.00    +0.000 C 
BRANCH  15  22
ATOM     18  C   UNL     1      49.376   8.110  15.688  0.00  0.00    +0.000 A 
ATOM     19  C   UNL     1      49.853   7.221  14.758  0.00  0.00    +0.000 A 
ATOM     20  N   UNL     1      49.237   6.972  13.583  0.00  0.00    +0.000 NA
ATOM     21  C   UNL     1      48.095   7.637  13.338  0.00  0.00    +0.000 A 
ATOM     22  N   UNL     1      47.456   7.328  12.137  0.00  0.00    +0.000 N 
ATOM     23  N   UNL     1      47.568   8.540  14.182  0.00  0.00    +0.000 NA
ATOM     24  C   UNL     1      48.218   8.758  15.342  0.00  0.00    +0.000 A 
ATOM     25  H   UNL     1      47.879   6.467  11.809  0.00  0.00    +0.000 HD
BRANCH  18  27
ATOM     26  N   UNL     1      50.534   8.507  17.960  0.00  0.00    +0.000 NA
ATOM     27  C   UNL     1      50.017   8.327  16.938  0.00  0.00    +0.000 C 
ENDBRANCH  18  27
ENDBRANCH  15  22
ENDBRANCH   1  15
TORSDOF 5
ENDMDL
MODEL 8
REMARK VINA RESULT:    -5.816      3.952      6.718
REMARK INTER + INTRA:          -8.313
REMARK INTER:                  -7.567
REMARK INTRA:                  -0.746
REMARK UNBOUND:                -0.797
REMARK  Name = 
REMARK  5 active torsions:
REMARK  status: ('A' for Active; 'I' for Inactive)
REMARK    1  A    between atoms: C_2  and  C_3
REMARK    2  A    between atoms: N_7  and  C_8
REMARK    3  A    between atoms: C_8  and  C_9
REMARK    4  A    between atoms: C_13  and  C_14
REMARK    5  A    between atoms: C_18  and  C_19
REMARK                            x       y       z     vdW  Elec       q    Type
REMARK                         _______ _______ _______ _____ _____    ______ ____
ROOT
ATOM      1  C   UNL     1      48.937   8.710  14.316  0.00  0.00    +0.000 A 
ATOM      2  C   UNL     1      48.793   9.953  14.944  0.00  0.00    +0.000 A 
ATOM      3  C   UNL     1      48.609  10.032  16.322  0.00  0.00    +0.000 A 
ATOM      4  C   UNL     1      48.591   8.866  17.092  0.00  0.00    +0.000 A 
ATOM      5  C   UNL     1      48.811   7.606  16.514  0.00  0.00    +0.000 A 
ATOM      6  C   UNL     1      49.031   7.564  15.130  0.00  0.00    +0.000 A 
ENDROOT
BRANCH   5   7
ATOM      7  C   UNL     1      48.693   6.356  17.292  0.00  0.00    +0.000 A 
ATOM      8  C   UNL     1      48.360   6.355  18.659  0.00  0.00    +0.000 A 
ATOM      9  C   UNL     1      48.298   5.166  19.394  0.00  0.00    +0.000 A 
ATOM     10  C   UNL     1      48.555   3.947  18.770  0.00  0.00    +0.000 A 
ATOM     11  C   UNL     1      48.890   3.920  17.416  0.00  0.00    +0.000 A 
ATOM     12  C   UNL     1      48.969   5.115  16.692  0.00  0.00    +0.000 A 
BRANCH  11  13
ATOM     13  C   UNL     1      49.150   2.674  16.758  0.00  0.00    +0.000 C 
ATOM     14  N   UNL     1      49.371   1.672  16.215  0.00  0.00    +0.000 NA
ENDBRANCH  11  13
ENDBRANCH   5   7
BRANCH   1  15
ATOM     15  C   UNL     1      48.797   8.538  12.809  0.00  0.00    +0.000 C 
ATOM     16  C   UNL     1      49.858   9.301  12.019  0.00  0.00    +0.000 C 
ATOM     17  C   UNL     1      49.882   7.810  12.037  0.00  0.00    +0.000 C 
BRANCH  15  22
ATOM     18  C   UNL     1      45.031   5.231  12.669  0.00  0.00    +0.000 A 
ATOM     19  C   UNL     1      44.535   6.511  12.647  0.00  0.00    +0.000 A 
ATOM     20  N   UNL     1      45.311   7.606  12.510  0.00  0.00    +0.000 NA
ATOM     21  C   UNL     1      46.635   7.408  12.399  0.00  0.00    +0.000 A 
ATOM     22  N   UNL     1      47.418   8.559  12.304  0.00  0.00    +0.000 N 
ATOM     23  N   UNL     1      47.204   6.191  12.389  0.00  0.00    +0.000 NA
ATOM     24  C   UNL     1      46.391   5.126  12.527  0.00  0.00    +0.000 A 
ATOM     25  H   UNL     1      46.820   9.327  12.588  0.00  0.00    +0.000 HD
BRANCH  18  27
ATOM     26  N   UNL     1      43.528   3.162  13.015  0.00  0.00    +0.000 NA
ATOM     27  C   UNL     1      44.201   4.092  12.857  0.00  0.00    +0.000 C 
ENDBRANCH  18  27
ENDBRANCH  15  22
ENDBRANCH   1  15
TORSDOF 5
ENDMDL
MODEL 9
REMARK VINA RESULT:    -5.614      1.722      2.930
REMARK INTER + INTRA:          -8.052
REMARK INTER:                  -7.512
REMARK INTRA:                  -0.540
REMARK UNBOUND:                -0.797
REMARK  Name = 
REMARK  5 active torsions:
REMARK  status: ('A' for Active; 'I' for Inactive)
REMARK    1  A    between atoms: C_2  and  C_3
REMARK    2  A    between atoms: N_7  and  C_8
REMARK    3  A    between atoms: C_8  and  C_9
REMARK    4  A    between atoms: C_13  and  C_14
REMARK    5  A    between atoms: C_18  and  C_19
REMARK                            x       y       z     vdW  Elec       q    Type
REMARK                         _______ _______ _______ _____ _____    ______ ____
ROOT
ATOM      1  C   UNL     1      46.470   7.679  12.632  0.00  0.00    +0.000 A 
ATOM      2  C   UNL     1      46.648   6.625  13.536  0.00  0.00    +0.000 A 
ATOM      3  C   UNL     1      47.921   6.124  13.798  0.00  0.00    +0.000 A 
ATOM      4  C   UNL     1      49.035   6.691  13.175  0.00  0.00    +0.000 A 
ATOM      5  C   UNL     1      48.911   7.801  12.323  0.00  0.00    +0.000 A 
ATOM      6  C   UNL     1      47.620   8.304  12.110  0.00  0.00    +0.000 A 
ENDROOT
BRANCH   5   7
ATOM      7  C   UNL     1      50.061   8.347  11.576  0.00  0.00    +0.000 A 
ATOM      8  C   UNL     1      50.254   9.731  11.406  0.00  0.00    +0.000 A 
ATOM      9  C   UNL     1      51.322  10.231  10.654  0.00  0.00    +0.000 A 
ATOM     10  C   UNL     1      52.232   9.355  10.067  0.00  0.00    +0.000 A 
ATOM     11  C   UNL     1      52.064   7.979  10.219  0.00  0.00    +0.000 A 
ATOM     12  C   UNL     1      50.981   7.484  10.955  0.00  0.00    +0.000 A 
BRANCH  11  13
ATOM     13  C   UNL     1      52.996   7.064   9.628  0.00  0.00    +0.000 C 
ATOM     14  N   UNL     1      53.761   6.336   9.146  0.00  0.00    +0.000 NA
ENDBRANCH  11  13
ENDBRANCH   5   7
BRANCH   1  15
ATOM     15  C   UNL     1      45.107   8.033  12.052  0.00  0.00    +0.000 C 
ATOM     16  C   UNL     1      44.615   9.413  12.485  0.00  0.00    +0.000 C 
ATOM     17  C   UNL     1      44.993   9.177  11.061  0.00  0.00    +0.000 C 
BRANCH  15  22
ATOM     18  C   UNL     1      44.938   3.508   9.902  0.00  0.00    +0.000 A 
ATOM     19  C   UNL     1      44.148   3.525  11.024  0.00  0.00    +0.000 A 
ATOM     20  N   UNL     1      43.866   4.649  11.716  0.00  0.00    +0.000 NA
ATOM     21  C   UNL     1      44.405   5.796  11.268  0.00  0.00    +0.000 A 
ATOM     22  N   UNL     1      44.133   6.934  12.028  0.00  0.00    +0.000 N 
ATOM     23  N   UNL     1      45.171   5.873  10.168  0.00  0.00    +0.000 NA
ATOM     24  C   UNL     1      45.425   4.728   9.506  0.00  0.00    +0.000 A 
ATOM     25  H   UNL     1      43.774   6.599  12.915  0.00  0.00    +0.000 HD
BRANCH  18  27
ATOM     26  N   UNL     1      45.521   1.326   8.652  0.00  0.00    +0.000 NA
ATOM     27  C   UNL     1      45.258   2.308   9.210  0.00  0.00    +0.000 C 
ENDBRANCH  18  27
ENDBRANCH  15  22
ENDBRANCH   1  15
TORSDOF 5
ENDMDL
