MODEL 1
REMARK VINA RESULT:    -9.029      0.000      0.000
REMARK INTER + INTRA:         -13.183
REMARK INTER:                 -12.196
REMARK INTRA:                  -0.987
REMARK UNBOUND:                -0.987
REMARK  Name = 
REMARK  6 active torsions:
REMARK  status: ('A' for Active; 'I' for Inactive)
REMARK    1  A    between atoms: C_2  and  C_19
REMARK    2  A    between atoms: N_3  and  C_4
REMARK    3  A    between atoms: C_4  and  C_5
REMARK    4  A    between atoms: C_10  and  C_11
REMARK    5  A    between atoms: C_11  and  N_12
REMARK    6  A    between atoms: N_12  and  C_13
REMARK                            x       y       z     vdW  Elec       q    Type
REMARK                         _______ _______ _______ _____ _____    ______ ____
ROOT
ATOM      1  C   UNL     1      46.466   6.301  12.308  0.00  0.00    +0.000 C 
ENDROOT
BRANCH   1   2
ATOM      2  C   UNL     1      45.083   5.815  11.975  0.00  0.00    +0.000 A 
ATOM      3  C   UNL     1      44.116   5.761  12.994  0.00  0.00    +0.000 A 
ATOM      4  C   UNL     1      42.865   5.205  12.748  0.00  0.00    +0.000 A 
ATOM      5  C   UNL     1      42.607   4.728  11.479  0.00  0.00    +0.000 A 
ATOM      6  N   UNL     1      43.494   4.786  10.464  0.00  0.00    +0.000 NA
ATOM      7  C   UNL     1      44.720   5.335  10.708  0.00  0.00    +0.000 A 
BRANCH   7   8
ATOM      8  C   UNL     1      45.681   5.316   9.527  0.00  0.00    +0.000 C 
BRANCH   8   9
ATOM      9  N   UNL     1      45.120   4.529   8.429  0.00  0.00    +0.000 N 
ATOM     10  H   UNL     1      44.750   5.130   7.693  0.00  0.00    +0.000 HD
BRANCH   9  11
ATOM     11  C   UNL     1      45.818   3.446   7.885  0.00  0.00    +0.000 A 
ATOM     12  C   UNL     1      46.767   3.547   6.861  0.00  0.00    +0.000 A 
ATOM     13  C   UNL     1      47.476   2.422   6.417  0.00  0.00    +0.000 A 
ATOM     14  C   UNL     1      47.275   1.180   7.014  0.00  0.00    +0.000 A 
ATOM     15  C   UNL     1      46.360   1.064   8.054  0.00  0.00    +0.000 A 
ATOM     16  C   UNL     1      45.645   2.188   8.484  0.00  0.00    +0.000 A 
ENDBRANCH   9  11
ENDBRANCH   8   9
ENDBRANCH   7   8
ENDBRANCH   1   2
BRANCH   1  19
ATOM     17  O   UNL     1      49.027   6.600  13.186  0.00  0.00    +0.000 OA
ATOM     18  C   UNL     1      48.185   6.317  14.031  0.00  0.00    +0.000 C 
ATOM     19  N   UNL     1      46.862   6.103  13.682  0.00  0.00    +0.000 N 
ATOM     20  H   UNL     1      46.201   5.863  14.414  0.00  0.00    +0.000 HD
BRANCH  18  21
ATOM     21  C   UNL     1      48.515   6.136  15.457  0.00  0.00    +0.000 A 
ATOM     22  N   UNL     1      49.104   7.146  16.123  0.00  0.00    +0.000 NA
ATOM     23  S   UNL     1      49.241   6.743  17.726  0.00  0.00    +0.000 S 
ATOM     24  C   UNL     1      48.560   5.189  17.587  0.00  0.00    +0.000 A 
ATOM     25  N   UNL     1      48.384   4.340  18.636  0.00  0.00    +0.000 NA
ATOM     26  C   UNL     1      47.839   3.215  18.308  0.00  0.00    +0.000 A 
ATOM     27  N   UNL     1      47.471   2.866  17.033  0.00  0.00    +0.000 N 
ATOM     28  C   UNL     1      47.695   3.668  15.932  0.00  0.00    +0.000 A 
ATOM     29  O   UNL     1      47.486   3.237  14.806  0.00  0.00    +0.000 OA
ATOM     30  C   UNL     1      48.239   4.968  16.262  0.00  0.00    +0.000 A 
ATOM     31  H   UNL     1      47.098   1.949  16.832  0.00  0.00    +0.000 HD
ENDBRANCH  18  21
ENDBRANCH   1  19
TORSDOF 6
ENDMDL
MODEL 2
REMARK VINA RESULT:    -8.995      1.135      2.111
REMARK INTER + INTRA:         -13.137
REMARK INTER:                 -12.228
REMARK INTRA:                  -0.909
REMARK UNBOUND:                -0.987
REMARK  Name = 
REMARK  6 active torsions:
REMARK  status: ('A' for Active; 'I' for Inactive)
REMARK    1  A    between atoms: C_2  and  C_19
REMARK    2  A    between atoms: N_3  and  C_4
REMARK    3  A    between atoms: C_4  and  C_5
REMARK    4  A    between atoms: C_10  and  C_11
REMARK    5  A    between atoms: C_11  and  N_12
REMARK    6  A    between atoms: N_12  and  C_13
REMARK                            x       y       z     vdW  Elec       q    Type
REMARK                         _______ _______ _______ _____ _____    ______ ____
ROOT
ATOM      1  C   UNL     1      46.619   5.505  12.557  0.00  0.00    +0.000 C 
ENDROOT
BRANCH   1   2
ATOM      2  C   UNL     1      45.165   5.392  12.191  0.00  0.00    +0.000 A 
ATOM      3  C   UNL     1      44.205   5.355  13.217  0.00  0.00    +0.000 A 
ATOM      4  C   UNL     1      42.865   5.132  12.919  0.00  0.00    +0.000 A 
ATOM      5  C   UNL     1      42.516   4.964  11.595  0.00  0.00    +0.000 A 
ATOM      6  N   UNL     1      43.399   5.021  10.576  0.00  0.00    +0.000 NA
ATOM      7  C   UNL     1      44.713   5.244  10.871  0.00  0.00    +0.000 A 
BRANCH   7   8
ATOM      8  C   UNL     1      45.653   5.241   9.673  0.00  0.00    +0.000 C 
BRANCH   8   9
ATOM      9  N   UNL     1      45.063   4.485   8.568  0.00  0.00    +0.000 N 
ATOM     10  H   UNL     1      44.652   5.106   7.871  0.00  0.00    +0.000 HD
BRANCH   9  11
ATOM     11  C   UNL     1      45.760   3.440   7.954  0.00  0.00    +0.000 A 
ATOM     12  C   UNL     1      46.651   3.598   6.887  0.00  0.00    +0.000 A 
ATOM     13  C   UNL     1      47.365   2.508   6.370  0.00  0.00    +0.000 A 
ATOM     14  C   UNL     1      47.228   1.242   6.936  0.00  0.00    +0.000 A 
ATOM     15  C   UNL     1      46.372   1.069   8.018  0.00  0.00    +0.000 A 
ATOM     16  C   UNL     1      45.652   2.159   8.520  0.00  0.00    +0.000 A 
ENDBRANCH   9  11
ENDBRANCH   8   9
ENDBRANCH   7   8
ENDBRANCH   1   2
BRANCH   1  19
ATOM     17  O   UNL     1      47.268   3.266  13.967  0.00  0.00    +0.000 OA
ATOM     18  C   UNL     1      47.245   4.322  14.591  0.00  0.00    +0.000 C 
ATOM     19  N   UNL     1      46.886   5.511  13.976  0.00  0.00    +0.000 N 
ATOM     20  H   UNL     1      46.873   6.359  14.533  0.00  0.00    +0.000 HD
BRANCH  18  21
ATOM     21  C   UNL     1      47.543   4.405  16.032  0.00  0.00    +0.000 A 
ATOM     22  N   UNL     1      46.859   3.622  16.886  0.00  0.00    +0.000 NA
ATOM     23  S   UNL     1      47.476   3.804  18.415  0.00  0.00    +0.000 S 
ATOM     24  C   UNL     1      48.649   4.968  18.006  0.00  0.00    +0.000 A 
ATOM     25  N   UNL     1      49.520   5.514  18.898  0.00  0.00    +0.000 NA
ATOM     26  C   UNL     1      50.333   6.369  18.373  0.00  0.00    +0.000 A 
ATOM     27  N   UNL     1      50.342   6.730  17.048  0.00  0.00    +0.000 N 
ATOM     28  C   UNL     1      49.432   6.253  16.126  0.00  0.00    +0.000 A 
ATOM     29  O   UNL     1      49.394   6.729  15.000  0.00  0.00    +0.000 OA
ATOM     30  C   UNL     1      48.546   5.238  16.656  0.00  0.00    +0.000 A 
ATOM     31  H   UNL     1      50.969   7.445  16.708  0.00  0.00    +0.000 HD
ENDBRANCH  18  21
ENDBRANCH   1  19
TORSDOF 6
ENDMDL
MODEL 3
REMARK VINA RESULT:    -8.444      1.951      2.530
REMARK INTER + INTRA:         -12.393
REMARK INTER:                 -11.583
REMARK INTRA:                  -0.810
REMARK UNBOUND:                -0.987
REMARK  Name = 
REMARK  6 active torsions:
REMARK  status: ('A' for Active; 'I' for Inactive)
REMARK    1  A    between atoms: C_2  and  C_19
REMARK    2  A    between atoms: N_3  and  C_4
REMARK    3  A    between atoms: C_4  and  C_5
REMARK    4  A    between atoms: C_10  and  C_11
REMARK    5  A    between atoms: C_11  and  N_12
REMARK    6  A    between atoms: N_12  and  C_13
REMARK                            x       y       z     vdW  Elec       q    Type
REMARK                         _______ _______ _______ _____ _____    ______ ____
ROOT
ATOM      1  C   UNL     1      46.424   4.023  13.836  0.00  0.00    +0.000 C 
ENDROOT
BRANCH   1   2
ATOM      2  C   UNL     1      45.836   5.067  12.929  0.00  0.00    +0.000 A 
ATOM      3  C   UNL     1      46.052   6.424  13.222  0.00  0.00    +0.000 A 
ATOM      4  C   UNL     1      45.425   7.415  12.475  0.00  0.00    +0.000 A 
ATOM      5  C   UNL     1      44.603   7.021  11.438  0.00  0.00    +0.000 A 
ATOM      6  N   UNL     1      44.390   5.731  11.104  0.00  0.00    +0.000 NA
ATOM      7  C   UNL     1      45.010   4.762  11.837  0.00  0.00    +0.000 A 
BRANCH   7   8
ATOM      8  C   UNL     1      44.676   3.332  11.430  0.00  0.00    +0.000 C 
BRANCH   8   9
ATOM      9  N   UNL     1      44.211   3.295  10.044  0.00  0.00    +0.000 N 
ATOM     10  H   UNL     1      43.609   4.091   9.833  0.00  0.00    +0.000 HD
BRANCH   9  11
ATOM     11  C   UNL     1      45.097   3.047   8.991  0.00  0.00    +0.000 A 
ATOM     12  C   UNL     1      45.651   4.037   8.171  0.00  0.00    +0.000 A 
ATOM     13  C   UNL     1      46.588   3.714   7.178  0.00  0.00    +0.000 A 
ATOM     14  C   UNL     1      47.014   2.399   7.010  0.00  0.00    +0.000 A 
ATOM     15  C   UNL     1      46.499   1.405   7.835  0.00  0.00    +0.000 A 
ATOM     16  C   UNL     1      45.554   1.732   8.815  0.00  0.00    +0.000 A 
ENDBRANCH   9  11
ENDBRANCH   8   9
ENDBRANCH   7   8
ENDBRANCH   1   2
BRANCH   1  19
ATOM     17  O   UNL     1      46.495   3.597  16.526  0.00  0.00    +0.000 OA
ATOM     18  C   UNL     1      47.451   4.190  16.037  0.00  0.00    +0.000 C 
ATOM     19  N   UNL     1      47.492   4.493  14.686  0.00  0.00    +0.000 N 
ATOM     20  H   UNL     1      48.300   4.991  14.327  0.00  0.00    +0.000 HD
BRANCH  18  21
ATOM     21  C   UNL     1      48.592   4.664  16.841  0.00  0.00    +0.000 A 
ATOM     22  N   UNL     1      48.595   5.934  17.284  0.00  0.00    +0.000 NA
ATOM     23  S   UNL     1      49.909   6.172  18.269  0.00  0.00    +0.000 S 
ATOM     24  C   UNL     1      50.549   4.603  18.107  0.00  0.00    +0.000 A 
ATOM     25  N   UNL     1      51.679   4.175  18.734  0.00  0.00    +0.000 NA
ATOM     26  C   UNL     1      51.981   2.945  18.479  0.00  0.00    +0.000 A 
ATOM     27  N   UNL     1      51.264   2.119  17.650  0.00  0.00    +0.000 N 
ATOM     28  C   UNL     1      50.153   2.532  16.942  0.00  0.00    +0.000 A 
ATOM     29  O   UNL     1      49.652   1.797  16.103  0.00  0.00    +0.000 OA
ATOM     30  C   UNL     1      49.738   3.884  17.251  0.00  0.00    +0.000 A 
ATOM     31  H   UNL     1      51.581   1.181  17.450  0.00  0.00    +0.000 HD
ENDBRANCH  18  21
ENDBRANCH   1  19
TORSDOF 6
ENDMDL
MODEL 4
REMARK VINA RESULT:    -7.887      2.183      3.426
REMARK INTER + INTRA:         -11.640
REMARK INTER:                 -10.754
REMARK INTRA:                  -0.886
REMARK UNBOUND:                -0.987
REMARK  Name = 
REMARK  6 active torsions:
REMARK  status: ('A' for Active; 'I' for Inactive)
REMARK    1  A    between atoms: C_2  and  C_19
REMARK    2  A    between atoms: N_3  and  C_4
REMARK    3  A    between atoms: C_4  and  C_5
REMARK    4  A    between atoms: C_10  and  C_11
REMARK    5  A    between atoms: C_11  and  N_12
REMARK    6  A    between atoms: N_12  and  C_13
REMARK                            x       y       z     vdW  Elec       q    Type
REMARK                         _______ _______ _______ _____ _____    ______ ____
ROOT
ATOM      1  C   UNL     1      46.181   4.093  13.917  0.00  0.00    +0.000 C 
ENDROOT
BRANCH   1   2
ATOM      2  C   UNL     1      46.248   5.380  13.143  0.00  0.00    +0.000 A 
ATOM      3  C   UNL     1      47.221   6.333  13.490  0.00  0.00    +0.000 A 
ATOM      4  C   UNL     1      47.235   7.581  12.875  0.00  0.00    +0.000 A 
ATOM      5  C   UNL     1      46.278   7.839  11.915  0.00  0.00    +0.000 A 
ATOM      6  N   UNL     1      45.344   6.945  11.531  0.00  0.00    +0.000 NA
ATOM      7  C   UNL     1      45.336   5.720  12.133  0.00  0.00    +0.000 A 
BRANCH   7   8
ATOM      8  C   UNL     1      44.220   4.787  11.683  0.00  0.00    +0.000 C 
BRANCH   8   9
ATOM      9  N   UNL     1      44.108   4.797  10.224  0.00  0.00    +0.000 N 
ATOM     10  H   UNL     1      44.130   5.749   9.857  0.00  0.00    +0.000 HD
BRANCH   9  11
ATOM     11  C   UNL     1      44.879   3.939   9.434  0.00  0.00    +0.000 A 
ATOM     12  C   UNL     1      44.856   2.543   9.524  0.00  0.00    +0.000 A 
ATOM     13  C   UNL     1      45.608   1.747   8.647  0.00  0.00    +0.000 A 
ATOM     14  C   UNL     1      46.371   2.334   7.640  0.00  0.00    +0.000 A 
ATOM     15  C   UNL     1      46.383   3.718   7.514  0.00  0.00    +0.000 A 
ATOM     16  C   UNL     1      45.641   4.507   8.401  0.00  0.00    +0.000 A 
ENDBRANCH   9  11
ENDBRANCH   8   9
ENDBRANCH   7   8
ENDBRANCH   1   2
BRANCH   1  19
ATOM     17  O   UNL     1      46.367   3.804  16.619  0.00  0.00    +0.000 OA
ATOM     18  C   UNL     1      47.381   3.573  15.970  0.00  0.00    +0.000 C 
ATOM     19  N   UNL     1      47.403   3.730  14.594  0.00  0.00    +0.000 N 
ATOM     20  H   UNL     1      48.267   3.534  14.099  0.00  0.00    +0.000 HD
BRANCH  18  21
ATOM     21  C   UNL     1      48.652   3.162  16.594  0.00  0.00    +0.000 A 
ATOM     22  N   UNL     1      49.159   1.950  16.305  0.00  0.00    +0.000 NA
ATOM     23  S   UNL     1      50.648   1.790  17.020  0.00  0.00    +0.000 S 
ATOM     24  C   UNL     1      50.654   3.314  17.779  0.00  0.00    +0.000 A 
ATOM     25  N   UNL     1      51.684   3.780  18.538  0.00  0.00    +0.000 NA
ATOM     26  C   UNL     1      51.485   4.965  19.011  0.00  0.00    +0.000 A 
ATOM     27  N   UNL     1      50.353   5.712  18.803  0.00  0.00    +0.000 N 
ATOM     28  C   UNL     1      49.259   5.250  18.098  0.00  0.00    +0.000 A 
ATOM     29  O   UNL     1      48.223   5.900  18.079  0.00  0.00    +0.000 OA
ATOM     30  C   UNL     1      49.465   3.953  17.490  0.00  0.00    +0.000 A 
ATOM     31  H   UNL     1      50.235   6.612  19.244  0.00  0.00    +0.000 HD
ENDBRANCH  18  21
ENDBRANCH   1  19
TORSDOF 6
ENDMDL
MODEL 5
REMARK VINA RESULT:    -7.863      1.566      2.490
REMARK INTER + INTRA:         -11.607
REMARK INTER:                 -11.132
REMARK INTRA:                  -0.475
REMARK UNBOUND:                -0.987
REMARK  Name = 
REMARK  6 active torsions:
REMARK  status: ('A' for Active; 'I' for Inactive)
REMARK    1  A    between atoms: C_2  and  C_19
REMARK    2  A    between atoms: N_3  and  C_4
REMARK    3  A    between atoms: C_4  and  C_5
REMARK    4  A    between atoms: C_10  and  C_11
REMARK    5  A    between atoms: C_11  and  N_12
REMARK    6  A    between atoms: N_12  and  C_13
REMARK                            x       y       z     vdW  Elec       q    Type
REMARK                         _______ _______ _______ _____ _____    ______ ____
ROOT
ATOM      1  C   UNL     1      46.168   5.374  13.388  0.00  0.00    +0.000 C 
ENDROOT
BRANCH   1   2
ATOM      2  C   UNL     1      45.594   6.526  12.612  0.00  0.00    +0.000 A 
ATOM      3  C   UNL     1      46.102   7.818  12.834  0.00  0.00    +0.000 A 
ATOM      4  C   UNL     1      45.515   8.920  12.222  0.00  0.00    +0.000 A 
ATOM      5  C   UNL     1      44.437   8.700  11.390  0.00  0.00    +0.000 A 
ATOM      6  N   UNL     1      43.934   7.476  11.126  0.00  0.00    +0.000 NA
ATOM      7  C   UNL     1      44.515   6.396  11.725  0.00  0.00    +0.000 A 
BRANCH   7   8
ATOM      8  C   UNL     1      43.857   5.057  11.418  0.00  0.00    +0.000 C 
BRANCH   8   9
ATOM      9  N   UNL     1      43.775   4.852   9.972  0.00  0.00    +0.000 N 
ATOM     10  H   UNL     1      43.735   5.740   9.473  0.00  0.00    +0.000 HD
BRANCH   9  11
ATOM     11  C   UNL     1      44.622   3.951   9.320  0.00  0.00    +0.000 A 
ATOM     12  C   UNL     1      44.571   2.561   9.473  0.00  0.00    +0.000 A 
ATOM     13  C   UNL     1      45.411   1.719   8.730  0.00  0.00    +0.000 A 
ATOM     14  C   UNL     1      46.295   2.250   7.794  0.00  0.00    +0.000 A 
ATOM     15  C   UNL     1      46.339   3.627   7.604  0.00  0.00    +0.000 A 
ATOM     16  C   UNL     1      45.508   4.463   8.358  0.00  0.00    +0.000 A 
ENDBRANCH   9  11
ENDBRANCH   8   9
ENDBRANCH   7   8
ENDBRANCH   1   2
BRANCH   1  19
ATOM     17  O   UNL     1      47.454   3.569  14.973  0.00  0.00    +0.000 OA
ATOM     18  C   UNL     1      47.664   4.755  15.206  0.00  0.00    +0.000 C 
ATOM     19  N   UNL     1      47.027   5.752  14.485  0.00  0.00    +0.000 N 
ATOM     20  H   UNL     1      47.226   6.719  14.718  0.00  0.00    +0.000 HD
BRANCH  18  21
ATOM     21  C   UNL     1      48.558   5.210  16.286  0.00  0.00    +0.000 A 
ATOM     22  N   UNL     1      49.402   6.231  16.048  0.00  0.00    +0.000 NA
ATOM     23  S   UNL     1      50.190   6.633  17.451  0.00  0.00    +0.000 S 
ATOM     24  C   UNL     1      49.470   5.433  18.420  0.00  0.00    +0.000 A 
ATOM     25  N   UNL     1      49.729   5.271  19.747  0.00  0.00    +0.000 NA
ATOM     26  C   UNL     1      49.066   4.306  20.292  0.00  0.00    +0.000 A 
ATOM     27  N   UNL     1      48.185   3.489  19.628  0.00  0.00    +0.000 N 
ATOM     28  C   UNL     1      47.946   3.574  18.271  0.00  0.00    +0.000 A 
ATOM     29  O   UNL     1      47.271   2.721  17.712  0.00  0.00    +0.000 OA
ATOM     30  C   UNL     1      48.615   4.688  17.632  0.00  0.00    +0.000 A 
ATOM     31  H   UNL     1      47.736   2.716  20.099  0.00  0.00    +0.000 HD
ENDBRANCH  18  21
ENDBRANCH   1  19
TORSDOF 6
ENDMDL
MODEL 6
REMARK VINA RESULT:    -7.827      1.539      2.074
REMARK INTER + INTRA:         -11.560
REMARK INTER:                 -11.299
REMARK INTRA:                  -0.260
REMARK UNBOUND:                -0.987
REMARK  Name = 
REMARK  6 active torsions:
REMARK  status: ('A' for Active; 'I' for Inactive)
REMARK    1  A    between atoms: C_2  and  C_19
REMARK    2  A    between atoms: N_3  and  C_4
REMARK    3  A    between atoms: C_4  and  C_5
REMARK    4  A    between atoms: C_10  and  C_11
REMARK    5  A    between atoms: C_11  and  N_12
REMARK    6  A    between atoms: N_12  and  C_13
REMARK                            x       y       z     vdW  Elec       q    Type
REMARK                         _______ _______ _______ _____ _____    ______ ____
ROOT
ATOM      1  C   UNL     1      46.184   4.016  13.229  0.00  0.00    +0.000 C 
ENDROOT
BRANCH   1   2
ATOM      2  C   UNL     1      45.011   4.635  12.521  0.00  0.00    +0.000 A 
ATOM      3  C   UNL     1      44.482   5.844  13.008  0.00  0.00    +0.000 A 
ATOM      4  C   UNL     1      43.327   6.381  12.451  0.00  0.00    +0.000 A 
ATOM      5  C   UNL     1      42.734   5.700  11.407  0.00  0.00    +0.000 A 
ATOM      6  N   UNL     1      43.223   4.553  10.890  0.00  0.00    +0.000 NA
ATOM      7  C   UNL     1      44.359   4.031  11.436  0.00  0.00    +0.000 A 
BRANCH   7   8
ATOM      8  C   UNL     1      44.817   2.710  10.832  0.00  0.00    +0.000 C 
BRANCH   8   9
ATOM      9  N   UNL     1      44.502   2.669   9.404  0.00  0.00    +0.000 N 
ATOM     10  H   UNL     1      43.871   3.426   9.141  0.00  0.00    +0.000 HD
BRANCH   9  11
ATOM     11  C   UNL     1      45.507   2.502   8.447  0.00  0.00    +0.000 A 
ATOM     12  C   UNL     1      46.220   1.316   8.243  0.00  0.00    +0.000 A 
ATOM     13  C   UNL     1      47.167   1.206   7.214  0.00  0.00    +0.000 A 
ATOM     14  C   UNL     1      47.394   2.273   6.347  0.00  0.00    +0.000 A 
ATOM     15  C   UNL     1      46.674   3.450   6.513  0.00  0.00    +0.000 A 
ATOM     16  C   UNL     1      45.740   3.558   7.550  0.00  0.00    +0.000 A 
ENDBRANCH   9  11
ENDBRANCH   8   9
ENDBRANCH   7   8
ENDBRANCH   1   2
BRANCH   1  19
ATOM     17  O   UNL     1      47.813   2.994  15.158  0.00  0.00    +0.000 OA
ATOM     18  C   UNL     1      47.570   4.194  15.222  0.00  0.00    +0.000 C 
ATOM     19  N   UNL     1      46.720   4.804  14.313  0.00  0.00    +0.000 N 
ATOM     20  H   UNL     1      46.543   5.798  14.409  0.00  0.00    +0.000 HD
BRANCH  18  21
ATOM     21  C   UNL     1      48.115   5.064  16.280  0.00  0.00    +0.000 A 
ATOM     22  N   UNL     1      48.400   6.346  15.989  0.00  0.00    +0.000 NA
ATOM     23  S   UNL     1      48.863   7.135  17.373  0.00  0.00    +0.000 S 
ATOM     24  C   UNL     1      48.744   5.788  18.406  0.00  0.00    +0.000 A 
ATOM     25  N   UNL     1      49.001   5.829  19.742  0.00  0.00    +0.000 NA
ATOM     26  C   UNL     1      48.838   4.695  20.338  0.00  0.00    +0.000 A 
ATOM     27  N   UNL     1      48.458   3.531  19.716  0.00  0.00    +0.000 N 
ATOM     28  C   UNL     1      48.256   3.430  18.354  0.00  0.00    +0.000 A 
ATOM     29  O   UNL     1      48.070   2.335  17.842  0.00  0.00    +0.000 OA
ATOM     30  C   UNL     1      48.358   4.694  17.656  0.00  0.00    +0.000 A 
ATOM     31  H   UNL     1      48.400   2.663  20.229  0.00  0.00    +0.000 HD
ENDBRANCH  18  21
ENDBRANCH   1  19
TORSDOF 6
ENDMDL
MODEL 7
REMARK VINA RESULT:    -7.418      1.777      2.223
REMARK INTER + INTRA:         -11.006
REMARK INTER:                 -10.151
REMARK INTRA:                  -0.855
REMARK UNBOUND:                -0.987
REMARK  Name = 
REMARK  6 active torsions:
REMARK  status: ('A' for Active; 'I' for Inactive)
REMARK    1  A    between atoms: C_2  and  C_19
REMARK    2  A    between atoms: N_3  and  C_4
REMARK    3  A    between atoms: C_4  and  C_5
REMARK    4  A    between atoms: C_10  and  C_11
REMARK    5  A    between atoms: C_11  and  N_12
REMARK    6  A    between atoms: N_12  and  C_13
REMARK                            x       y       z     vdW  Elec       q    Type
REMARK                         _______ _______ _______ _____ _____    ______ ____
ROOT
ATOM      1  C   UNL     1      45.421   6.427  11.225  0.00  0.00    +0.000 C 
ENDROOT
BRANCH   1   2
ATOM      2  C   UNL     1      44.608   5.194  11.501  0.00  0.00    +0.000 A 
ATOM      3  C   UNL     1      44.375   4.815  12.834  0.00  0.00    +0.000 A 
ATOM      4  C   UNL     1      43.729   3.618  13.123  0.00  0.00    +0.000 A 
ATOM      5  C   UNL     1      43.319   2.832  12.066  0.00  0.00    +0.000 A 
ATOM      6  N   UNL     1      43.496   3.169  10.772  0.00  0.00    +0.000 NA
ATOM      7  C   UNL     1      44.126   4.347  10.491  0.00  0.00    +0.000 A 
BRANCH   7   8
ATOM      8  C   UNL     1      44.334   4.630   9.009  0.00  0.00    +0.000 C 
BRANCH   8   9
ATOM      9  N   UNL     1      45.751   4.518   8.665  0.00  0.00    +0.000 N 
ATOM     10  H   UNL     1      46.346   4.730   9.466  0.00  0.00    +0.000 HD
BRANCH   9  11
ATOM     11  C   UNL     1      46.238   3.412   7.962  0.00  0.00    +0.000 A 
ATOM     12  C   UNL     1      47.068   3.489   6.838  0.00  0.00    +0.000 A 
ATOM     13  C   UNL     1      47.573   2.331   6.228  0.00  0.00    +0.000 A 
ATOM     14  C   UNL     1      47.284   1.074   6.753  0.00  0.00    +0.000 A 
ATOM     15  C   UNL     1      46.487   0.976   7.888  0.00  0.00    +0.000 A 
ATOM     16  C   UNL     1      45.975   2.135   8.483  0.00  0.00    +0.000 A 
ENDBRANCH   9  11
ENDBRANCH   8   9
ENDBRANCH   7   8
ENDBRANCH   1   2
BRANCH   1  19
ATOM     17  O   UNL     1      48.014   7.255  11.123  0.00  0.00    +0.000 OA
ATOM     18  C   UNL     1      47.439   7.379  12.199  0.00  0.00    +0.000 C 
ATOM     19  N   UNL     1      46.132   6.950  12.367  0.00  0.00    +0.000 N 
ATOM     20  H   UNL     1      45.699   7.066  13.277  0.00  0.00    +0.000 HD
BRANCH  18  21
ATOM     21  C   UNL     1      48.094   7.939  13.394  0.00  0.00    +0.000 A 
ATOM     22  N   UNL     1      48.553   9.203  13.354  0.00  0.00    +0.000 NA
ATOM     23  S   UNL     1      49.116   9.633  14.855  0.00  0.00    +0.000 S 
ATOM     24  C   UNL     1      48.810   8.136  15.605  0.00  0.00    +0.000 A 
ATOM     25  N   UNL     1      49.065   7.877  16.916  0.00  0.00    +0.000 NA
ATOM     26  C   UNL     1      48.747   6.679  17.281  0.00  0.00    +0.000 A 
ATOM     27  N   UNL     1      48.213   5.724  16.452  0.00  0.00    +0.000 N 
ATOM     28  C   UNL     1      48.003   5.923  15.102  0.00  0.00    +0.000 A 
ATOM     29  O   UNL     1      47.671   4.986  14.389  0.00  0.00    +0.000 OA
ATOM     30  C   UNL     1      48.280   7.274  14.664  0.00  0.00    +0.000 A 
ATOM     31  H   UNL     1      48.035   4.787  16.785  0.00  0.00    +0.000 HD
ENDBRANCH  18  21
ENDBRANCH   1  19
TORSDOF 6
ENDMDL
MODEL 8
REMARK VINA RESULT:    -7.261      3.315      8.221
REMARK INTER + INTRA:         -10.794
REMARK INTER:                  -9.742
REMARK INTRA:                  -1.053
REMARK UNBOUND:                -0.987
REMARK  Name = 
REMARK  6 active torsions:
REMARK  status: ('A' for Active; 'I' for Inactive)
REMARK    1  A    between atoms: C_2  and  C_19
REMARK    2  A    between atoms: N_3  and  C_4
REMARK    3  A    between atoms: C_4  and  C_5
REMARK    4  A    between atoms: C_10  and  C_11
REMARK    5  A    between atoms: C_11  and  N_12
REMARK    6  A    between atoms: N_12  and  C_13
REMARK                            x       y       z     vdW  Elec       q    Type
REMARK                         _______ _______ _______ _____ _____    ______ ____
ROOT
ATOM      1  C   UNL     1      49.039   6.274  16.219  0.00  0.00    +0.000 C 
ENDROOT
BRANCH   1   2
ATOM      2  C   UNL     1      48.788   5.882  17.648  0.00  0.00    +0.000 A 
ATOM      3  C   UNL     1      48.331   6.856  18.551  0.00  0.00    +0.000 A 
ATOM      4  C   UNL     1      48.203   6.558  19.904  0.00  0.00    +0.000 A 
ATOM      5  C   UNL     1      48.524   5.281  20.317  0.00  0.00    +0.000 A 
ATOM      6  N   UNL     1      48.938   4.306  19.481  0.00  0.00    +0.000 NA
ATOM      7  C   UNL     1      49.059   4.602  18.154  0.00  0.00    +0.000 A 
BRANCH   7   8
ATOM      8  C   UNL     1      49.582   3.465  17.285  0.00  0.00    +0.000 C 
BRANCH   8   9
ATOM      9  N   UNL     1      50.355   2.523  18.094  0.00  0.00    +0.000 N 
ATOM     10  H   UNL     1      49.847   1.650  18.235  0.00  0.00    +0.000 HD
BRANCH   9  11
ATOM     11  C   UNL     1      51.705   2.277  17.823  0.00  0.00    +0.000 A 
ATOM     12  C   UNL     1      52.727   3.223  17.956  0.00  0.00    +0.000 A 
ATOM     13  C   UNL     1      54.068   2.879  17.732  0.00  0.00    +0.000 A 
ATOM     14  C   UNL     1      54.415   1.570  17.404  0.00  0.00    +0.000 A 
ATOM     15  C   UNL     1      53.419   0.607  17.298  0.00  0.00    +0.000 A 
ATOM     16  C   UNL     1      52.081   0.960  17.510  0.00  0.00    +0.000 A 
ENDBRANCH   9  11
ENDBRANCH   8   9
ENDBRANCH   7   8
ENDBRANCH   1   2
BRANCH   1  19
ATOM     17  O   UNL     1      49.147   6.642  13.521  0.00  0.00    +0.000 OA
ATOM     18  C   UNL     1      48.047   6.382  13.998  0.00  0.00    +0.000 C 
ATOM     19  N   UNL     1      47.878   6.217  15.363  0.00  0.00    +0.000 N 
ATOM     20  H   UNL     1      46.948   6.011  15.713  0.00  0.00    +0.000 HD
BRANCH  18  21
ATOM     21  C   UNL     1      46.828   6.272  13.178  0.00  0.00    +0.000 A 
ATOM     22  N   UNL     1      46.285   7.391  12.663  0.00  0.00    +0.000 NA
ATOM     23  S   UNL     1      45.015   6.985  11.677  0.00  0.00    +0.000 S 
ATOM     24  C   UNL     1      45.111   5.305  11.932  0.00  0.00    +0.000 A 
ATOM     25  N   UNL     1      44.287   4.398  11.338  0.00  0.00    +0.000 NA
ATOM     26  C   UNL     1      44.541   3.174  11.664  0.00  0.00    +0.000 A 
ATOM     27  N   UNL     1      45.530   2.784  12.532  0.00  0.00    +0.000 N 
ATOM     28  C   UNL     1      46.340   3.674  13.208  0.00  0.00    +0.000 A 
ATOM     29  O   UNL     1      47.096   3.273  14.083  0.00  0.00    +0.000 OA
ATOM     30  C   UNL     1      46.138   5.054  12.821  0.00  0.00    +0.000 A 
ATOM     31  H   UNL     1      45.644   1.814  12.788  0.00  0.00    +0.000 HD
ENDBRANCH  18  21
ENDBRANCH   1  19
TORSDOF 6
ENDMDL
MODEL 9
REMARK VINA RESULT:    -7.184      3.222      7.896
REMARK INTER + INTRA:         -10.691
REMARK INTER:                  -9.432
REMARK INTRA:                  -1.260
REMARK UNBOUND:                -0.987
REMARK  Name = 
REMARK  6 active torsions:
REMARK  status: ('A' for Active; 'I' for Inactive)
REMARK    1  A    between atoms: C_2  and  C_19
REMARK    2  A    between atoms: N_3  and  C_4
REMARK    3  A    between atoms: C_4  and  C_5
REMARK    4  A    between atoms: C_10  and  C_11
REMARK    5  A    between atoms: C_11  and  N_12
REMARK    6  A    between atoms: N_12  and  C_13
REMARK                            x       y       z     vdW  Elec       q    Type
REMARK                         _______ _______ _______ _____ _____    ______ ____
ROOT
ATOM      1  C   UNL     1      49.108   6.923  15.542  0.00  0.00    +0.000 C 
ENDROOT
BRANCH   1   2
ATOM      2  C   UNL     1      49.079   7.897  16.687  0.00  0.00    +0.000 A 
ATOM      3  C   UNL     1      48.242   9.022  16.604  0.00  0.00    +0.000 A 
ATOM      4  C   UNL     1      48.280  10.002  17.590  0.00  0.00    +0.000 A 
ATOM      5  C   UNL     1      49.149   9.824  18.646  0.00  0.00    +0.000 A 
ATOM      6  N   UNL     1      49.950   8.747  18.781  0.00  0.00    +0.000 NA
ATOM      7  C   UNL     1      49.908   7.785  17.814  0.00  0.00    +0.000 A 
BRANCH   7   8
ATOM      8  C   UNL     1      50.878   6.628  18.011  0.00  0.00    +0.000 C 
BRANCH   8   9
ATOM      9  N   UNL     1      50.246   5.564  18.792  0.00  0.00    +0.000 N 
ATOM     10  H   UNL     1      49.565   5.940  19.450  0.00  0.00    +0.000 HD
BRANCH   9  11
ATOM     11  C   UNL     1      49.757   4.408  18.174  0.00  0.00    +0.000 A 
ATOM     12  C   UNL     1      48.412   4.185  17.859  0.00  0.00    +0.000 A 
ATOM     13  C   UNL     1      48.010   3.028  17.176  0.00  0.00    +0.000 A 
ATOM     14  C   UNL     1      48.951   2.088  16.765  0.00  0.00    +0.000 A 
ATOM     15  C   UNL     1      50.296   2.305  17.041  0.00  0.00    +0.000 A 
ATOM     16  C   UNL     1      50.690   3.455  17.735  0.00  0.00    +0.000 A 
ENDBRANCH   9  11
ENDBRANCH   8   9
ENDBRANCH   7   8
ENDBRANCH   1   2
BRANCH   1  19
ATOM     17  O   UNL     1      48.955   6.239  12.910  0.00  0.00    +0.000 OA
ATOM     18  C   UNL     1      47.892   6.405  13.498  0.00  0.00    +0.000 C 
ATOM     19  N   UNL     1      47.860   6.795  14.827  0.00  0.00    +0.000 N 
ATOM     20  H   UNL     1      46.958   6.928  15.270  0.00  0.00    +0.000 HD
BRANCH  18  21
ATOM     21  C   UNL     1      46.583   6.254  12.838  0.00  0.00    +0.000 A 
ATOM     22  N   UNL     1      45.968   7.347  12.350  0.00  0.00    +0.000 NA
ATOM     23  S   UNL     1      44.592   6.891  11.542  0.00  0.00    +0.000 S 
ATOM     24  C   UNL     1      44.738   5.224  11.850  0.00  0.00    +0.000 A 
ATOM     25  N   UNL     1      43.860   4.288  11.398  0.00  0.00    +0.000 NA
ATOM     26  C   UNL     1      44.166   3.080  11.738  0.00  0.00    +0.000 A 
ATOM     27  N   UNL     1      45.258   2.732  12.494  0.00  0.00    +0.000 N 
ATOM     28  C   UNL     1      46.134   3.655  13.030  0.00  0.00    +0.000 A 
ATOM     29  O   UNL     1      46.995   3.296  13.821  0.00  0.00    +0.000 OA
ATOM     30  C   UNL     1      45.869   5.017  12.616  0.00  0.00    +0.000 A 
ATOM     31  H   UNL     1      45.415   1.774  12.772  0.00  0.00    +0.000 HD
ENDBRANCH  18  21
ENDBRANCH   1  19
TORSDOF 6
ENDMDL
