MODEL 1
REMARK VINA RESULT:    -7.902      0.000      0.000
REMARK INTER + INTRA:         -13.660
REMARK INTER:                 -12.060
REMARK INTRA:                  -1.600
REMARK UNBOUND:                -1.600
REMARK  Name = 
REMARK  10 active torsions:
REMARK  status: ('A' for Active; 'I' for Inactive)
REMARK    1  A    between atoms: C_1  and  C_2
REMARK    2  A    between atoms: C_2  and  O_3
REMARK    3  A    between atoms: O_3  and  C_4
REMARK    4  A    between atoms: C_4  and  C_5
REMARK    5  A    between atoms: C_5  and  C_6
REMARK    6  A    between atoms: C_6  and  N_7
REMARK    7  A    between atoms: C_6  and  C_20
REMARK    8  A    between atoms: C_8  and  C_10
REMARK    9  A    between atoms: C_23  and  O_24
REMARK   10  A    between atoms: O_24  and  C_25
REMARK                            x       y       z     vdW  Elec       q    Type
REMARK                         _______ _______ _______ _____ _____    ______ ____
ROOT
ATOM      1  C   UNL     1      45.616   5.916  13.070  0.00  0.00    +0.000 C 
ENDROOT
BRANCH   1   2
ATOM      2  C   UNL     1      45.258   5.385  11.682  0.00  0.00    +0.000 A 
ATOM      3  C   UNL     1      44.305   4.361  11.561  0.00  0.00    +0.000 A 
ATOM      4  C   UNL     1      44.095   3.726  10.336  0.00  0.00    +0.000 A 
ATOM      5  C   UNL     1      44.761   4.167   9.191  0.00  0.00    +0.000 A 
ATOM      6  C   UNL     1      45.689   5.202   9.291  0.00  0.00    +0.000 A 
ATOM      7  C   UNL     1      45.946   5.798  10.530  0.00  0.00    +0.000 A 
BRANCH   5   8
ATOM      8  O   UNL     1      44.633   3.579   7.953  0.00  0.00    +0.000 OA
BRANCH   8   9
ATOM      9  C   UNL     1      45.700   2.839   7.457  0.00  0.00    +0.000 A 
ATOM     10  C   UNL     1      46.322   3.335   6.322  0.00  0.00    +0.000 A 
ATOM     11  C   UNL     1      47.403   2.629   5.805  0.00  0.00    +0.000 A 
ATOM     12  C   UNL     1      47.818   1.459   6.437  0.00  0.00    +0.000 A 
ATOM     13  C   UNL     1      47.120   1.029   7.546  0.00  0.00    +0.000 A 
ATOM     14  N   UNL     1      46.062   1.685   8.064  0.00  0.00    +0.000 NA
ENDBRANCH   8   9
ENDBRANCH   5   8
ENDBRANCH   1   2
BRANCH   1  15
ATOM     15  N   UNL     1      46.770   6.799  12.982  0.00  0.00    +0.000 N 
ATOM     16  C   UNL     1      46.681   8.166  13.052  0.00  0.00    +0.000 C 
ATOM     17  O   UNL     1      45.635   8.755  13.302  0.00  0.00    +0.000 OA
ATOM     18  H   UNL     1      47.562   6.421  12.469  0.00  0.00    +0.000 HD
BRANCH  16  19
ATOM     19  C   UNL     1      47.932   8.903  12.845  0.00  0.00    +0.000 A 
ATOM     20  C   UNL     1      47.943  10.036  12.045  0.00  0.00    +0.000 A 
ATOM     21  S   UNL     1      49.490  10.738  11.880  0.00  0.00    +0.000 S 
ATOM     22  C   UNL     1      50.205   9.525  12.835  0.00  0.00    +0.000 A 
ATOM     23  N   UNL     1      51.547   9.492  13.044  0.00  0.00    +0.000 NA
ATOM     24  C   UNL     1      51.951   8.495  13.760  0.00  0.00    +0.000 A 
ATOM     25  N   UNL     1      51.133   7.544  14.313  0.00  0.00    +0.000 N 
ATOM     26  C   UNL     1      49.765   7.571  14.178  0.00  0.00    +0.000 A 
ATOM     27  O   UNL     1      49.046   6.770  14.767  0.00  0.00    +0.000 OA
ATOM     28  C   UNL     1      49.265   8.633  13.326  0.00  0.00    +0.000 A 
ATOM     29  H   UNL     1      51.508   6.812  14.897  0.00  0.00    +0.000 HD
ENDBRANCH  16  19
ENDBRANCH   1  15
BRANCH   1  30
ATOM     30  C   UNL     1      45.824   4.736  14.050  0.00  0.00    +0.000 C 
BRANCH  30  31
ATOM     31  C   UNL     1      47.144   4.015  13.785  0.00  0.00    +0.000 C 
BRANCH  31  32
ATOM     32  O   UNL     1      47.513   3.171  14.875  0.00  0.00    +0.000 OA
BRANCH  32  34
ATOM     33  C   UNL     1      47.502   2.990  17.272  0.00  0.00    +0.000 C 
ATOM     34  C   UNL     1      47.500   3.929  16.088  0.00  0.00    +0.000 C 
ENDBRANCH  32  34
ENDBRANCH  31  32
ENDBRANCH  30  31
ENDBRANCH   1  30
TORSDOF 9
ENDMDL
MODEL 2
REMARK VINA RESULT:    -7.537      2.572      4.961
REMARK INTER + INTRA:         -13.102
REMARK INTER:                 -11.920
REMARK INTRA:                  -1.182
REMARK UNBOUND:                -1.600
REMARK  Name = 
REMARK  10 active torsions:
REMARK  status: ('A' for Active; 'I' for Inactive)
REMARK    1  A    between atoms: C_1  and  C_2
REMARK    2  A    between atoms: C_2  and  O_3
REMARK    3  A    between atoms: O_3  and  C_4
REMARK    4  A    between atoms: C_4  and  C_5
REMARK    5  A    between atoms: C_5  and  C_6
REMARK    6  A    between atoms: C_6  and  N_7
REMARK    7  A    between atoms: C_6  and  C_20
REMARK    8  A    between atoms: C_8  and  C_10
REMARK    9  A    between atoms: C_23  and  O_24
REMARK   10  A    between atoms: O_24  and  C_25
REMARK                            x       y       z     vdW  Elec       q    Type
REMARK                         _______ _______ _______ _____ _____    ______ ____
ROOT
ATOM      1  C   UNL     1      46.452   7.871  12.700  0.00  0.00    +0.000 C 
ENDROOT
BRANCH   1   2
ATOM      2  C   UNL     1      46.022   6.665  11.864  0.00  0.00    +0.000 A 
ATOM      3  C   UNL     1      46.570   6.483  10.584  0.00  0.00    +0.000 A 
ATOM      4  C   UNL     1      46.061   5.507   9.725  0.00  0.00    +0.000 A 
ATOM      5  C   UNL     1      45.065   4.634  10.163  0.00  0.00    +0.000 A 
ATOM      6  C   UNL     1      44.531   4.785  11.442  0.00  0.00    +0.000 A 
ATOM      7  C   UNL     1      44.995   5.802  12.282  0.00  0.00    +0.000 A 
BRANCH   5   8
ATOM      8  O   UNL     1      44.489   3.665   9.372  0.00  0.00    +0.000 OA
BRANCH   8   9
ATOM      9  C   UNL     1      45.306   2.932   8.520  0.00  0.00    +0.000 A 
ATOM     10  C   UNL     1      45.717   3.567   7.359  0.00  0.00    +0.000 A 
ATOM     11  C   UNL     1      46.548   2.869   6.489  0.00  0.00    +0.000 A 
ATOM     12  C   UNL     1      46.933   1.569   6.809  0.00  0.00    +0.000 A 
ATOM     13  C   UNL     1      46.451   1.011   7.974  0.00  0.00    +0.000 A 
ATOM     14  N   UNL     1      45.636   1.657   8.832  0.00  0.00    +0.000 NA
ENDBRANCH   8   9
ENDBRANCH   5   8
ENDBRANCH   1   2
BRANCH   1  15
ATOM     15  N   UNL     1      47.021   7.422  13.962  0.00  0.00    +0.000 N 
ATOM     16  C   UNL     1      48.266   6.857  14.069  0.00  0.00    +0.000 C 
ATOM     17  O   UNL     1      49.047   6.778  13.127  0.00  0.00    +0.000 OA
ATOM     18  H   UNL     1      46.342   7.164  14.672  0.00  0.00    +0.000 HD
BRANCH  16  19
ATOM     19  C   UNL     1      48.639   6.373  15.403  0.00  0.00    +0.000 A 
ATOM     20  C   UNL     1      49.607   7.043  16.137  0.00  0.00    +0.000 A 
ATOM     21  S   UNL     1      49.945   6.315  17.642  0.00  0.00    +0.000 S 
ATOM     22  C   UNL     1      48.842   5.054  17.345  0.00  0.00    +0.000 A 
ATOM     23  N   UNL     1      48.687   4.031  18.226  0.00  0.00    +0.000 NA
ATOM     24  C   UNL     1      47.841   3.129  17.851  0.00  0.00    +0.000 A 
ATOM     25  N   UNL     1      47.111   3.171  16.691  0.00  0.00    +0.000 N 
ATOM     26  C   UNL     1      47.192   4.215  15.800  0.00  0.00    +0.000 A 
ATOM     27  O   UNL     1      46.455   4.281  14.822  0.00  0.00    +0.000 OA
ATOM     28  C   UNL     1      48.178   5.222  16.141  0.00  0.00    +0.000 A 
ATOM     29  H   UNL     1      46.436   2.454  16.476  0.00  0.00    +0.000 HD
ENDBRANCH  16  19
ENDBRANCH   1  15
BRANCH   1  30
ATOM     30  C   UNL     1      45.261   8.843  12.878  0.00  0.00    +0.000 C 
BRANCH  30  31
ATOM     31  C   UNL     1      45.240   9.908  11.784  0.00  0.00    +0.000 C 
BRANCH  31  32
ATOM     32  O   UNL     1      44.354  10.979  12.105  0.00  0.00    +0.000 OA
BRANCH  32  34
ATOM     33  C   UNL     1      43.756  10.380   9.854  0.00  0.00    +0.000 C 
ATOM     34  C   UNL     1      43.744  11.466  10.905  0.00  0.00    +0.000 C 
ENDBRANCH  32  34
ENDBRANCH  31  32
ENDBRANCH  30  31
ENDBRANCH   1  30
TORSDOF 9
ENDMDL
MODEL 3
REMARK VINA RESULT:    -7.513      2.684      4.563
REMARK INTER + INTRA:         -13.066
REMARK INTER:                 -11.910
REMARK INTRA:                  -1.156
REMARK UNBOUND:                -1.600
REMARK  Name = 
REMARK  10 active torsions:
REMARK  status: ('A' for Active; 'I' for Inactive)
REMARK    1  A    between atoms: C_1  and  C_2
REMARK    2  A    between atoms: C_2  and  O_3
REMARK    3  A    between atoms: O_3  and  C_4
REMARK    4  A    between atoms: C_4  and  C_5
REMARK    5  A    between atoms: C_5  and  C_6
REMARK    6  A    between atoms: C_6  and  N_7
REMARK    7  A    between atoms: C_6  and  C_20
REMARK    8  A    between atoms: C_8  and  C_10
REMARK    9  A    between atoms: C_23  and  O_24
REMARK   10  A    between atoms: O_24  and  C_25
REMARK                            x       y       z     vdW  Elec       q    Type
REMARK                         _______ _______ _______ _____ _____    ______ ____
ROOT
ATOM      1  C   UNL     1      46.430   6.806  12.768  0.00  0.00    +0.000 C 
ENDROOT
BRANCH   1   2
ATOM      2  C   UNL     1      45.804   5.812  11.789  0.00  0.00    +0.000 A 
ATOM      3  C   UNL     1      45.248   4.619  12.279  0.00  0.00    +0.000 A 
ATOM      4  C   UNL     1      44.842   3.612  11.403  0.00  0.00    +0.000 A 
ATOM      5  C   UNL     1      44.894   3.816  10.023  0.00  0.00    +0.000 A 
ATOM      6  C   UNL     1      45.418   5.007   9.523  0.00  0.00    +0.000 A 
ATOM      7  C   UNL     1      45.882   5.993  10.398  0.00  0.00    +0.000 A 
BRANCH   5   8
ATOM      8  O   UNL     1      44.542   2.865   9.091  0.00  0.00    +0.000 OA
BRANCH   8   9
ATOM      9  C   UNL     1      45.516   2.401   8.216  0.00  0.00    +0.000 A 
ATOM     10  C   UNL     1      45.854   3.238   7.165  0.00  0.00    +0.000 A 
ATOM     11  C   UNL     1      46.836   2.813   6.277  0.00  0.00    +0.000 A 
ATOM     12  C   UNL     1      47.439   1.572   6.469  0.00  0.00    +0.000 A 
ATOM     13  C   UNL     1      47.018   0.796   7.529  0.00  0.00    +0.000 A 
ATOM     14  N   UNL     1      46.061   1.175   8.400  0.00  0.00    +0.000 NA
ENDBRANCH   8   9
ENDBRANCH   5   8
ENDBRANCH   1   2
BRANCH   1  15
ATOM     15  N   UNL     1      46.648   6.165  14.056  0.00  0.00    +0.000 N 
ATOM     16  C   UNL     1      47.890   5.828  14.530  0.00  0.00    +0.000 C 
ATOM     17  O   UNL     1      48.929   6.133  13.956  0.00  0.00    +0.000 OA
ATOM     18  H   UNL     1      45.866   5.616  14.400  0.00  0.00    +0.000 HD
BRANCH  16  19
ATOM     19  C   UNL     1      47.916   5.098  15.803  0.00  0.00    +0.000 A 
ATOM     20  C   UNL     1      47.437   3.798  15.865  0.00  0.00    +0.000 A 
ATOM     21  S   UNL     1      47.502   3.122  17.430  0.00  0.00    +0.000 S 
ATOM     22  C   UNL     1      48.132   4.560  18.087  0.00  0.00    +0.000 A 
ATOM     23  N   UNL     1      48.363   4.684  19.420  0.00  0.00    +0.000 NA
ATOM     24  C   UNL     1      48.809   5.843  19.778  0.00  0.00    +0.000 A 
ATOM     25  N   UNL     1      49.074   6.881  18.922  0.00  0.00    +0.000 N 
ATOM     26  C   UNL     1      48.911   6.781  17.560  0.00  0.00    +0.000 A 
ATOM     27  O   UNL     1      49.252   7.685  16.805  0.00  0.00    +0.000 OA
ATOM     28  C   UNL     1      48.348   5.521  17.112  0.00  0.00    +0.000 A 
ATOM     29  H   UNL     1      49.459   7.749  19.261  0.00  0.00    +0.000 HD
ENDBRANCH  16  19
ENDBRANCH   1  15
BRANCH   1  30
ATOM     30  C   UNL     1      45.556   8.080  12.860  0.00  0.00    +0.000 C 
BRANCH  30  31
ATOM     31  C   UNL     1      46.399   9.347  12.731  0.00  0.00    +0.000 C 
BRANCH  31  32
ATOM     32  O   UNL     1      47.793   9.070  12.862  0.00  0.00    +0.000 OA
BRANCH  32  34
ATOM     33  C   UNL     1      49.767   8.748  11.528  0.00  0.00    +0.000 C 
ATOM     34  C   UNL     1      48.477   9.519  11.687  0.00  0.00    +0.000 C 
ENDBRANCH  32  34
ENDBRANCH  31  32
ENDBRANCH  30  31
ENDBRANCH   1  30
TORSDOF 9
ENDMDL
MODEL 4
REMARK VINA RESULT:    -6.980      1.553      2.403
REMARK INTER + INTRA:         -12.253
REMARK INTER:                 -10.796
REMARK INTRA:                  -1.456
REMARK UNBOUND:                -1.600
REMARK  Name = 
REMARK  10 active torsions:
REMARK  status: ('A' for Active; 'I' for Inactive)
REMARK    1  A    between atoms: C_1  and  C_2
REMARK    2  A    between atoms: C_2  and  O_3
REMARK    3  A    between atoms: O_3  and  C_4
REMARK    4  A    between atoms: C_4  and  C_5
REMARK    5  A    between atoms: C_5  and  C_6
REMARK    6  A    between atoms: C_6  and  N_7
REMARK    7  A    between atoms: C_6  and  C_20
REMARK    8  A    between atoms: C_8  and  C_10
REMARK    9  A    between atoms: C_23  and  O_24
REMARK   10  A    between atoms: O_24  and  C_25
REMARK                            x       y       z     vdW  Elec       q    Type
REMARK                         _______ _______ _______ _____ _____    ______ ____
ROOT
ATOM      1  C   UNL     1      47.084   5.569  14.098  0.00  0.00    +0.000 C 
ENDROOT
BRANCH   1   2
ATOM      2  C   UNL     1      46.282   5.092  12.887  0.00  0.00    +0.000 A 
ATOM      3  C   UNL     1      45.741   3.796  12.884  0.00  0.00    +0.000 A 
ATOM      4  C   UNL     1      45.171   3.266  11.726  0.00  0.00    +0.000 A 
ATOM      5  C   UNL     1      45.043   4.053  10.580  0.00  0.00    +0.000 A 
ATOM      6  C   UNL     1      45.550   5.352  10.577  0.00  0.00    +0.000 A 
ATOM      7  C   UNL     1      46.178   5.863  11.717  0.00  0.00    +0.000 A 
BRANCH   5   8
ATOM      8  O   UNL     1      44.521   3.599   9.390  0.00  0.00    +0.000 OA
BRANCH   8   9
ATOM      9  C   UNL     1      45.361   2.929   8.510  0.00  0.00    +0.000 A 
ATOM     10  C   UNL     1      45.827   3.654   7.424  0.00  0.00    +0.000 A 
ATOM     11  C   UNL     1      46.682   3.019   6.529  0.00  0.00    +0.000 A 
ATOM     12  C   UNL     1      47.036   1.690   6.751  0.00  0.00    +0.000 A 
ATOM     13  C   UNL     1      46.502   1.042   7.844  0.00  0.00    +0.000 A 
ATOM     14  N   UNL     1      45.662   1.626   8.723  0.00  0.00    +0.000 NA
ENDBRANCH   8   9
ENDBRANCH   5   8
ENDBRANCH   1   2
BRANCH   1  15
ATOM     15  N   UNL     1      48.205   6.387  13.662  0.00  0.00    +0.000 N 
ATOM     16  C   UNL     1      48.719   7.419  14.405  0.00  0.00    +0.000 C 
ATOM     17  O   UNL     1      48.347   7.671  15.545  0.00  0.00    +0.000 OA
ATOM     18  H   UNL     1      48.326   6.447  12.655  0.00  0.00    +0.000 HD
BRANCH  16  19
ATOM     19  C   UNL     1      49.784   8.201  13.768  0.00  0.00    +0.000 A 
ATOM     20  C   UNL     1      51.084   8.120  14.248  0.00  0.00    +0.000 A 
ATOM     21  S   UNL     1      52.180   9.129  13.416  0.00  0.00    +0.000 S 
ATOM     22  C   UNL     1      50.948   9.741  12.416  0.00  0.00    +0.000 A 
ATOM     23  N   UNL     1      51.200  10.714  11.502  0.00  0.00    +0.000 NA
ATOM     24  C   UNL     1      50.161  11.105  10.839  0.00  0.00    +0.000 A 
ATOM     25  N   UNL     1      48.898  10.591  10.985  0.00  0.00    +0.000 N 
ATOM     26  C   UNL     1      48.609   9.566  11.854  0.00  0.00    +0.000 A 
ATOM     27  O   UNL     1      47.496   9.053  11.892  0.00  0.00    +0.000 OA
ATOM     28  C   UNL     1      49.727   9.137  12.672  0.00  0.00    +0.000 A 
ATOM     29  H   UNL     1      48.138  10.913  10.407  0.00  0.00    +0.000 HD
ENDBRANCH  16  19
ENDBRANCH   1  15
BRANCH   1  30
ATOM     30  C   UNL     1      47.512   4.355  14.959  0.00  0.00    +0.000 C 
BRANCH  30  31
ATOM     31  C   UNL     1      47.226   4.593  16.441  0.00  0.00    +0.000 C 
BRANCH  31  32
ATOM     32  O   UNL     1      46.571   3.475  17.039  0.00  0.00    +0.000 OA
BRANCH  32  34
ATOM     33  C   UNL     1      48.550   3.658  18.392  0.00  0.00    +0.000 C 
ATOM     34  C   UNL     1      47.518   2.723  17.804  0.00  0.00    +0.000 C 
ENDBRANCH  32  34
ENDBRANCH  31  32
ENDBRANCH  30  31
ENDBRANCH   1  30
TORSDOF 9
ENDMDL
MODEL 5
REMARK VINA RESULT:    -6.714      3.391      5.317
REMARK INTER + INTRA:         -11.846
REMARK INTER:                 -10.112
REMARK INTRA:                  -1.734
REMARK UNBOUND:                -1.600
REMARK  Name = 
REMARK  10 active torsions:
REMARK  status: ('A' for Active; 'I' for Inactive)
REMARK    1  A    between atoms: C_1  and  C_2
REMARK    2  A    between atoms: C_2  and  O_3
REMARK    3  A    between atoms: O_3  and  C_4
REMARK    4  A    between atoms: C_4  and  C_5
REMARK    5  A    between atoms: C_5  and  C_6
REMARK    6  A    between atoms: C_6  and  N_7
REMARK    7  A    between atoms: C_6  and  C_20
REMARK    8  A    between atoms: C_8  and  C_10
REMARK    9  A    between atoms: C_23  and  O_24
REMARK   10  A    between atoms: O_24  and  C_25
REMARK                            x       y       z     vdW  Elec       q    Type
REMARK                         _______ _______ _______ _____ _____    ______ ____
ROOT
ATOM      1  C   UNL     1      47.924   7.426  13.896  0.00  0.00    +0.000 C 
ENDROOT
BRANCH   1   2
ATOM      2  C   UNL     1      46.888   6.712  13.028  0.00  0.00    +0.000 A 
ATOM      3  C   UNL     1      46.560   5.375  13.303  0.00  0.00    +0.000 A 
ATOM      4  C   UNL     1      45.766   4.641  12.421  0.00  0.00    +0.000 A 
ATOM      5  C   UNL     1      45.206   5.256  11.300  0.00  0.00    +0.000 A 
ATOM      6  C   UNL     1      45.500   6.592  11.029  0.00  0.00    +0.000 A 
ATOM      7  C   UNL     1      46.346   7.311  11.879  0.00  0.00    +0.000 A 
BRANCH   5   8
ATOM      8  O   UNL     1      44.438   4.598  10.366  0.00  0.00    +0.000 OA
BRANCH   8   9
ATOM      9  C   UNL     1      45.080   3.862   9.378  0.00  0.00    +0.000 A 
ATOM     10  C   UNL     1      45.076   2.484   9.533  0.00  0.00    +0.000 A 
ATOM     11  C   UNL     1      45.697   1.713   8.555  0.00  0.00    +0.000 A 
ATOM     12  C   UNL     1      46.297   2.344   7.468  0.00  0.00    +0.000 A 
ATOM     13  C   UNL     1      46.272   3.722   7.414  0.00  0.00    +0.000 A 
ATOM     14  N   UNL     1      45.690   4.497   8.350  0.00  0.00    +0.000 NA
ENDBRANCH   8   9
ENDBRANCH   5   8
ENDBRANCH   1   2
BRANCH   1  15
ATOM     15  N   UNL     1      47.928   6.856  15.236  0.00  0.00    +0.000 N 
ATOM     16  C   UNL     1      49.064   6.409  15.862  0.00  0.00    +0.000 C 
ATOM     17  O   UNL     1      50.186   6.548  15.389  0.00  0.00    +0.000 OA
ATOM     18  H   UNL     1      47.052   6.428  15.522  0.00  0.00    +0.000 HD
BRANCH  16  19
ATOM     19  C   UNL     1      48.868   5.773  17.169  0.00  0.00    +0.000 A 
ATOM     20  C   UNL     1      49.074   4.408  17.313  0.00  0.00    +0.000 A 
ATOM     21  S   UNL     1      48.758   3.835  18.888  0.00  0.00    +0.000 S 
ATOM     22  C   UNL     1      48.292   5.382  19.420  0.00  0.00    +0.000 A 
ATOM     23  N   UNL     1      47.833   5.584  20.683  0.00  0.00    +0.000 NA
ATOM     24  C   UNL     1      47.484   6.803  20.934  0.00  0.00    +0.000 A 
ATOM     25  N   UNL     1      47.580   7.846  20.048  0.00  0.00    +0.000 N 
ATOM     26  C   UNL     1      48.093   7.699  18.781  0.00  0.00    +0.000 A 
ATOM     27  O   UNL     1      48.265   8.663  18.044  0.00  0.00    +0.000 OA
ATOM     28  C   UNL     1      48.437   6.336  18.426  0.00  0.00    +0.000 A 
ATOM     29  H   UNL     1      47.328   8.783  20.321  0.00  0.00    +0.000 HD
ENDBRANCH  16  19
ENDBRANCH   1  15
BRANCH   1  30
ATOM     30  C   UNL     1      47.665   8.951  13.883  0.00  0.00    +0.000 C 
BRANCH  30  31
ATOM     31  C   UNL     1      48.851   9.725  14.455  0.00  0.00    +0.000 C 
BRANCH  31  32
ATOM     32  O   UNL     1      50.039   9.512  13.693  0.00  0.00    +0.000 OA
BRANCH  32  34
ATOM     33  C   UNL     1      50.781  10.012  15.925  0.00  0.00    +0.000 C 
ATOM     34  C   UNL     1      51.176   9.898  14.471  0.00  0.00    +0.000 C 
ENDBRANCH  32  34
ENDBRANCH  31  32
ENDBRANCH  30  31
ENDBRANCH   1  30
TORSDOF 9
ENDMDL
MODEL 6
REMARK VINA RESULT:    -6.550      3.261      8.235
REMARK INTER + INTRA:         -11.596
REMARK INTER:                 -10.077
REMARK INTRA:                  -1.519
REMARK UNBOUND:                -1.600
REMARK  Name = 
REMARK  10 active torsions:
REMARK  status: ('A' for Active; 'I' for Inactive)
REMARK    1  A    between atoms: C_1  and  C_2
REMARK    2  A    between atoms: C_2  and  O_3
REMARK    3  A    between atoms: O_3  and  C_4
REMARK    4  A    between atoms: C_4  and  C_5
REMARK    5  A    between atoms: C_5  and  C_6
REMARK    6  A    between atoms: C_6  and  N_7
REMARK    7  A    between atoms: C_6  and  C_20
REMARK    8  A    between atoms: C_8  and  C_10
REMARK    9  A    between atoms: C_23  and  O_24
REMARK   10  A    between atoms: O_24  and  C_25
REMARK                            x       y       z     vdW  Elec       q    Type
REMARK                         _______ _______ _______ _____ _____    ______ ____
ROOT
ATOM      1  C   UNL     1      48.505   7.651  12.869  0.00  0.00    +0.000 C 
ENDROOT
BRANCH   1   2
ATOM      2  C   UNL     1      48.809   7.088  14.258  0.00  0.00    +0.000 A 
ATOM      3  C   UNL     1      50.040   7.381  14.866  0.00  0.00    +0.000 A 
ATOM      4  C   UNL     1      50.425   6.733  16.041  0.00  0.00    +0.000 A 
ATOM      5  C   UNL     1      49.547   5.855  16.681  0.00  0.00    +0.000 A 
ATOM      6  C   UNL     1      48.310   5.577  16.103  0.00  0.00    +0.000 A 
ATOM      7  C   UNL     1      47.948   6.177  14.893  0.00  0.00    +0.000 A 
BRANCH   5   8
ATOM      8  O   UNL     1      49.859   5.154  17.824  0.00  0.00    +0.000 OA
BRANCH   8   9
ATOM      9  C   UNL     1      50.555   3.958  17.700  0.00  0.00    +0.000 A 
ATOM     10  C   UNL     1      51.854   3.944  18.185  0.00  0.00    +0.000 A 
ATOM     11  C   UNL     1      52.576   2.760  18.092  0.00  0.00    +0.000 A 
ATOM     12  C   UNL     1      51.979   1.640  17.517  0.00  0.00    +0.000 A 
ATOM     13  C   UNL     1      50.691   1.757  17.038  0.00  0.00    +0.000 A 
ATOM     14  N   UNL     1      49.969   2.894  17.103  0.00  0.00    +0.000 NA
ENDBRANCH   8   9
ENDBRANCH   5   8
ENDBRANCH   1   2
BRANCH   1  15
ATOM     15  N   UNL     1      47.753   6.677  12.092  0.00  0.00    +0.000 N 
ATOM     16  C   UNL     1      46.451   6.866  11.704  0.00  0.00    +0.000 C 
ATOM     17  O   UNL     1      45.844   7.915  11.888  0.00  0.00    +0.000 OA
ATOM     18  H   UNL     1      48.062   5.715  12.194  0.00  0.00    +0.000 HD
BRANCH  16  19
ATOM     19  C   UNL     1      45.817   5.739  11.011  0.00  0.00    +0.000 A 
ATOM     20  C   UNL     1      45.905   5.638   9.630  0.00  0.00    +0.000 A 
ATOM     21  S   UNL     1      45.074   4.291   8.992  0.00  0.00    +0.000 S 
ATOM     22  C   UNL     1      44.531   3.822  10.535  0.00  0.00    +0.000 A 
ATOM     23  N   UNL     1      43.700   2.759  10.697  0.00  0.00    +0.000 NA
ATOM     24  C   UNL     1      43.344   2.544  11.920  0.00  0.00    +0.000 A 
ATOM     25  N   UNL     1      43.766   3.274  13.002  0.00  0.00    +0.000 N 
ATOM     26  C   UNL     1      44.652   4.320  12.892  0.00  0.00    +0.000 A 
ATOM     27  O   UNL     1      45.095   4.891  13.882  0.00  0.00    +0.000 OA
ATOM     28  C   UNL     1      45.030   4.647  11.530  0.00  0.00    +0.000 A 
ATOM     29  H   UNL     1      43.481   3.028  13.937  0.00  0.00    +0.000 HD
ENDBRANCH  16  19
ENDBRANCH   1  15
BRANCH   1  30
ATOM     30  C   UNL     1      49.817   8.099  12.182  0.00  0.00    +0.000 C 
BRANCH  30  31
ATOM     31  C   UNL     1      49.828   9.605  11.927  0.00  0.00    +0.000 C 
BRANCH  31  32
ATOM     32  O   UNL     1      48.606  10.220  12.336  0.00  0.00    +0.000 OA
BRANCH  32  34
ATOM     33  C   UNL     1      46.646  11.409  11.612  0.00  0.00    +0.000 C 
ATOM     34  C   UNL     1      47.984  10.836  11.204  0.00  0.00    +0.000 C 
ENDBRANCH  32  34
ENDBRANCH  31  32
ENDBRANCH  30  31
ENDBRANCH   1  30
TORSDOF 9
ENDMDL
MODEL 7
REMARK VINA RESULT:    -6.435      3.159      8.388
REMARK INTER + INTRA:         -11.420
REMARK INTER:                  -9.822
REMARK INTRA:                  -1.598
REMARK UNBOUND:                -1.600
REMARK  Name = 
REMARK  10 active torsions:
REMARK  status: ('A' for Active; 'I' for Inactive)
REMARK    1  A    between atoms: C_1  and  C_2
REMARK    2  A    between atoms: C_2  and  O_3
REMARK    3  A    between atoms: O_3  and  C_4
REMARK    4  A    between atoms: C_4  and  C_5
REMARK    5  A    between atoms: C_5  and  C_6
REMARK    6  A    between atoms: C_6  and  N_7
REMARK    7  A    between atoms: C_6  and  C_20
REMARK    8  A    between atoms: C_8  and  C_10
REMARK    9  A    between atoms: C_23  and  O_24
REMARK   10  A    between atoms: O_24  and  C_25
REMARK                            x       y       z     vdW  Elec       q    Type
REMARK                         _______ _______ _______ _____ _____    ______ ____
ROOT
ATOM      1  C   UNL     1      47.765   6.820  13.271  0.00  0.00    +0.000 C 
ENDROOT
BRANCH   1   2
ATOM      2  C   UNL     1      48.166   6.299  14.652  0.00  0.00    +0.000 A 
ATOM      3  C   UNL     1      49.288   6.845  15.296  0.00  0.00    +0.000 A 
ATOM      4  C   UNL     1      49.791   6.265  16.462  0.00  0.00    +0.000 A 
ATOM      5  C   UNL     1      49.125   5.193  17.058  0.00  0.00    +0.000 A 
ATOM      6  C   UNL     1      47.994   4.658  16.445  0.00  0.00    +0.000 A 
ATOM      7  C   UNL     1      47.525   5.198  15.243  0.00  0.00    +0.000 A 
BRANCH   5   8
ATOM      8  O   UNL     1      49.570   4.546  18.190  0.00  0.00    +0.000 OA
BRANCH   8   9
ATOM      9  C   UNL     1      50.614   3.639  18.069  0.00  0.00    +0.000 A 
ATOM     10  C   UNL     1      50.320   2.435  17.447  0.00  0.00    +0.000 A 
ATOM     11  C   UNL     1      51.345   1.508  17.295  0.00  0.00    +0.000 A 
ATOM     12  C   UNL     1      52.619   1.814  17.769  0.00  0.00    +0.000 A 
ATOM     13  C   UNL     1      52.810   3.027  18.398  0.00  0.00    +0.000 A 
ATOM     14  N   UNL     1      51.834   3.941  18.571  0.00  0.00    +0.000 NA
ENDBRANCH   8   9
ENDBRANCH   5   8
ENDBRANCH   1   2
BRANCH   1  15
ATOM     15  N   UNL     1      46.937   5.837  12.590  0.00  0.00    +0.000 N 
ATOM     16  C   UNL     1      45.577   5.959  12.457  0.00  0.00    +0.000 C 
ATOM     17  O   UNL     1      44.959   6.957  12.808  0.00  0.00    +0.000 OA
ATOM     18  H   UNL     1      47.312   4.893  12.580  0.00  0.00    +0.000 HD
BRANCH  16  19
ATOM     19  C   UNL     1      44.889   4.826  11.828  0.00  0.00    +0.000 A 
ATOM     20  C   UNL     1      44.065   4.009  12.589  0.00  0.00    +0.000 A 
ATOM     21  S   UNL     1      43.384   2.717  11.705  0.00  0.00    +0.000 S 
ATOM     22  C   UNL     1      44.203   3.181  10.287  0.00  0.00    +0.000 A 
ATOM     23  N   UNL     1      44.111   2.446   9.148  0.00  0.00    +0.000 NA
ATOM     24  C   UNL     1      44.814   2.899   8.163  0.00  0.00    +0.000 A 
ATOM     25  N   UNL     1      45.578   4.037   8.202  0.00  0.00    +0.000 N 
ATOM     26  C   UNL     1      45.654   4.843   9.313  0.00  0.00    +0.000 A 
ATOM     27  O   UNL     1      46.259   5.909   9.292  0.00  0.00    +0.000 OA
ATOM     28  C   UNL     1      44.936   4.342  10.470  0.00  0.00    +0.000 A 
ATOM     29  H   UNL     1      46.072   4.359   7.385  0.00  0.00    +0.000 HD
ENDBRANCH  16  19
ENDBRANCH   1  15
BRANCH   1  30
ATOM     30  C   UNL     1      49.028   7.217  12.469  0.00  0.00    +0.000 C 
BRANCH  30  31
ATOM     31  C   UNL     1      48.990   8.687  12.057  0.00  0.00    +0.000 C 
BRANCH  31  32
ATOM     32  O   UNL     1      48.139   9.453  12.909  0.00  0.00    +0.000 OA
BRANCH  32  34
ATOM     33  C   UNL     1      49.129  10.547  14.808  0.00  0.00    +0.000 C 
ATOM     34  C   UNL     1      48.828  10.635  13.330  0.00  0.00    +0.000 C 
ENDBRANCH  32  34
ENDBRANCH  31  32
ENDBRANCH  30  31
ENDBRANCH   1  30
TORSDOF 9
ENDMDL
MODEL 8
REMARK VINA RESULT:    -6.347      3.128      5.311
REMARK INTER + INTRA:         -11.286
REMARK INTER:                 -10.014
REMARK INTRA:                  -1.272
REMARK UNBOUND:                -1.600
REMARK  Name = 
REMARK  10 active torsions:
REMARK  status: ('A' for Active; 'I' for Inactive)
REMARK    1  A    between atoms: C_1  and  C_2
REMARK    2  A    between atoms: C_2  and  O_3
REMARK    3  A    between atoms: O_3  and  C_4
REMARK    4  A    between atoms: C_4  and  C_5
REMARK    5  A    between atoms: C_5  and  C_6
REMARK    6  A    between atoms: C_6  and  N_7
REMARK    7  A    between atoms: C_6  and  C_20
REMARK    8  A    between atoms: C_8  and  C_10
REMARK    9  A    between atoms: C_23  and  O_24
REMARK   10  A    between atoms: O_24  and  C_25
REMARK                            x       y       z     vdW  Elec       q    Type
REMARK                         _______ _______ _______ _____ _____    ______ ____
ROOT
ATOM      1  C   UNL     1      48.222   7.582  13.651  0.00  0.00    +0.000 C 
ENDROOT
BRANCH   1   2
ATOM      2  C   UNL     1      47.086   6.813  12.974  0.00  0.00    +0.000 A 
ATOM      3  C   UNL     1      46.927   5.444  13.240  0.00  0.00    +0.000 A 
ATOM      4  C   UNL     1      46.027   4.676  12.499  0.00  0.00    +0.000 A 
ATOM      5  C   UNL     1      45.202   5.280  11.550  0.00  0.00    +0.000 A 
ATOM      6  C   UNL     1      45.329   6.645  11.296  0.00  0.00    +0.000 A 
ATOM      7  C   UNL     1      46.274   7.404  11.993  0.00  0.00    +0.000 A 
BRANCH   5   8
ATOM      8  O   UNL     1      44.310   4.592  10.757  0.00  0.00    +0.000 OA
BRANCH   8   9
ATOM      9  C   UNL     1      44.809   3.783   9.745  0.00  0.00    +0.000 A 
ATOM     10  C   UNL     1      45.432   4.427   8.687  0.00  0.00    +0.000 A 
ATOM     11  C   UNL     1      45.957   3.648   7.662  0.00  0.00    +0.000 A 
ATOM     12  C   UNL     1      45.839   2.262   7.730  0.00  0.00    +0.000 A 
ATOM     13  C   UNL     1      45.179   1.712   8.809  0.00  0.00    +0.000 A 
ATOM     14  N   UNL     1      44.650   2.440   9.812  0.00  0.00    +0.000 NA
ENDBRANCH   8   9
ENDBRANCH   5   8
ENDBRANCH   1   2
BRANCH   1  15
ATOM     15  N   UNL     1      48.073   7.518  15.097  0.00  0.00    +0.000 N 
ATOM     16  C   UNL     1      49.034   7.009  15.933  0.00  0.00    +0.000 C 
ATOM     17  O   UNL     1      50.143   6.662  15.541  0.00  0.00    +0.000 OA
ATOM     18  H   UNL     1      47.113   7.475  15.428  0.00  0.00    +0.000 HD
BRANCH  16  19
ATOM     19  C   UNL     1      48.675   6.931  17.353  0.00  0.00    +0.000 A 
ATOM     20  C   UNL     1      48.305   8.080  18.037  0.00  0.00    +0.000 A 
ATOM     21  S   UNL     1      47.966   7.810  19.687  0.00  0.00    +0.000 S 
ATOM     22  C   UNL     1      48.344   6.157  19.554  0.00  0.00    +0.000 A 
ATOM     23  N   UNL     1      48.323   5.339  20.639  0.00  0.00    +0.000 NA
ATOM     24  C   UNL     1      48.667   4.118  20.392  0.00  0.00    +0.000 A 
ATOM     25  N   UNL     1      49.000   3.631  19.155  0.00  0.00    +0.000 N 
ATOM     26  C   UNL     1      48.978   4.407  18.020  0.00  0.00    +0.000 A 
ATOM     27  O   UNL     1      49.179   3.926  16.910  0.00  0.00    +0.000 OA
ATOM     28  C   UNL     1      48.665   5.803  18.253  0.00  0.00    +0.000 A 
ATOM     29  H   UNL     1      49.221   2.656  19.023  0.00  0.00    +0.000 HD
ENDBRANCH  16  19
ENDBRANCH   1  15
BRANCH   1  30
ATOM     30  C   UNL     1      48.278   9.030  13.106  0.00  0.00    +0.000 C 
BRANCH  30  31
ATOM     31  C   UNL     1      49.301   9.163  11.980  0.00  0.00    +0.000 C 
BRANCH  31  32
ATOM     32  O   UNL     1      50.556   8.584  12.333  0.00  0.00    +0.000 OA
BRANCH  32  34
ATOM     33  C   UNL     1      51.047  10.566  11.064  0.00  0.00    +0.000 C 
ATOM     34  C   UNL     1      51.611   9.319  11.706  0.00  0.00    +0.000 C 
ENDBRANCH  32  34
ENDBRANCH  31  32
ENDBRANCH  30  31
ENDBRANCH   1  30
TORSDOF 9
ENDMDL
MODEL 9
REMARK VINA RESULT:    -6.230      3.682      5.369
REMARK INTER + INTRA:         -11.108
REMARK INTER:                  -9.759
REMARK INTRA:                  -1.349
REMARK UNBOUND:                -1.600
REMARK  Name = 
REMARK  10 active torsions:
REMARK  status: ('A' for Active; 'I' for Inactive)
REMARK    1  A    between atoms: C_1  and  C_2
REMARK    2  A    between atoms: C_2  and  O_3
REMARK    3  A    between atoms: O_3  and  C_4
REMARK    4  A    between atoms: C_4  and  C_5
REMARK    5  A    between atoms: C_5  and  C_6
REMARK    6  A    between atoms: C_6  and  N_7
REMARK    7  A    between atoms: C_6  and  C_20
REMARK    8  A    between atoms: C_8  and  C_10
REMARK    9  A    between atoms: C_23  and  O_24
REMARK   10  A    between atoms: O_24  and  C_25
REMARK                            x       y       z     vdW  Elec       q    Type
REMARK                         _______ _______ _______ _____ _____    ______ ____
ROOT
ATOM      1  C   UNL     1      48.628   6.963  14.008  0.00  0.00    +0.000 C 
ENDROOT
BRANCH   1   2
ATOM      2  C   UNL     1      47.427   6.374  13.267  0.00  0.00    +0.000 A 
ATOM      3  C   UNL     1      47.012   5.064  13.558  0.00  0.00    +0.000 A 
ATOM      4  C   UNL     1      46.047   4.433  12.772  0.00  0.00    +0.000 A 
ATOM      5  C   UNL     1      45.410   5.130  11.745  0.00  0.00    +0.000 A 
ATOM      6  C   UNL     1      45.791   6.441  11.463  0.00  0.00    +0.000 A 
ATOM      7  C   UNL     1      46.802   7.054  12.209  0.00  0.00    +0.000 A 
BRANCH   5   8
ATOM      8  O   UNL     1      44.471   4.574  10.906  0.00  0.00    +0.000 OA
BRANCH   8   9
ATOM      9  C   UNL     1      44.910   3.817   9.827  0.00  0.00    +0.000 A 
ATOM     10  C   UNL     1      45.446   4.516   8.757  0.00  0.00    +0.000 A 
ATOM     11  C   UNL     1      45.910   3.790   7.665  0.00  0.00    +0.000 A 
ATOM     12  C   UNL     1      45.819   2.400   7.682  0.00  0.00    +0.000 A 
ATOM     13  C   UNL     1      45.246   1.794   8.779  0.00  0.00    +0.000 A 
ATOM     14  N   UNL     1      44.777   2.469   9.847  0.00  0.00    +0.000 NA
ENDBRANCH   8   9
ENDBRANCH   5   8
ENDBRANCH   1   2
BRANCH   1  15
ATOM     15  N   UNL     1      48.301   7.153  15.414  0.00  0.00    +0.000 N 
ATOM     16  C   UNL     1      49.025   6.597  16.437  0.00  0.00    +0.000 C 
ATOM     17  O   UNL     1      50.069   5.981  16.259  0.00  0.00    +0.000 OA
ATOM     18  H   UNL     1      47.323   7.352  15.604  0.00  0.00    +0.000 HD
BRANCH  16  19
ATOM     19  C   UNL     1      48.495   6.811  17.788  0.00  0.00    +0.000 A 
ATOM     20  C   UNL     1      48.216   5.722  18.603  0.00  0.00    +0.000 A 
ATOM     21  S   UNL     1      47.566   6.156  20.119  0.00  0.00    +0.000 S 
ATOM     22  C   UNL     1      47.593   7.810  19.722  0.00  0.00    +0.000 A 
ATOM     23  N   UNL     1      47.101   8.747  20.574  0.00  0.00    +0.000 NA
ATOM     24  C   UNL     1      47.156   9.957  20.125  0.00  0.00    +0.000 A 
ATOM     25  N   UNL     1      47.685  10.322  18.913  0.00  0.00    +0.000 N 
ATOM     26  C   UNL     1      48.247   9.415  18.046  0.00  0.00    +0.000 A 
ATOM     27  O   UNL     1      48.807   9.775  17.016  0.00  0.00    +0.000 OA
ATOM     28  C   UNL     1      48.149   8.033  18.473  0.00  0.00    +0.000 A 
ATOM     29  H   UNL     1      47.735  11.290  18.638  0.00  0.00    +0.000 HD
ENDBRANCH  16  19
ENDBRANCH   1  15
BRANCH   1  30
ATOM     30  C   UNL     1      49.094   8.263  13.309  0.00  0.00    +0.000 C 
BRANCH  30  31
ATOM     31  C   UNL     1      50.220   7.989  12.314  0.00  0.00    +0.000 C 
BRANCH  31  32
ATOM     32  O   UNL     1      50.964   9.170  12.018  0.00  0.00    +0.000 OA
BRANCH  32  34
ATOM     33  C   UNL     1      51.689   7.480  10.469  0.00  0.00    +0.000 C 
ATOM     34  C   UNL     1      51.881   8.899  10.953  0.00  0.00    +0.000 C 
ENDBRANCH  32  34
ENDBRANCH  31  32
ENDBRANCH  30  31
ENDBRANCH   1  30
TORSDOF 9
ENDMDL
