MODEL 1
REMARK VINA RESULT:    -7.784      0.000      0.000
REMARK INTER + INTRA:         -12.043
REMARK INTER:                 -10.969
REMARK INTRA:                  -1.074
REMARK UNBOUND:                -1.074
REMARK  Name = 
REMARK  8 active torsions:
REMARK  status: ('A' for Active; 'I' for Inactive)
REMARK    1  A    between atoms: C_1  and  C_2
REMARK    2  A    between atoms: C_2  and  C_3
REMARK    3  A    between atoms: C_2  and  N_25
REMARK    4  A    between atoms: C_3  and  O_4
REMARK    5  A    between atoms: O_4  and  C_5
REMARK    6  A    between atoms: C_8  and  C_9
REMARK    7  A    between atoms: C_9  and  N_10
REMARK    8  A    between atoms: C_11  and  C_13
REMARK                            x       y       z     vdW  Elec       q    Type
REMARK                         _______ _______ _______ _____ _____    ______ ____
ROOT
ATOM      1  C   UNL     1      46.516   4.353  13.630  0.00  0.00    +0.000 A 
ATOM      2  C   UNL     1      47.051   5.512  13.093  0.00  0.00    +0.000 A 
ATOM      3  C   UNL     1      47.879   6.290  13.898  0.00  0.00    +0.000 A 
ATOM      4  C   UNL     1      48.140   5.890  15.213  0.00  0.00    +0.000 A 
ATOM      5  C   UNL     1      47.505   4.740  15.668  0.00  0.00    +0.000 A 
ATOM      6  N   UNL     1      46.702   3.965  14.910  0.00  0.00    +0.000 NA
ENDROOT
BRANCH   1   7
ATOM      7  O   UNL     1      45.764   3.553  12.791  0.00  0.00    +0.000 OA
BRANCH   7   8
ATOM      8  C   UNL     1      44.375   3.919  12.843  0.00  0.00    +0.000 C 
BRANCH   8  10
ATOM      9  C   UNL     1      43.163   5.481  11.263  0.00  0.00    +0.000 C 
ATOM     10  C   UNL     1      43.786   4.081  11.414  0.00  0.00    +0.000 C 
BRANCH  10  11
ATOM     11  N   UNL     1      44.763   3.717  10.344  0.00  0.00    +0.000 NA
ATOM     12  C   UNL     1      44.484   2.398   9.754  0.00  0.00    +0.000 C 
ATOM     13  C   UNL     1      45.555   1.970   8.748  0.00  0.00    +0.000 C 
ATOM     14  C   UNL     1      45.738   3.019   7.658  0.00  0.00    +0.000 C 
ATOM     15  C   UNL     1      46.010   4.375   8.290  0.00  0.00    +0.000 C 
ATOM     16  C   UNL     1      44.924   4.744   9.302  0.00  0.00    +0.000 C 
ENDBRANCH  10  11
ENDBRANCH   8  10
ENDBRANCH   7   8
ENDBRANCH   1   7
BRANCH   4  17
ATOM     17  C   UNL     1      49.022   6.685  16.129  0.00  0.00    +0.000 C 
BRANCH  17  18
ATOM     18  N   UNL     1      50.122   5.886  16.602  0.00  0.00    +0.000 N 
ATOM     19  C   UNL     1      50.119   5.339  17.858  0.00  0.00    +0.000 C 
ATOM     20  O   UNL     1      49.162   5.461  18.618  0.00  0.00    +0.000 OA
ATOM     21  H   UNL     1      51.000   5.959  16.097  0.00  0.00    +0.000 HD
BRANCH  19  22
ATOM     22  C   UNL     1      51.298   4.544  18.227  0.00  0.00    +0.000 A 
ATOM     23  C   UNL     1      52.334   5.139  18.933  0.00  0.00    +0.000 A 
ATOM     24  S   UNL     1      53.596   4.063  19.331  0.00  0.00    +0.000 S 
ATOM     25  C   UNL     1      52.826   2.776  18.525  0.00  0.00    +0.000 A 
ATOM     26  N   UNL     1      53.401   1.544  18.465  0.00  0.00    +0.000 NA
ATOM     27  C   UNL     1      52.723   0.672  17.794  0.00  0.00    +0.000 A 
ATOM     28  N   UNL     1      51.520   0.917  17.183  0.00  0.00    +0.000 N 
ATOM     29  C   UNL     1      50.888   2.137  17.247  0.00  0.00    +0.000 A 
ATOM     30  O   UNL     1      49.789   2.314  16.733  0.00  0.00    +0.000 OA
ATOM     31  C   UNL     1      51.615   3.159  17.977  0.00  0.00    +0.000 A 
ATOM     32  H   UNL     1      51.036   0.188  16.684  0.00  0.00    +0.000 HD
ENDBRANCH  19  22
ENDBRANCH  17  18
ENDBRANCH   4  17
TORSDOF 7
ENDMDL
MODEL 2
REMARK VINA RESULT:    -7.475      2.752      3.724
REMARK INTER + INTRA:         -11.608
REMARK INTER:                 -10.583
REMARK INTRA:                  -1.025
REMARK UNBOUND:                -1.074
REMARK  Name = 
REMARK  8 active torsions:
REMARK  status: ('A' for Active; 'I' for Inactive)
REMARK    1  A    between atoms: C_1  and  C_2
REMARK    2  A    between atoms: C_2  and  C_3
REMARK    3  A    between atoms: C_2  and  N_25
REMARK    4  A    between atoms: C_3  and  O_4
REMARK    5  A    between atoms: O_4  and  C_5
REMARK    6  A    between atoms: C_8  and  C_9
REMARK    7  A    between atoms: C_9  and  N_10
REMARK    8  A    between atoms: C_11  and  C_13
REMARK                            x       y       z     vdW  Elec       q    Type
REMARK                         _______ _______ _______ _____ _____    ______ ____
ROOT
ATOM      1  C   UNL     1      45.075   4.808  11.712  0.00  0.00    +0.000 A 
ATOM      2  C   UNL     1      45.534   4.351  12.936  0.00  0.00    +0.000 A 
ATOM      3  C   UNL     1      46.562   5.056  13.559  0.00  0.00    +0.000 A 
ATOM      4  C   UNL     1      47.101   6.187  12.936  0.00  0.00    +0.000 A 
ATOM      5  C   UNL     1      46.605   6.523  11.681  0.00  0.00    +0.000 A 
ATOM      6  N   UNL     1      45.607   5.862  11.057  0.00  0.00    +0.000 NA
ENDROOT
BRANCH   1   7
ATOM      7  O   UNL     1      44.000   4.145  11.151  0.00  0.00    +0.000 OA
BRANCH   7   8
ATOM      8  C   UNL     1      44.228   3.893   9.753  0.00  0.00    +0.000 C 
BRANCH   8  10
ATOM      9  C   UNL     1      43.989   1.408   9.336  0.00  0.00    +0.000 C 
ATOM     10  C   UNL     1      44.993   2.557   9.545  0.00  0.00    +0.000 C 
BRANCH  10  11
ATOM     11  N   UNL     1      46.051   2.657   8.495  0.00  0.00    +0.000 NA
ATOM     12  C   UNL     1      46.461   1.338   7.985  0.00  0.00    +0.000 C 
ATOM     13  C   UNL     1      47.630   1.430   7.002  0.00  0.00    +0.000 C 
ATOM     14  C   UNL     1      47.310   2.377   5.852  0.00  0.00    +0.000 C 
ATOM     15  C   UNL     1      46.875   3.726   6.401  0.00  0.00    +0.000 C 
ATOM     16  C   UNL     1      45.721   3.575   7.394  0.00  0.00    +0.000 C 
ENDBRANCH  10  11
ENDBRANCH   8  10
ENDBRANCH   7   8
ENDBRANCH   1   7
BRANCH   4  17
ATOM     17  C   UNL     1      48.209   6.987  13.554  0.00  0.00    +0.000 C 
BRANCH  17  18
ATOM     18  N   UNL     1      48.079   7.020  14.987  0.00  0.00    +0.000 N 
ATOM     19  C   UNL     1      49.162   6.837  15.806  0.00  0.00    +0.000 C 
ATOM     20  O   UNL     1      50.296   6.686  15.361  0.00  0.00    +0.000 OA
ATOM     21  H   UNL     1      47.145   6.915  15.371  0.00  0.00    +0.000 HD
BRANCH  19  22
ATOM     22  C   UNL     1      48.904   6.892  17.251  0.00  0.00    +0.000 A 
ATOM     23  C   UNL     1      48.645   8.113  17.857  0.00  0.00    +0.000 A 
ATOM     24  S   UNL     1      48.309   7.991  19.524  0.00  0.00    +0.000 S 
ATOM     25  C   UNL     1      48.552   6.307  19.506  0.00  0.00    +0.000 A 
ATOM     26  N   UNL     1      48.439   5.571  20.645  0.00  0.00    +0.000 NA
ATOM     27  C   UNL     1      48.682   4.312  20.492  0.00  0.00    +0.000 A 
ATOM     28  N   UNL     1      49.023   3.719  19.304  0.00  0.00    +0.000 N 
ATOM     29  C   UNL     1      49.116   4.418  18.123  0.00  0.00    +0.000 A 
ATOM     30  O   UNL     1      49.374   3.854  17.065  0.00  0.00    +0.000 OA
ATOM     31  C   UNL     1      48.867   5.843  18.242  0.00  0.00    +0.000 A 
ATOM     32  H   UNL     1      49.189   2.726  19.250  0.00  0.00    +0.000 HD
ENDBRANCH  19  22
ENDBRANCH  17  18
ENDBRANCH   4  17
TORSDOF 7
ENDMDL
MODEL 3
REMARK VINA RESULT:    -7.329      3.468      8.872
REMARK INTER + INTRA:         -11.401
REMARK INTER:                 -10.046
REMARK INTRA:                  -1.355
REMARK UNBOUND:                -1.074
REMARK  Name = 
REMARK  8 active torsions:
REMARK  status: ('A' for Active; 'I' for Inactive)
REMARK    1  A    between atoms: C_1  and  C_2
REMARK    2  A    between atoms: C_2  and  C_3
REMARK    3  A    between atoms: C_2  and  N_25
REMARK    4  A    between atoms: C_3  and  O_4
REMARK    5  A    between atoms: O_4  and  C_5
REMARK    6  A    between atoms: C_8  and  C_9
REMARK    7  A    between atoms: C_9  and  N_10
REMARK    8  A    between atoms: C_11  and  C_13
REMARK                            x       y       z     vdW  Elec       q    Type
REMARK                         _______ _______ _______ _____ _____    ______ ____
ROOT
ATOM      1  C   UNL     1      49.074   7.759  15.952  0.00  0.00    +0.000 A 
ATOM      2  C   UNL     1      48.426   8.923  15.574  0.00  0.00    +0.000 A 
ATOM      3  C   UNL     1      47.832   8.967  14.315  0.00  0.00    +0.000 A 
ATOM      4  C   UNL     1      47.911   7.852  13.473  0.00  0.00    +0.000 A 
ATOM      5  C   UNL     1      48.635   6.757  13.931  0.00  0.00    +0.000 A 
ATOM      6  N   UNL     1      49.216   6.685  15.146  0.00  0.00    +0.000 NA
ENDROOT
BRANCH   1   7
ATOM      7  O   UNL     1      49.585   7.705  17.235  0.00  0.00    +0.000 OA
BRANCH   7   8
ATOM      8  C   UNL     1      48.578   7.277  18.168  0.00  0.00    +0.000 C 
BRANCH   8  10
ATOM      9  C   UNL     1      48.635   6.412  20.546  0.00  0.00    +0.000 C 
ATOM     10  C   UNL     1      49.125   6.166  19.106  0.00  0.00    +0.000 C 
BRANCH  10  11
ATOM     11  N   UNL     1      48.861   4.791  18.586  0.00  0.00    +0.000 NA
ATOM     12  C   UNL     1      47.614   4.716  17.807  0.00  0.00    +0.000 C 
ATOM     13  C   UNL     1      47.278   3.285  17.381  0.00  0.00    +0.000 C 
ATOM     14  C   UNL     1      48.432   2.653  16.612  0.00  0.00    +0.000 C 
ATOM     15  C   UNL     1      49.710   2.755  17.428  0.00  0.00    +0.000 C 
ATOM     16  C   UNL     1      49.987   4.200  17.847  0.00  0.00    +0.000 C 
ENDBRANCH  10  11
ENDBRANCH   8  10
ENDBRANCH   7   8
ENDBRANCH   1   7
BRANCH   4  17
ATOM     17  C   UNL     1      47.293   7.838  12.107  0.00  0.00    +0.000 C 
BRANCH  17  18
ATOM     18  N   UNL     1      46.666   6.570  11.841  0.00  0.00    +0.000 N 
ATOM     19  C   UNL     1      45.308   6.463  11.696  0.00  0.00    +0.000 C 
ATOM     20  O   UNL     1      44.570   7.444  11.735  0.00  0.00    +0.000 OA
ATOM     21  H   UNL     1      47.211   5.734  12.028  0.00  0.00    +0.000 HD
BRANCH  19  22
ATOM     22  C   UNL     1      44.785   5.116  11.428  0.00  0.00    +0.000 A 
ATOM     23  C   UNL     1      44.059   4.453  12.407  0.00  0.00    +0.000 A 
ATOM     24  S   UNL     1      43.477   2.929  11.912  0.00  0.00    +0.000 S 
ATOM     25  C   UNL     1      44.222   3.078  10.388  0.00  0.00    +0.000 A 
ATOM     26  N   UNL     1      44.132   2.083   9.465  0.00  0.00    +0.000 NA
ATOM     27  C   UNL     1      44.772   2.315   8.367  0.00  0.00    +0.000 A 
ATOM     28  N   UNL     1      45.488   3.454   8.105  0.00  0.00    +0.000 N 
ATOM     29  C   UNL     1      45.579   4.498   8.996  0.00  0.00    +0.000 A 
ATOM     30  O   UNL     1      46.186   5.526   8.715  0.00  0.00    +0.000 OA
ATOM     31  C   UNL     1      44.890   4.282  10.254  0.00  0.00    +0.000 A 
ATOM     32  H   UNL     1      45.957   3.579   7.221  0.00  0.00    +0.000 HD
ENDBRANCH  19  22
ENDBRANCH  17  18
ENDBRANCH   4  17
TORSDOF 7
ENDMDL
MODEL 4
REMARK VINA RESULT:    -6.853      3.558      8.630
REMARK INTER + INTRA:         -10.731
REMARK INTER:                  -9.453
REMARK INTRA:                  -1.278
REMARK UNBOUND:                -1.074
REMARK  Name = 
REMARK  8 active torsions:
REMARK  status: ('A' for Active; 'I' for Inactive)
REMARK    1  A    between atoms: C_1  and  C_2
REMARK    2  A    between atoms: C_2  and  C_3
REMARK    3  A    between atoms: C_2  and  N_25
REMARK    4  A    between atoms: C_3  and  O_4
REMARK    5  A    between atoms: O_4  and  C_5
REMARK    6  A    between atoms: C_8  and  C_9
REMARK    7  A    between atoms: C_9  and  N_10
REMARK    8  A    between atoms: C_11  and  C_13
REMARK                            x       y       z     vdW  Elec       q    Type
REMARK                         _______ _______ _______ _____ _____    ______ ____
ROOT
ATOM      1  C   UNL     1      49.063   7.688  16.110  0.00  0.00    +0.000 A 
ATOM      2  C   UNL     1      48.787   8.998  15.758  0.00  0.00    +0.000 A 
ATOM      3  C   UNL     1      48.354   9.254  14.459  0.00  0.00    +0.000 A 
ATOM      4  C   UNL     1      48.219   8.196  13.553  0.00  0.00    +0.000 A 
ATOM      5  C   UNL     1      48.579   6.928  13.995  0.00  0.00    +0.000 A 
ATOM      6  N   UNL     1      48.995   6.650  15.248  0.00  0.00    +0.000 NA
ENDROOT
BRANCH   1   7
ATOM      7  O   UNL     1      49.410   7.444  17.425  0.00  0.00    +0.000 OA
BRANCH   7   8
ATOM      8  C   UNL     1      48.264   7.028  18.188  0.00  0.00    +0.000 C 
BRANCH   8  10
ATOM      9  C   UNL     1      47.839   6.154  20.525  0.00  0.00    +0.000 C 
ATOM     10  C   UNL     1      48.654   5.947  19.234  0.00  0.00    +0.000 C 
BRANCH  10  11
ATOM     11  N   UNL     1      48.597   4.562  18.680  0.00  0.00    +0.000 NA
ATOM     12  C   UNL     1      47.425   4.350  17.815  0.00  0.00    +0.000 C 
ATOM     13  C   UNL     1      47.298   2.898  17.348  0.00  0.00    +0.000 C 
ATOM     14  C   UNL     1      48.570   2.429  16.653  0.00  0.00    +0.000 C 
ATOM     15  C   UNL     1      49.768   2.670  17.557  0.00  0.00    +0.000 C 
ATOM     16  C   UNL     1      49.836   4.129  18.012  0.00  0.00    +0.000 C 
ENDBRANCH  10  11
ENDBRANCH   8  10
ENDBRANCH   7   8
ENDBRANCH   1   7
BRANCH   4  17
ATOM     17  C   UNL     1      47.760   8.408  12.141  0.00  0.00    +0.000 C 
BRANCH  17  18
ATOM     18  N   UNL     1      47.218   7.192  11.591  0.00  0.00    +0.000 N 
ATOM     19  C   UNL     1      45.885   7.073  11.301  0.00  0.00    +0.000 C 
ATOM     20  O   UNL     1      45.101   8.007  11.447  0.00  0.00    +0.000 OA
ATOM     21  H   UNL     1      47.783   6.353  11.675  0.00  0.00    +0.000 HD
BRANCH  19  22
ATOM     22  C   UNL     1      45.452   5.784  10.745  0.00  0.00    +0.000 A 
ATOM     23  C   UNL     1      45.771   5.459   9.434  0.00  0.00    +0.000 A 
ATOM     24  S   UNL     1      45.243   3.906   8.968  0.00  0.00    +0.000 S 
ATOM     25  C   UNL     1      44.522   3.635  10.485  0.00  0.00    +0.000 A 
ATOM     26  N   UNL     1      43.860   2.476  10.749  0.00  0.00    +0.000 NA
ATOM     27  C   UNL     1      43.334   2.419  11.927  0.00  0.00    +0.000 A 
ATOM     28  N   UNL     1      43.412   3.412  12.868  0.00  0.00    +0.000 N 
ATOM     29  C   UNL     1      44.098   4.586  12.657  0.00  0.00    +0.000 A 
ATOM     30  O   UNL     1      44.194   5.437  13.535  0.00  0.00    +0.000 OA
ATOM     31  C   UNL     1      44.697   4.708  11.341  0.00  0.00    +0.000 A 
ATOM     32  H   UNL     1      42.988   3.300  13.776  0.00  0.00    +0.000 HD
ENDBRANCH  19  22
ENDBRANCH  17  18
ENDBRANCH   4  17
TORSDOF 7
ENDMDL
MODEL 5
REMARK VINA RESULT:    -6.791      3.247      9.792
REMARK INTER + INTRA:         -10.644
REMARK INTER:                  -9.781
REMARK INTRA:                  -0.863
REMARK UNBOUND:                -1.074
REMARK  Name = 
REMARK  8 active torsions:
REMARK  status: ('A' for Active; 'I' for Inactive)
REMARK    1  A    between atoms: C_1  and  C_2
REMARK    2  A    between atoms: C_2  and  C_3
REMARK    3  A    between atoms: C_2  and  N_25
REMARK    4  A    between atoms: C_3  and  O_4
REMARK    5  A    between atoms: O_4  and  C_5
REMARK    6  A    between atoms: C_8  and  C_9
REMARK    7  A    between atoms: C_9  and  N_10
REMARK    8  A    between atoms: C_11  and  C_13
REMARK                            x       y       z     vdW  Elec       q    Type
REMARK                         _______ _______ _______ _____ _____    ______ ____
ROOT
ATOM      1  C   UNL     1      51.288   2.704  17.472  0.00  0.00    +0.000 A 
ATOM      2  C   UNL     1      50.783   3.918  17.907  0.00  0.00    +0.000 A 
ATOM      3  C   UNL     1      49.428   4.174  17.715  0.00  0.00    +0.000 A 
ATOM      4  C   UNL     1      48.624   3.215  17.089  0.00  0.00    +0.000 A 
ATOM      5  C   UNL     1      49.246   2.055  16.641  0.00  0.00    +0.000 A 
ATOM      6  N   UNL     1      50.555   1.778  16.817  0.00  0.00    +0.000 NA
ENDROOT
BRANCH   1   7
ATOM      7  O   UNL     1      52.616   2.435  17.747  0.00  0.00    +0.000 OA
BRANCH   7   8
ATOM      8  C   UNL     1      52.896   1.033  17.591  0.00  0.00    +0.000 C 
BRANCH   8  10
ATOM      9  C   UNL     1      55.231   1.994  17.429  0.00  0.00    +0.000 C 
ATOM     10  C   UNL     1      54.329   0.809  17.035  0.00  0.00    +0.000 C 
BRANCH  10  11
ATOM     11  N   UNL     1      54.880  -0.534  17.385  0.00  0.00    +0.000 NA
ATOM     12  C   UNL     1      54.204  -1.133  18.547  0.00  0.00    +0.000 C 
ATOM     13  C   UNL     1      54.849  -2.450  18.983  0.00  0.00    +0.000 C 
ATOM     14  C   UNL     1      54.913  -3.442  17.828  0.00  0.00    +0.000 C 
ATOM     15  C   UNL     1      55.601  -2.799  16.635  0.00  0.00    +0.000 C 
ATOM     16  C   UNL     1      54.932  -1.476  16.255  0.00  0.00    +0.000 C 
ENDBRANCH  10  11
ENDBRANCH   8  10
ENDBRANCH   7   8
ENDBRANCH   1   7
BRANCH   4  17
ATOM     17  C   UNL     1      47.159   3.432  16.852  0.00  0.00    +0.000 C 
BRANCH  17  18
ATOM     18  N   UNL     1      46.946   4.469  15.877  0.00  0.00    +0.000 N 
ATOM     19  C   UNL     1      46.995   4.206  14.534  0.00  0.00    +0.000 C 
ATOM     20  O   UNL     1      47.172   3.071  14.099  0.00  0.00    +0.000 OA
ATOM     21  H   UNL     1      47.025   5.430  16.196  0.00  0.00    +0.000 HD
BRANCH  19  22
ATOM     22  C   UNL     1      46.762   5.346  13.636  0.00  0.00    +0.000 A 
ATOM     23  C   UNL     1      47.791   6.241  13.381  0.00  0.00    +0.000 A 
ATOM     24  S   UNL     1      47.370   7.468  12.275  0.00  0.00    +0.000 S 
ATOM     25  C   UNL     1      45.779   6.878  12.140  0.00  0.00    +0.000 A 
ATOM     26  N   UNL     1      44.866   7.501  11.349  0.00  0.00    +0.000 NA
ATOM     27  C   UNL     1      43.690   6.966  11.367  0.00  0.00    +0.000 A 
ATOM     28  N   UNL     1      43.346   5.860  12.101  0.00  0.00    +0.000 N 
ATOM     29  C   UNL     1      44.245   5.179  12.888  0.00  0.00    +0.000 A 
ATOM     30  O   UNL     1      43.921   4.164  13.495  0.00  0.00    +0.000 OA
ATOM     31  C   UNL     1      45.579   5.749  12.915  0.00  0.00    +0.000 A 
ATOM     32  H   UNL     1      42.411   5.484  12.062  0.00  0.00    +0.000 HD
ENDBRANCH  19  22
ENDBRANCH  17  18
ENDBRANCH   4  17
TORSDOF 7
ENDMDL
MODEL 6
REMARK VINA RESULT:    -6.570      3.492      8.178
REMARK INTER + INTRA:         -10.332
REMARK INTER:                  -8.305
REMARK INTRA:                  -2.028
REMARK UNBOUND:                -1.074
REMARK  Name = 
REMARK  8 active torsions:
REMARK  status: ('A' for Active; 'I' for Inactive)
REMARK    1  A    between atoms: C_1  and  C_2
REMARK    2  A    between atoms: C_2  and  C_3
REMARK    3  A    between atoms: C_2  and  N_25
REMARK    4  A    between atoms: C_3  and  O_4
REMARK    5  A    between atoms: O_4  and  C_5
REMARK    6  A    between atoms: C_8  and  C_9
REMARK    7  A    between atoms: C_9  and  N_10
REMARK    8  A    between atoms: C_11  and  C_13
REMARK                            x       y       z     vdW  Elec       q    Type
REMARK                         _______ _______ _______ _____ _____    ______ ____
ROOT
ATOM      1  C   UNL     1      51.160   7.306  16.932  0.00  0.00    +0.000 A 
ATOM      2  C   UNL     1      50.255   8.089  17.628  0.00  0.00    +0.000 A 
ATOM      3  C   UNL     1      49.250   8.732  16.909  0.00  0.00    +0.000 A 
ATOM      4  C   UNL     1      49.188   8.579  15.520  0.00  0.00    +0.000 A 
ATOM      5  C   UNL     1      50.181   7.816  14.916  0.00  0.00    +0.000 A 
ATOM      6  N   UNL     1      51.162   7.178  15.588  0.00  0.00    +0.000 NA
ENDROOT
BRANCH   1   7
ATOM      7  O   UNL     1      52.097   6.610  17.672  0.00  0.00    +0.000 OA
BRANCH   7   8
ATOM      8  C   UNL     1      52.251   5.271  17.173  0.00  0.00    +0.000 C 
BRANCH   8  10
ATOM      9  C   UNL     1      51.434   4.672  19.492  0.00  0.00    +0.000 C 
ATOM     10  C   UNL     1      51.411   4.265  18.007  0.00  0.00    +0.000 C 
BRANCH  10  11
ATOM     11  N   UNL     1      50.044   4.050  17.443  0.00  0.00    +0.000 NA
ATOM     12  C   UNL     1      49.749   2.626  17.213  0.00  0.00    +0.000 C 
ATOM     13  C   UNL     1      48.401   2.414  16.521  0.00  0.00    +0.000 C 
ATOM     14  C   UNL     1      47.271   3.078  17.297  0.00  0.00    +0.000 C 
ATOM     15  C   UNL     1      47.603   4.542  17.536  0.00  0.00    +0.000 C 
ATOM     16  C   UNL     1      48.968   4.700  18.209  0.00  0.00    +0.000 C 
ENDBRANCH  10  11
ENDBRANCH   8  10
ENDBRANCH   7   8
ENDBRANCH   1   7
BRANCH   4  17
ATOM     17  C   UNL     1      48.132   9.246  14.689  0.00  0.00    +0.000 C 
BRANCH  17  18
ATOM     18  N   UNL     1      47.212   8.276  14.154  0.00  0.00    +0.000 N 
ATOM     19  C   UNL     1      47.091   8.079  12.804  0.00  0.00    +0.000 C 
ATOM     20  O   UNL     1      47.791   8.678  11.993  0.00  0.00    +0.000 OA
ATOM     21  H   UNL     1      46.478   7.942  14.770  0.00  0.00    +0.000 HD
BRANCH  19  22
ATOM     22  C   UNL     1      46.119   7.063  12.378  0.00  0.00    +0.000 A 
ATOM     23  C   UNL     1      45.030   7.435  11.602  0.00  0.00    +0.000 A 
ATOM     24  S   UNL     1      44.036   6.127  11.147  0.00  0.00    +0.000 S 
ATOM     25  C   UNL     1      44.995   5.023  12.018  0.00  0.00    +0.000 A 
ATOM     26  N   UNL     1      44.674   3.702  12.065  0.00  0.00    +0.000 NA
ATOM     27  C   UNL     1      45.469   2.986  12.789  0.00  0.00    +0.000 A 
ATOM     28  N   UNL     1      46.559   3.468  13.466  0.00  0.00    +0.000 N 
ATOM     29  C   UNL     1      46.938   4.790  13.421  0.00  0.00    +0.000 A 
ATOM     30  O   UNL     1      47.946   5.185  13.997  0.00  0.00    +0.000 OA
ATOM     31  C   UNL     1      46.069   5.643  12.632  0.00  0.00    +0.000 A 
ATOM     32  H   UNL     1      47.147   2.853  14.006  0.00  0.00    +0.000 HD
ENDBRANCH  19  22
ENDBRANCH  17  18
ENDBRANCH   4  17
TORSDOF 7
ENDMDL
MODEL 7
REMARK VINA RESULT:    -6.559      3.376      8.809
REMARK INTER + INTRA:         -10.316
REMARK INTER:                  -8.772
REMARK INTRA:                  -1.544
REMARK UNBOUND:                -1.074
REMARK  Name = 
REMARK  8 active torsions:
REMARK  status: ('A' for Active; 'I' for Inactive)
REMARK    1  A    between atoms: C_1  and  C_2
REMARK    2  A    between atoms: C_2  and  C_3
REMARK    3  A    between atoms: C_2  and  N_25
REMARK    4  A    between atoms: C_3  and  O_4
REMARK    5  A    between atoms: O_4  and  C_5
REMARK    6  A    between atoms: C_8  and  C_9
REMARK    7  A    between atoms: C_9  and  N_10
REMARK    8  A    between atoms: C_11  and  C_13
REMARK                            x       y       z     vdW  Elec       q    Type
REMARK                         _______ _______ _______ _____ _____    ______ ____
ROOT
ATOM      1  C   UNL     1      50.786   4.440  18.779  0.00  0.00    +0.000 A 
ATOM      2  C   UNL     1      50.840   3.473  17.790  0.00  0.00    +0.000 A 
ATOM      3  C   UNL     1      49.652   3.108  17.160  0.00  0.00    +0.000 A 
ATOM      4  C   UNL     1      48.451   3.714  17.544  0.00  0.00    +0.000 A 
ATOM      5  C   UNL     1      48.503   4.631  18.588  0.00  0.00    +0.000 A 
ATOM      6  N   UNL     1      49.639   5.007  19.212  0.00  0.00    +0.000 NA
ENDROOT
BRANCH   1   7
ATOM      7  O   UNL     1      51.984   4.848  19.333  0.00  0.00    +0.000 OA
BRANCH   7   8
ATOM      8  C   UNL     1      51.997   6.273  19.531  0.00  0.00    +0.000 C 
BRANCH   8  10
ATOM      9  C   UNL     1      53.658   6.033  17.636  0.00  0.00    +0.000 C 
ATOM     10  C   UNL     1      52.680   6.995  18.337  0.00  0.00    +0.000 C 
BRANCH  10  11
ATOM     11  N   UNL     1      51.699   7.656  17.426  0.00  0.00    +0.000 NA
ATOM     12  C   UNL     1      51.294   6.785  16.310  0.00  0.00    +0.000 C 
ATOM     13  C   UNL     1      50.387   7.503  15.308  0.00  0.00    +0.000 C 
ATOM     14  C   UNL     1      49.165   8.096  15.997  0.00  0.00    +0.000 C 
ATOM     15  C   UNL     1      49.605   8.979  17.154  0.00  0.00    +0.000 C 
ATOM     16  C   UNL     1      50.526   8.221  18.112  0.00  0.00    +0.000 C 
ENDBRANCH  10  11
ENDBRANCH   8  10
ENDBRANCH   7   8
ENDBRANCH   1   7
BRANCH   4  17
ATOM     17  C   UNL     1      47.140   3.363  16.906  0.00  0.00    +0.000 C 
BRANCH  17  18
ATOM     18  N   UNL     1      46.760   4.356  15.936  0.00  0.00    +0.000 N 
ATOM     19  C   UNL     1      46.893   4.129  14.592  0.00  0.00    +0.000 C 
ATOM     20  O   UNL     1      47.294   3.055  14.150  0.00  0.00    +0.000 OA
ATOM     21  H   UNL     1      46.647   5.309  16.268  0.00  0.00    +0.000 HD
BRANCH  19  22
ATOM     22  C   UNL     1      46.473   5.219  13.701  0.00  0.00    +0.000 A 
ATOM     23  C   UNL     1      47.332   6.282  13.461  0.00  0.00    +0.000 A 
ATOM     24  S   UNL     1      46.712   7.426  12.360  0.00  0.00    +0.000 S 
ATOM     25  C   UNL     1      45.250   6.569  12.207  0.00  0.00    +0.000 A 
ATOM     26  N   UNL     1      44.248   7.031  11.411  0.00  0.00    +0.000 NA
ATOM     27  C   UNL     1      43.184   6.298  11.414  0.00  0.00    +0.000 A 
ATOM     28  N   UNL     1      43.031   5.143  12.136  0.00  0.00    +0.000 N 
ATOM     29  C   UNL     1      44.029   4.622  12.927  0.00  0.00    +0.000 A 
ATOM     30  O   UNL     1      43.883   3.561  13.524  0.00  0.00    +0.000 OA
ATOM     31  C   UNL     1      45.243   5.416  12.971  0.00  0.00    +0.000 A 
ATOM     32  H   UNL     1      42.177   4.610  12.086  0.00  0.00    +0.000 HD
ENDBRANCH  19  22
ENDBRANCH  17  18
ENDBRANCH   4  17
TORSDOF 7
ENDMDL
MODEL 8
REMARK VINA RESULT:    -6.398      2.421      3.084
REMARK INTER + INTRA:         -10.090
REMARK INTER:                  -8.881
REMARK INTRA:                  -1.210
REMARK UNBOUND:                -1.074
REMARK  Name = 
REMARK  8 active torsions:
REMARK  status: ('A' for Active; 'I' for Inactive)
REMARK    1  A    between atoms: C_1  and  C_2
REMARK    2  A    between atoms: C_2  and  C_3
REMARK    3  A    between atoms: C_2  and  N_25
REMARK    4  A    between atoms: C_3  and  O_4
REMARK    5  A    between atoms: O_4  and  C_5
REMARK    6  A    between atoms: C_8  and  C_9
REMARK    7  A    between atoms: C_9  and  N_10
REMARK    8  A    between atoms: C_11  and  C_13
REMARK                            x       y       z     vdW  Elec       q    Type
REMARK                         _______ _______ _______ _____ _____    ______ ____
ROOT
ATOM      1  C   UNL     1      46.115   7.159  12.678  0.00  0.00    +0.000 A 
ATOM      2  C   UNL     1      47.152   6.373  12.204  0.00  0.00    +0.000 A 
ATOM      3  C   UNL     1      48.457   6.826  12.381  0.00  0.00    +0.000 A 
ATOM      4  C   UNL     1      48.683   8.051  13.017  0.00  0.00    +0.000 A 
ATOM      5  C   UNL     1      47.567   8.786  13.403  0.00  0.00    +0.000 A 
ATOM      6  N   UNL     1      46.293   8.370  13.248  0.00  0.00    +0.000 NA
ENDROOT
BRANCH   1   7
ATOM      7  O   UNL     1      44.834   6.653  12.567  0.00  0.00    +0.000 OA
BRANCH   7   8
ATOM      8  C   UNL     1      44.861   5.230  12.365  0.00  0.00    +0.000 C 
BRANCH   8  10
ATOM      9  C   UNL     1      42.649   5.934  11.356  0.00  0.00    +0.000 C 
ATOM     10  C   UNL     1      43.631   4.761  11.540  0.00  0.00    +0.000 C 
BRANCH  10  11
ATOM     11  N   UNL     1      44.016   4.069  10.273  0.00  0.00    +0.000 NA
ATOM     12  C   UNL     1      45.141   4.730   9.592  0.00  0.00    +0.000 C 
ATOM     13  C   UNL     1      45.455   4.098   8.235  0.00  0.00    +0.000 C 
ATOM     14  C   UNL     1      45.712   2.602   8.369  0.00  0.00    +0.000 C 
ATOM     15  C   UNL     1      44.546   1.943   9.087  0.00  0.00    +0.000 C 
ATOM     16  C   UNL     1      44.260   2.626  10.426  0.00  0.00    +0.000 C 
ENDBRANCH  10  11
ENDBRANCH   8  10
ENDBRANCH   7   8
ENDBRANCH   1   7
BRANCH   4  17
ATOM     17  C   UNL     1      50.064   8.594  13.237  0.00  0.00    +0.000 C 
BRANCH  17  18
ATOM     18  N   UNL     1      50.834   7.713  14.076  0.00  0.00    +0.000 N 
ATOM     19  C   UNL     1      51.431   8.163  15.223  0.00  0.00    +0.000 C 
ATOM     20  O   UNL     1      51.298   9.319  15.616  0.00  0.00    +0.000 OA
ATOM     21  H   UNL     1      51.143   6.837  13.668  0.00  0.00    +0.000 HD
BRANCH  19  22
ATOM     22  C   UNL     1      52.191   7.171  15.995  0.00  0.00    +0.000 A 
ATOM     23  C   UNL     1      53.568   7.300  16.115  0.00  0.00    +0.000 A 
ATOM     24  S   UNL     1      54.284   6.100  17.091  0.00  0.00    +0.000 S 
ATOM     25  C   UNL     1      52.786   5.333  17.344  0.00  0.00    +0.000 A 
ATOM     26  N   UNL     1      52.698   4.200  18.092  0.00  0.00    +0.000 NA
ATOM     27  C   UNL     1      51.506   3.707  18.173  0.00  0.00    +0.000 A 
ATOM     28  N   UNL     1      50.394   4.246  17.579  0.00  0.00    +0.000 N 
ATOM     29  C   UNL     1      50.432   5.406  16.842  0.00  0.00    +0.000 A 
ATOM     30  O   UNL     1      49.413   5.893  16.364  0.00  0.00    +0.000 OA
ATOM     31  C   UNL     1      51.752   5.995  16.707  0.00  0.00    +0.000 A 
ATOM     32  H   UNL     1      49.489   3.817  17.691  0.00  0.00    +0.000 HD
ENDBRANCH  19  22
ENDBRANCH  17  18
ENDBRANCH   4  17
TORSDOF 7
ENDMDL
MODEL 9
REMARK VINA RESULT:    -6.384      3.733      9.436
REMARK INTER + INTRA:         -10.071
REMARK INTER:                  -8.837
REMARK INTRA:                  -1.233
REMARK UNBOUND:                -1.074
REMARK  Name = 
REMARK  8 active torsions:
REMARK  status: ('A' for Active; 'I' for Inactive)
REMARK    1  A    between atoms: C_1  and  C_2
REMARK    2  A    between atoms: C_2  and  C_3
REMARK    3  A    between atoms: C_2  and  N_25
REMARK    4  A    between atoms: C_3  and  O_4
REMARK    5  A    between atoms: O_4  and  C_5
REMARK    6  A    between atoms: C_8  and  C_9
REMARK    7  A    between atoms: C_9  and  N_10
REMARK    8  A    between atoms: C_11  and  C_13
REMARK                            x       y       z     vdW  Elec       q    Type
REMARK                         _______ _______ _______ _____ _____    ______ ____
ROOT
ATOM      1  C   UNL     1      49.641   5.587  19.559  0.00  0.00    +0.000 A 
ATOM      2  C   UNL     1      50.263   4.536  18.906  0.00  0.00    +0.000 A 
ATOM      3  C   UNL     1      49.542   3.846  17.934  0.00  0.00    +0.000 A 
ATOM      4  C   UNL     1      48.224   4.222  17.653  0.00  0.00    +0.000 A 
ATOM      5  C   UNL     1      47.679   5.253  18.409  0.00  0.00    +0.000 A 
ATOM      6  N   UNL     1      48.354   5.943  19.352  0.00  0.00    +0.000 NA
ENDROOT
BRANCH   1   7
ATOM      7  O   UNL     1      50.398   6.311  20.459  0.00  0.00    +0.000 OA
BRANCH   7   8
ATOM      8  C   UNL     1      49.634   7.395  21.015  0.00  0.00    +0.000 C 
BRANCH   8  10
ATOM      9  C   UNL     1      51.834   8.528  20.482  0.00  0.00    +0.000 C 
ATOM     10  C   UNL     1      50.337   8.758  20.765  0.00  0.00    +0.000 C 
BRANCH  10  11
ATOM     11  N   UNL     1      49.633   9.592  19.745  0.00  0.00    +0.000 NA
ATOM     12  C   UNL     1      50.070   9.288  18.373  0.00  0.00    +0.000 C 
ATOM     13  C   UNL     1      49.443  10.225  17.339  0.00  0.00    +0.000 C 
ATOM     14  C   UNL     1      47.922  10.213  17.435  0.00  0.00    +0.000 C 
ATOM     15  C   UNL     1      47.494  10.515  18.862  0.00  0.00    +0.000 C 
ATOM     16  C   UNL     1      48.166   9.565  19.855  0.00  0.00    +0.000 C 
ENDBRANCH  10  11
ENDBRANCH   8  10
ENDBRANCH   7   8
ENDBRANCH   1   7
BRANCH   4  17
ATOM     17  C   UNL     1      47.397   3.518  16.619  0.00  0.00    +0.000 C 
BRANCH  17  18
ATOM     18  N   UNL     1      46.838   4.457  15.682  0.00  0.00    +0.000 N 
ATOM     19  C   UNL     1      46.824   4.200  14.337  0.00  0.00    +0.000 C 
ATOM     20  O   UNL     1      47.238   3.140  13.872  0.00  0.00    +0.000 OA
ATOM     21  H   UNL     1      46.705   5.411  16.004  0.00  0.00    +0.000 HD
BRANCH  19  22
ATOM     22  C   UNL     1      46.229   5.235  13.480  0.00  0.00    +0.000 A 
ATOM     23  C   UNL     1      46.947   6.387  13.195  0.00  0.00    +0.000 A 
ATOM     24  S   UNL     1      46.135   7.455  12.142  0.00  0.00    +0.000 S 
ATOM     25  C   UNL     1      44.772   6.438  12.074  0.00  0.00    +0.000 A 
ATOM     26  N   UNL     1      43.677   6.784  11.345  0.00  0.00    +0.000 NA
ATOM     27  C   UNL     1      42.704   5.937  11.410  0.00  0.00    +0.000 A 
ATOM     28  N   UNL     1      42.727   4.772  12.132  0.00  0.00    +0.000 N 
ATOM     29  C   UNL     1      43.824   4.368  12.857  0.00  0.00    +0.000 A 
ATOM     30  O   UNL     1      43.835   3.297  13.454  0.00  0.00    +0.000 OA
ATOM     31  C   UNL     1      44.942   5.292  12.830  0.00  0.00    +0.000 A 
ATOM     32  H   UNL     1      41.936   4.147  12.132  0.00  0.00    +0.000 HD
ENDBRANCH  19  22
ENDBRANCH  17  18
ENDBRANCH   4  17
TORSDOF 7
ENDMDL
