MODEL 1
REMARK VINA RESULT:    -8.778      0.000      0.000
REMARK INTER + INTRA:         -12.717
REMARK INTER:                 -11.601
REMARK INTRA:                  -1.116
REMARK UNBOUND:                -1.116
REMARK  Name = 
REMARK  6 active torsions:
REMARK  status: ('A' for Active; 'I' for Inactive)
REMARK    1  A    between atoms: C_2  and  O_3
REMARK    2  A    between atoms: C_2  and  C_4
REMARK    3  A    between atoms: C_7  and  C_8
REMARK    4  A    between atoms: C_8  and  C_9
REMARK    5  A    between atoms: C_9  and  C_10
REMARK    6  A    between atoms: C_14  and  C_15
REMARK                            x       y       z     vdW  Elec       q    Type
REMARK                         _______ _______ _______ _____ _____    ______ ____
ROOT
ATOM      1  C   UNL     1      43.942   4.681  11.433  0.00  0.00    +0.000 C 
ATOM      2  C   UNL     1      42.632   5.149  12.106  0.00  0.00    +0.000 C 
ATOM      3  C   UNL     1      43.231   5.974  11.016  0.00  0.00    +0.000 C 
ENDROOT
BRANCH   1   4
ATOM      4  C   UNL     1      45.215   4.855  12.227  0.00  0.00    +0.000 A 
ATOM      5  C   UNL     1      45.742   3.819  12.997  0.00  0.00    +0.000 A 
ATOM      6  C   UNL     1      46.954   4.007  13.618  0.00  0.00    +0.000 A 
ATOM      7  N   UNL     1      47.651   5.161  13.577  0.00  0.00    +0.000 NA
ATOM      8  C   UNL     1      47.120   6.184  12.870  0.00  0.00    +0.000 A 
ATOM      9  C   UNL     1      45.922   6.057  12.183  0.00  0.00    +0.000 A 
BRANCH   8  10
ATOM     10  C   UNL     1      47.874   7.497  12.830  0.00  0.00    +0.000 C 
ATOM     11  C   UNL     1      46.923   8.651  12.481  0.00  0.00    +0.000 C 
ATOM     12  C   UNL     1      47.660   9.980  12.361  0.00  0.00    +0.000 C 
ATOM     13  C   UNL     1      48.810   9.886  11.363  0.00  0.00    +0.000 C 
ATOM     14  C   UNL     1      49.780   8.769  11.738  0.00  0.00    +0.000 C 
ATOM     15  C   UNL     1      49.065   7.424  11.858  0.00  0.00    +0.000 C 
ENDBRANCH   8  10
ENDBRANCH   1   4
BRANCH   1  16
ATOM     16  C   UNL     1      43.873   3.338  10.691  0.00  0.00    +0.000 C 
BRANCH  16  20
ATOM     17  C   UNL     1      46.543   2.633   7.423  0.00  0.00    +0.000 A 
ATOM     18  C   UNL     1      46.135   3.939   7.658  0.00  0.00    +0.000 A 
ATOM     19  C   UNL     1      45.202   4.189   8.661  0.00  0.00    +0.000 A 
ATOM     20  C   UNL     1      44.739   3.138   9.460  0.00  0.00    +0.000 A 
ATOM     21  N   UNL     1      45.159   1.862   9.241  0.00  0.00    +0.000 NA
ATOM     22  C   UNL     1      46.018   1.629   8.215  0.00  0.00    +0.000 A 
BRANCH  17  24
ATOM     23  O   UNL     1      48.273   1.421   6.367  0.00  0.00    +0.000 OA
ATOM     24  C   UNL     1      47.500   2.335   6.342  0.00  0.00    +0.000 C 
BRANCH  24  25
ATOM     25  O   UNL     1      47.415   3.249   5.339  0.00  0.00    +0.000 OA
ATOM     26  H   UNL     1      48.261   3.658   5.075  0.00  0.00    +0.000 HD
ENDBRANCH  24  25
ENDBRANCH  17  24
ENDBRANCH  16  20
ENDBRANCH   1  16
TORSDOF 6
ENDMDL
MODEL 2
REMARK VINA RESULT:    -8.144      1.740      3.451
REMARK INTER + INTRA:         -11.879
REMARK INTER:                 -11.141
REMARK INTRA:                  -0.738
REMARK UNBOUND:                -1.116
REMARK  Name = 
REMARK  6 active torsions:
REMARK  status: ('A' for Active; 'I' for Inactive)
REMARK    1  A    between atoms: C_2  and  O_3
REMARK    2  A    between atoms: C_2  and  C_4
REMARK    3  A    between atoms: C_7  and  C_8
REMARK    4  A    between atoms: C_8  and  C_9
REMARK    5  A    between atoms: C_9  and  C_10
REMARK    6  A    between atoms: C_14  and  C_15
REMARK                            x       y       z     vdW  Elec       q    Type
REMARK                         _______ _______ _______ _____ _____    ______ ____
ROOT
ATOM      1  C   UNL     1      44.056   4.696  11.563  0.00  0.00    +0.000 C 
ATOM      2  C   UNL     1      42.751   5.031  12.322  0.00  0.00    +0.000 C 
ATOM      3  C   UNL     1      43.120   5.825  11.112  0.00  0.00    +0.000 C 
ENDROOT
BRANCH   1   4
ATOM      4  C   UNL     1      45.350   5.131  12.210  0.00  0.00    +0.000 A 
ATOM      5  C   UNL     1      46.217   6.021  11.577  0.00  0.00    +0.000 A 
ATOM      6  C   UNL     1      47.330   6.455  12.257  0.00  0.00    +0.000 A 
ATOM      7  N   UNL     1      47.673   6.030  13.491  0.00  0.00    +0.000 NA
ATOM      8  C   UNL     1      46.859   5.130  14.087  0.00  0.00    +0.000 A 
ATOM      9  C   UNL     1      45.697   4.677  13.482  0.00  0.00    +0.000 A 
BRANCH   8  10
ATOM     10  C   UNL     1      47.239   4.620  15.462  0.00  0.00    +0.000 C 
ATOM     11  C   UNL     1      48.267   5.555  16.116  0.00  0.00    +0.000 C 
ATOM     12  C   UNL     1      48.728   5.035  17.473  0.00  0.00    +0.000 C 
ATOM     13  C   UNL     1      49.261   3.610  17.366  0.00  0.00    +0.000 C 
ATOM     14  C   UNL     1      48.222   2.671  16.760  0.00  0.00    +0.000 C 
ATOM     15  C   UNL     1      47.748   3.169  15.395  0.00  0.00    +0.000 C 
ENDBRANCH   8  10
ENDBRANCH   1   4
BRANCH   1  16
ATOM     16  C   UNL     1      44.132   3.292  10.945  0.00  0.00    +0.000 C 
BRANCH  16  20
ATOM     17  C   UNL     1      46.414   2.685   7.377  0.00  0.00    +0.000 A 
ATOM     18  C   UNL     1      45.914   3.957   7.620  0.00  0.00    +0.000 A 
ATOM     19  C   UNL     1      45.100   4.167   8.730  0.00  0.00    +0.000 A 
ATOM     20  C   UNL     1      44.848   3.116   9.618  0.00  0.00    +0.000 A 
ATOM     21  N   UNL     1      45.356   1.875   9.388  0.00  0.00    +0.000 NA
ATOM     22  C   UNL     1      46.094   1.675   8.266  0.00  0.00    +0.000 A 
BRANCH  17  24
ATOM     23  O   UNL     1      47.077   2.952   5.127  0.00  0.00    +0.000 OA
ATOM     24  C   UNL     1      47.247   2.427   6.189  0.00  0.00    +0.000 C 
BRANCH  24  25
ATOM     25  O   UNL     1      48.201   1.493   6.446  0.00  0.00    +0.000 OA
ATOM     26  H   UNL     1      48.242   0.753   5.812  0.00  0.00    +0.000 HD
ENDBRANCH  24  25
ENDBRANCH  17  24
ENDBRANCH  16  20
ENDBRANCH   1  16
TORSDOF 6
ENDMDL
MODEL 3
REMARK VINA RESULT:    -8.103      3.786      7.200
REMARK INTER + INTRA:         -11.824
REMARK INTER:                 -10.853
REMARK INTRA:                  -0.971
REMARK UNBOUND:                -1.116
REMARK  Name = 
REMARK  6 active torsions:
REMARK  status: ('A' for Active; 'I' for Inactive)
REMARK    1  A    between atoms: C_2  and  O_3
REMARK    2  A    between atoms: C_2  and  C_4
REMARK    3  A    between atoms: C_7  and  C_8
REMARK    4  A    between atoms: C_8  and  C_9
REMARK    5  A    between atoms: C_9  and  C_10
REMARK    6  A    between atoms: C_14  and  C_15
REMARK                            x       y       z     vdW  Elec       q    Type
REMARK                         _______ _______ _______ _____ _____    ______ ____
ROOT
ATOM      1  C   UNL     1      46.376   7.246  12.395  0.00  0.00    +0.000 C 
ATOM      2  C   UNL     1      46.516   8.656  11.777  0.00  0.00    +0.000 C 
ATOM      3  C   UNL     1      45.872   8.504  13.115  0.00  0.00    +0.000 C 
ENDROOT
BRANCH   1   4
ATOM      4  C   UNL     1      45.310   6.350  11.811  0.00  0.00    +0.000 A 
ATOM      5  C   UNL     1      44.007   6.348  12.309  0.00  0.00    +0.000 A 
ATOM      6  C   UNL     1      43.058   5.582  11.673  0.00  0.00    +0.000 A 
ATOM      7  N   UNL     1      43.318   4.781  10.619  0.00  0.00    +0.000 NA
ATOM      8  C   UNL     1      44.591   4.745  10.164  0.00  0.00    +0.000 A 
ATOM      9  C   UNL     1      45.594   5.519  10.727  0.00  0.00    +0.000 A 
BRANCH   8  10
ATOM     10  C   UNL     1      44.911   3.833   8.998  0.00  0.00    +0.000 C 
ATOM     11  C   UNL     1      45.265   2.426   9.499  0.00  0.00    +0.000 C 
ATOM     12  C   UNL     1      45.664   1.498   8.356  0.00  0.00    +0.000 C 
ATOM     13  C   UNL     1      46.797   2.096   7.529  0.00  0.00    +0.000 C 
ATOM     14  C   UNL     1      46.426   3.475   6.992  0.00  0.00    +0.000 C 
ATOM     15  C   UNL     1      46.028   4.425   8.119  0.00  0.00    +0.000 C 
ENDBRANCH   8  10
ENDBRANCH   1   4
BRANCH   1  16
ATOM     16  C   UNL     1      47.690   6.508  12.691  0.00  0.00    +0.000 C 
BRANCH  16  20
ATOM     17  C   UNL     1      47.709   4.275  16.340  0.00  0.00    +0.000 A 
ATOM     18  C   UNL     1      48.270   5.545  16.353  0.00  0.00    +0.000 A 
ATOM     19  C   UNL     1      48.353   6.263  15.163  0.00  0.00    +0.000 A 
ATOM     20  C   UNL     1      47.815   5.728  13.987  0.00  0.00    +0.000 A 
ATOM     21  N   UNL     1      47.247   4.492  13.982  0.00  0.00    +0.000 NA
ATOM     22  C   UNL     1      47.235   3.780  15.139  0.00  0.00    +0.000 A 
BRANCH  17  24
ATOM     23  O   UNL     1      48.538   3.399  18.370  0.00  0.00    +0.000 OA
ATOM     24  C   UNL     1      47.643   3.477  17.578  0.00  0.00    +0.000 C 
BRANCH  24  25
ATOM     25  O   UNL     1      46.459   2.818  17.681  0.00  0.00    +0.000 OA
ATOM     26  H   UNL     1      45.949   3.000  18.493  0.00  0.00    +0.000 HD
ENDBRANCH  24  25
ENDBRANCH  17  24
ENDBRANCH  16  20
ENDBRANCH   1  16
TORSDOF 6
ENDMDL
MODEL 4
REMARK VINA RESULT:    -7.021      1.333      2.025
REMARK INTER + INTRA:         -10.395
REMARK INTER:                 -10.137
REMARK INTRA:                  -0.258
REMARK UNBOUND:                -1.116
REMARK  Name = 
REMARK  6 active torsions:
REMARK  status: ('A' for Active; 'I' for Inactive)
REMARK    1  A    between atoms: C_2  and  O_3
REMARK    2  A    between atoms: C_2  and  C_4
REMARK    3  A    between atoms: C_7  and  C_8
REMARK    4  A    between atoms: C_8  and  C_9
REMARK    5  A    between atoms: C_9  and  C_10
REMARK    6  A    between atoms: C_14  and  C_15
REMARK                            x       y       z     vdW  Elec       q    Type
REMARK                         _______ _______ _______ _____ _____    ______ ____
ROOT
ATOM      1  C   UNL     1      44.386   4.585  11.756  0.00  0.00    +0.000 C 
ATOM      2  C   UNL     1      45.259   3.535  12.480  0.00  0.00    +0.000 C 
ATOM      3  C   UNL     1      44.008   4.024  13.133  0.00  0.00    +0.000 C 
ENDROOT
BRANCH   1   4
ATOM      4  C   UNL     1      44.900   6.005  11.741  0.00  0.00    +0.000 A 
ATOM      5  C   UNL     1      44.085   7.071  11.364  0.00  0.00    +0.000 A 
ATOM      6  C   UNL     1      44.580   8.350  11.465  0.00  0.00    +0.000 A 
ATOM      7  N   UNL     1      45.837   8.642  11.858  0.00  0.00    +0.000 NA
ATOM      8  C   UNL     1      46.645   7.607  12.179  0.00  0.00    +0.000 A 
ATOM      9  C   UNL     1      46.205   6.293  12.141  0.00  0.00    +0.000 A 
BRANCH   8  10
ATOM     10  C   UNL     1      48.069   7.911  12.598  0.00  0.00    +0.000 C 
ATOM     11  C   UNL     1      48.162   9.325  13.191  0.00  0.00    +0.000 C 
ATOM     12  C   UNL     1      49.595   9.695  13.559  0.00  0.00    +0.000 C 
ATOM     13  C   UNL     1      50.532   9.529  12.366  0.00  0.00    +0.000 C 
ATOM     14  C   UNL     1      50.473   8.110  11.807  0.00  0.00    +0.000 C 
ATOM     15  C   UNL     1      49.047   7.718  11.426  0.00  0.00    +0.000 C 
ENDBRANCH   8  10
ENDBRANCH   1   4
BRANCH   1  16
ATOM     16  C   UNL     1      43.785   4.147  10.412  0.00  0.00    +0.000 C 
BRANCH  16  20
ATOM     17  C   UNL     1      46.606   2.731   7.524  0.00  0.00    +0.000 A 
ATOM     18  C   UNL     1      46.392   4.100   7.606  0.00  0.00    +0.000 A 
ATOM     19  C   UNL     1      45.421   4.585   8.478  0.00  0.00    +0.000 A 
ATOM     20  C   UNL     1      44.721   3.699   9.304  0.00  0.00    +0.000 A 
ATOM     21  N   UNL     1      44.949   2.360   9.237  0.00  0.00    +0.000 NA
ATOM     22  C   UNL     1      45.853   1.900   8.333  0.00  0.00    +0.000 A 
BRANCH  17  24
ATOM     23  O   UNL     1      48.302   1.246   6.819  0.00  0.00    +0.000 OA
ATOM     24  C   UNL     1      47.602   2.188   6.582  0.00  0.00    +0.000 C 
BRANCH  24  25
ATOM     25  O   UNL     1      47.646   2.914   5.434  0.00  0.00    +0.000 OA
ATOM     26  H   UNL     1      47.836   3.864   5.549  0.00  0.00    +0.000 HD
ENDBRANCH  24  25
ENDBRANCH  17  24
ENDBRANCH  16  20
ENDBRANCH   1  16
TORSDOF 6
ENDMDL
MODEL 5
REMARK VINA RESULT:    -6.543      3.259      7.026
REMARK INTER + INTRA:          -9.763
REMARK INTER:                  -8.867
REMARK INTRA:                  -0.896
REMARK UNBOUND:                -1.116
REMARK  Name = 
REMARK  6 active torsions:
REMARK  status: ('A' for Active; 'I' for Inactive)
REMARK    1  A    between atoms: C_2  and  O_3
REMARK    2  A    between atoms: C_2  and  C_4
REMARK    3  A    between atoms: C_7  and  C_8
REMARK    4  A    between atoms: C_8  and  C_9
REMARK    5  A    between atoms: C_9  and  C_10
REMARK    6  A    between atoms: C_14  and  C_15
REMARK                            x       y       z     vdW  Elec       q    Type
REMARK                         _______ _______ _______ _____ _____    ______ ____
ROOT
ATOM      1  C   UNL     1      46.262   5.428  13.110  0.00  0.00    +0.000 C 
ATOM      2  C   UNL     1      46.051   4.688  14.450  0.00  0.00    +0.000 C 
ATOM      3  C   UNL     1      47.136   4.239  13.528  0.00  0.00    +0.000 C 
ENDROOT
BRANCH   1   4
ATOM      4  C   UNL     1      45.257   5.154  12.016  0.00  0.00    +0.000 A 
ATOM      5  C   UNL     1      43.965   5.674  12.067  0.00  0.00    +0.000 A 
ATOM      6  C   UNL     1      43.128   5.471  10.995  0.00  0.00    +0.000 A 
ATOM      7  N   UNL     1      43.460   4.746   9.906  0.00  0.00    +0.000 NA
ATOM      8  C   UNL     1      44.696   4.200   9.876  0.00  0.00    +0.000 A 
ATOM      9  C   UNL     1      45.610   4.395  10.900  0.00  0.00    +0.000 A 
BRANCH   8  10
ATOM     10  C   UNL     1      45.081   3.361   8.675  0.00  0.00    +0.000 C 
ATOM     11  C   UNL     1      45.628   1.999   9.125  0.00  0.00    +0.000 C 
ATOM     12  C   UNL     1      46.093   1.154   7.944  0.00  0.00    +0.000 C 
ATOM     13  C   UNL     1      47.110   1.907   7.092  0.00  0.00    +0.000 C 
ATOM     14  C   UNL     1      46.548   3.240   6.606  0.00  0.00    +0.000 C 
ATOM     15  C   UNL     1      46.080   4.108   7.772  0.00  0.00    +0.000 C 
ENDBRANCH   8  10
ENDBRANCH   1   4
BRANCH   1  16
ATOM     16  C   UNL     1      46.651   6.910  13.214  0.00  0.00    +0.000 C 
BRANCH  16  20
ATOM     17  C   UNL     1      50.656   8.301  12.639  0.00  0.00    +0.000 A 
ATOM     18  C   UNL     1      49.867   8.109  11.513  0.00  0.00    +0.000 A 
ATOM     19  C   UNL     1      48.588   7.579  11.662  0.00  0.00    +0.000 A 
ATOM     20  C   UNL     1      48.091   7.309  12.941  0.00  0.00    +0.000 A 
ATOM     21  N   UNL     1      48.858   7.519  14.044  0.00  0.00    +0.000 NA
ATOM     22  C   UNL     1      50.127   7.974  13.874  0.00  0.00    +0.000 A 
BRANCH  17  24
ATOM     23  O   UNL     1      52.286   9.971  12.273  0.00  0.00    +0.000 OA
ATOM     24  C   UNL     1      52.028   8.825  12.507  0.00  0.00    +0.000 C 
BRANCH  24  25
ATOM     25  O   UNL     1      52.951   7.837  12.645  0.00  0.00    +0.000 OA
ATOM     26  H   UNL     1      53.128   7.557  13.563  0.00  0.00    +0.000 HD
ENDBRANCH  24  25
ENDBRANCH  17  24
ENDBRANCH  16  20
ENDBRANCH   1  16
TORSDOF 6
ENDMDL
MODEL 6
REMARK VINA RESULT:    -6.459      3.480      6.047
REMARK INTER + INTRA:          -9.652
REMARK INTER:                  -8.701
REMARK INTRA:                  -0.951
REMARK UNBOUND:                -1.116
REMARK  Name = 
REMARK  6 active torsions:
REMARK  status: ('A' for Active; 'I' for Inactive)
REMARK    1  A    between atoms: C_2  and  O_3
REMARK    2  A    between atoms: C_2  and  C_4
REMARK    3  A    between atoms: C_7  and  C_8
REMARK    4  A    between atoms: C_8  and  C_9
REMARK    5  A    between atoms: C_9  and  C_10
REMARK    6  A    between atoms: C_14  and  C_15
REMARK                            x       y       z     vdW  Elec       q    Type
REMARK                         _______ _______ _______ _____ _____    ______ ____
ROOT
ATOM      1  C   UNL     1      48.258   7.879  12.960  0.00  0.00    +0.000 C 
ATOM      2  C   UNL     1      49.166   8.834  12.151  0.00  0.00    +0.000 C 
ATOM      3  C   UNL     1      49.448   7.368  12.138  0.00  0.00    +0.000 C 
ENDROOT
BRANCH   1   4
ATOM      4  C   UNL     1      48.442   7.872  14.459  0.00  0.00    +0.000 A 
ATOM      5  C   UNL     1      48.392   9.050  15.204  0.00  0.00    +0.000 A 
ATOM      6  C   UNL     1      48.469   8.969  16.575  0.00  0.00    +0.000 A 
ATOM      7  N   UNL     1      48.646   7.816  17.253  0.00  0.00    +0.000 NA
ATOM      8  C   UNL     1      48.742   6.678  16.529  0.00  0.00    +0.000 A 
ATOM      9  C   UNL     1      48.633   6.674  15.147  0.00  0.00    +0.000 A 
BRANCH   8  10
ATOM     10  C   UNL     1      48.966   5.375  17.269  0.00  0.00    +0.000 C 
ATOM     11  C   UNL     1      50.454   4.994  17.246  0.00  0.00    +0.000 C 
ATOM     12  C   UNL     1      50.708   3.650  17.920  0.00  0.00    +0.000 C 
ATOM     13  C   UNL     1      49.844   2.553  17.306  0.00  0.00    +0.000 C 
ATOM     14  C   UNL     1      48.362   2.911  17.372  0.00  0.00    +0.000 C 
ATOM     15  C   UNL     1      48.081   4.252  16.698  0.00  0.00    +0.000 C 
ENDBRANCH   8  10
ENDBRANCH   1   4
BRANCH   1  16
ATOM     16  C   UNL     1      46.784   7.829  12.532  0.00  0.00    +0.000 C 
BRANCH  16  20
ATOM     17  C   UNL     1      44.793   4.208  11.423  0.00  0.00    +0.000 A 
ATOM     18  C   UNL     1      45.069   4.412  12.768  0.00  0.00    +0.000 A 
ATOM     19  C   UNL     1      45.789   5.541  13.151  0.00  0.00    +0.000 A 
ATOM     20  C   UNL     1      46.167   6.485  12.190  0.00  0.00    +0.000 A 
ATOM     21  N   UNL     1      45.876   6.293  10.875  0.00  0.00    +0.000 NA
ATOM     22  C   UNL     1      45.231   5.153  10.514  0.00  0.00    +0.000 A 
BRANCH  17  24
ATOM     23  O   UNL     1      42.987   2.687  11.398  0.00  0.00    +0.000 OA
ATOM     24  C   UNL     1      44.066   3.002  10.986  0.00  0.00    +0.000 C 
BRANCH  24  25
ATOM     25  O   UNL     1      44.794   2.282  10.092  0.00  0.00    +0.000 OA
ATOM     26  H   UNL     1      45.693   2.619   9.918  0.00  0.00    +0.000 HD
ENDBRANCH  24  25
ENDBRANCH  17  24
ENDBRANCH  16  20
ENDBRANCH   1  16
TORSDOF 6
ENDMDL
MODEL 7
REMARK VINA RESULT:    -6.388      3.983      7.391
REMARK INTER + INTRA:          -9.558
REMARK INTER:                  -9.001
REMARK INTRA:                  -0.557
REMARK UNBOUND:                -1.116
REMARK  Name = 
REMARK  6 active torsions:
REMARK  status: ('A' for Active; 'I' for Inactive)
REMARK    1  A    between atoms: C_2  and  O_3
REMARK    2  A    between atoms: C_2  and  C_4
REMARK    3  A    between atoms: C_7  and  C_8
REMARK    4  A    between atoms: C_8  and  C_9
REMARK    5  A    between atoms: C_9  and  C_10
REMARK    6  A    between atoms: C_14  and  C_15
REMARK                            x       y       z     vdW  Elec       q    Type
REMARK                         _______ _______ _______ _____ _____    ______ ____
ROOT
ATOM      1  C   UNL     1      48.438   8.173  12.463  0.00  0.00    +0.000 C 
ATOM      2  C   UNL     1      49.363   9.021  11.560  0.00  0.00    +0.000 C 
ATOM      3  C   UNL     1      49.031   9.508  12.932  0.00  0.00    +0.000 C 
ENDROOT
BRANCH   1   4
ATOM      4  C   UNL     1      46.964   8.188  12.132  0.00  0.00    +0.000 A 
ATOM      5  C   UNL     1      46.215   9.362  12.193  0.00  0.00    +0.000 A 
ATOM      6  C   UNL     1      44.902   9.330  11.786  0.00  0.00    +0.000 A 
ATOM      7  N   UNL     1      44.266   8.213  11.378  0.00  0.00    +0.000 NA
ATOM      8  C   UNL     1      44.977   7.062  11.364  0.00  0.00    +0.000 A 
ATOM      9  C   UNL     1      46.316   7.023  11.720  0.00  0.00    +0.000 A 
BRANCH   8  10
ATOM     10  C   UNL     1      44.276   5.791  10.933  0.00  0.00    +0.000 C 
ATOM     11  C   UNL     1      43.968   4.909  12.152  0.00  0.00    +0.000 C 
ATOM     12  C   UNL     1      43.326   3.586  11.750  0.00  0.00    +0.000 C 
ATOM     13  C   UNL     1      44.183   2.844  10.729  0.00  0.00    +0.000 C 
ATOM     14  C   UNL     1      44.449   3.704   9.497  0.00  0.00    +0.000 C 
ATOM     15  C   UNL     1      45.098   5.034   9.874  0.00  0.00    +0.000 C 
ENDBRANCH   8  10
ENDBRANCH   1   4
BRANCH   1  16
ATOM     16  C   UNL     1      48.959   6.778  12.837  0.00  0.00    +0.000 C 
BRANCH  16  20
ATOM     17  C   UNL     1      47.548   4.654  16.272  0.00  0.00    +0.000 A 
ATOM     18  C   UNL     1      46.963   4.367  15.046  0.00  0.00    +0.000 A 
ATOM     19  C   UNL     1      47.343   5.100  13.924  0.00  0.00    +0.000 A 
ATOM     20  C   UNL     1      48.350   6.066  14.032  0.00  0.00    +0.000 A 
ATOM     21  N   UNL     1      48.936   6.329  15.230  0.00  0.00    +0.000 NA
ATOM     22  C   UNL     1      48.505   5.650  16.325  0.00  0.00    +0.000 A 
BRANCH  17  24
ATOM     23  O   UNL     1      46.719   2.798  17.474  0.00  0.00    +0.000 OA
ATOM     24  C   UNL     1      47.137   3.920  17.483  0.00  0.00    +0.000 C 
BRANCH  24  25
ATOM     25  O   UNL     1      47.257   4.691  18.595  0.00  0.00    +0.000 OA
ATOM     26  H   UNL     1      47.897   4.371  19.258  0.00  0.00    +0.000 HD
ENDBRANCH  24  25
ENDBRANCH  17  24
ENDBRANCH  16  20
ENDBRANCH   1  16
TORSDOF 6
ENDMDL
MODEL 8
REMARK VINA RESULT:    -6.063      5.401      8.455
REMARK INTER + INTRA:          -9.128
REMARK INTER:                  -8.836
REMARK INTRA:                  -0.292
REMARK UNBOUND:                -1.116
REMARK  Name = 
REMARK  6 active torsions:
REMARK  status: ('A' for Active; 'I' for Inactive)
REMARK    1  A    between atoms: C_2  and  O_3
REMARK    2  A    between atoms: C_2  and  C_4
REMARK    3  A    between atoms: C_7  and  C_8
REMARK    4  A    between atoms: C_8  and  C_9
REMARK    5  A    between atoms: C_9  and  C_10
REMARK    6  A    between atoms: C_14  and  C_15
REMARK                            x       y       z     vdW  Elec       q    Type
REMARK                         _______ _______ _______ _____ _____    ______ ____
ROOT
ATOM      1  C   UNL     1      48.238   4.779  16.926  0.00  0.00    +0.000 C 
ATOM      2  C   UNL     1      47.120   4.885  17.988  0.00  0.00    +0.000 C 
ATOM      3  C   UNL     1      47.382   3.571  17.329  0.00  0.00    +0.000 C 
ENDROOT
BRANCH   1   4
ATOM      4  C   UNL     1      47.945   5.371  15.568  0.00  0.00    +0.000 A 
ATOM      5  C   UNL     1      48.591   6.523  15.121  0.00  0.00    +0.000 A 
ATOM      6  C   UNL     1      48.354   6.957  13.837  0.00  0.00    +0.000 A 
ATOM      7  N   UNL     1      47.487   6.366  12.990  0.00  0.00    +0.000 NA
ATOM      8  C   UNL     1      46.823   5.277  13.438  0.00  0.00    +0.000 A 
ATOM      9  C   UNL     1      47.039   4.755  14.705  0.00  0.00    +0.000 A 
BRANCH   8  10
ATOM     10  C   UNL     1      45.826   4.613  12.512  0.00  0.00    +0.000 C 
ATOM     11  C   UNL     1      45.684   5.417  11.212  0.00  0.00    +0.000 C 
ATOM     12  C   UNL     1      44.633   4.818  10.283  0.00  0.00    +0.000 C 
ATOM     13  C   UNL     1      43.291   4.667  10.993  0.00  0.00    +0.000 C 
ATOM     14  C   UNL     1      43.424   3.827  12.260  0.00  0.00    +0.000 C 
ATOM     15  C   UNL     1      44.468   4.411  13.210  0.00  0.00    +0.000 C 
ENDBRANCH   8  10
ENDBRANCH   1   4
BRANCH   1  16
ATOM     16  C   UNL     1      49.663   5.074  17.419  0.00  0.00    +0.000 C 
BRANCH  16  20
ATOM     17  C   UNL     1      52.297   1.716  17.707  0.00  0.00    +0.000 A 
ATOM     18  C   UNL     1      52.773   2.951  18.124  0.00  0.00    +0.000 A 
ATOM     19  C   UNL     1      51.968   4.078  17.967  0.00  0.00    +0.000 A 
ATOM     20  C   UNL     1      50.674   3.942  17.453  0.00  0.00    +0.000 A 
ATOM     21  N   UNL     1      50.204   2.727  17.065  0.00  0.00    +0.000 NA
ATOM     22  C   UNL     1      51.027   1.651  17.165  0.00  0.00    +0.000 A 
BRANCH  17  24
ATOM     23  O   UNL     1      54.262   0.440  17.410  0.00  0.00    +0.000 OA
ATOM     24  C   UNL     1      53.142   0.514  17.827  0.00  0.00    +0.000 C 
BRANCH  24  25
ATOM     25  O   UNL     1      52.474  -0.503  18.434  0.00  0.00    +0.000 OA
ATOM     26  H   UNL     1      52.612  -1.386  18.042  0.00  0.00    +0.000 HD
ENDBRANCH  24  25
ENDBRANCH  17  24
ENDBRANCH  16  20
ENDBRANCH   1  16
TORSDOF 6
ENDMDL
