MODEL 1
REMARK VINA RESULT:    -8.834      0.000      0.000
REMARK INTER + INTRA:         -12.368
REMARK INTER:                 -11.416
REMARK INTRA:                  -0.952
REMARK UNBOUND:                -0.952
REMARK  Name = 
REMARK  5 active torsions:
REMARK  status: ('A' for Active; 'I' for Inactive)
REMARK    1  A    between atoms: C_2  and  C_4
REMARK    2  A    between atoms: C_7  and  O_8
REMARK    3  A    between atoms: O_8  and  C_9
REMARK    4  A    between atoms: C_9  and  C_10
REMARK    5  A    between atoms: C_14  and  C_15
REMARK                            x       y       z     vdW  Elec       q    Type
REMARK                         _______ _______ _______ _____ _____    ______ ____
ROOT
ATOM      1  C   UNL     1      43.654   4.036  11.336  0.00  0.00    +0.000 C 
ENDROOT
BRANCH   1   2
ATOM      2  C   UNL     1      44.827   4.534  12.154  0.00  0.00    +0.000 A 
ATOM      3  C   UNL     1      45.613   3.620  12.867  0.00  0.00    +0.000 A 
ATOM      4  C   UNL     1      46.751   4.048  13.544  0.00  0.00    +0.000 A 
ATOM      5  C   UNL     1      47.137   5.389  13.487  0.00  0.00    +0.000 A 
ATOM      6  C   UNL     1      46.407   6.327  12.736  0.00  0.00    +0.000 A 
ATOM      7  C   UNL     1      45.232   5.877  12.104  0.00  0.00    +0.000 A 
BRANCH   6   8
ATOM      8  C   UNL     1      46.908   7.702  12.496  0.00  0.00    +0.000 A 
ATOM      9  C   UNL     1      48.247   7.924  12.111  0.00  0.00    +0.000 A 
ATOM     10  C   UNL     1      48.703   9.188  11.725  0.00  0.00    +0.000 A 
ATOM     11  C   UNL     1      47.824  10.264  11.712  0.00  0.00    +0.000 A 
ATOM     12  C   UNL     1      46.512  10.073  12.121  0.00  0.00    +0.000 A 
ATOM     13  F   UNL     1      45.659  11.105  12.096  0.00  0.00    +0.000 F 
ATOM     14  C   UNL     1      46.056   8.819  12.524  0.00  0.00    +0.000 A 
ENDBRANCH   6   8
ENDBRANCH   1   2
BRANCH   1  15
ATOM     15  O   UNL     1      43.691   4.549  10.000  0.00  0.00    +0.000 OA
BRANCH  15  19
ATOM     16  C   UNL     1      46.406   2.439   7.730  0.00  0.00    +0.000 A 
ATOM     17  C   UNL     1      45.595   1.763   8.642  0.00  0.00    +0.000 A 
ATOM     18  C   UNL     1      44.671   2.487   9.398  0.00  0.00    +0.000 A 
ATOM     19  C   UNL     1      44.593   3.859   9.213  0.00  0.00    +0.000 A 
ATOM     20  N   UNL     1      45.361   4.536   8.334  0.00  0.00    +0.000 NA
ATOM     21  C   UNL     1      46.256   3.814   7.619  0.00  0.00    +0.000 A 
BRANCH  16  23
ATOM     22  N   UNL     1      48.474   2.547   6.447  0.00  0.00    +0.000 N 
ATOM     23  C   UNL     1      47.446   1.780   6.909  0.00  0.00    +0.000 C 
ATOM     24  O   UNL     1      47.402   0.577   6.671  0.00  0.00    +0.000 OA
ATOM     25  H   UNL     1      49.218   2.056   5.967  0.00  0.00    +0.000 HD
ATOM     26  H   UNL     1      48.682   3.467   6.813  0.00  0.00    +0.000 HD
ENDBRANCH  16  23
ENDBRANCH  15  19
ENDBRANCH   1  15
TORSDOF 5
ENDMDL
MODEL 2
REMARK VINA RESULT:    -8.753      2.739      4.031
REMARK INTER + INTRA:         -12.263
REMARK INTER:                 -11.538
REMARK INTRA:                  -0.725
REMARK UNBOUND:                -0.952
REMARK  Name = 
REMARK  5 active torsions:
REMARK  status: ('A' for Active; 'I' for Inactive)
REMARK    1  A    between atoms: C_2  and  C_4
REMARK    2  A    between atoms: C_7  and  O_8
REMARK    3  A    between atoms: O_8  and  C_9
REMARK    4  A    between atoms: C_9  and  C_10
REMARK    5  A    between atoms: C_14  and  C_15
REMARK                            x       y       z     vdW  Elec       q    Type
REMARK                         _______ _______ _______ _____ _____    ______ ____
ROOT
ATOM      1  C   UNL     1      44.150   4.432  11.451  0.00  0.00    +0.000 C 
ENDROOT
BRANCH   1   2
ATOM      2  C   UNL     1      45.375   5.120  12.016  0.00  0.00    +0.000 A 
ATOM      3  C   UNL     1      45.835   6.306  11.432  0.00  0.00    +0.000 A 
ATOM      4  C   UNL     1      46.899   7.004  11.998  0.00  0.00    +0.000 A 
ATOM      5  C   UNL     1      47.491   6.543  13.176  0.00  0.00    +0.000 A 
ATOM      6  C   UNL     1      47.022   5.388  13.824  0.00  0.00    +0.000 A 
ATOM      7  C   UNL     1      45.979   4.674  13.202  0.00  0.00    +0.000 A 
BRANCH   6   8
ATOM      8  C   UNL     1      47.498   4.997  15.173  0.00  0.00    +0.000 A 
ATOM      9  C   UNL     1      48.353   5.844  15.909  0.00  0.00    +0.000 A 
ATOM     10  C   UNL     1      48.687   5.577  17.240  0.00  0.00    +0.000 A 
ATOM     11  C   UNL     1      48.169   4.453  17.870  0.00  0.00    +0.000 A 
ATOM     12  C   UNL     1      47.355   3.589  17.152  0.00  0.00    +0.000 A 
ATOM     13  F   UNL     1      46.842   2.511  17.760  0.00  0.00    +0.000 F 
ATOM     14  C   UNL     1      47.032   3.839  15.819  0.00  0.00    +0.000 A 
ENDBRANCH   6   8
ENDBRANCH   1   2
BRANCH   1  15
ATOM     15  O   UNL     1      43.955   4.757  10.070  0.00  0.00    +0.000 OA
BRANCH  15  19
ATOM     16  C   UNL     1      46.411   2.454   7.695  0.00  0.00    +0.000 A 
ATOM     17  C   UNL     1      45.617   1.842   8.666  0.00  0.00    +0.000 A 
ATOM     18  C   UNL     1      44.781   2.631   9.458  0.00  0.00    +0.000 A 
ATOM     19  C   UNL     1      44.770   4.002   9.249  0.00  0.00    +0.000 A 
ATOM     20  N   UNL     1      45.522   4.618   8.313  0.00  0.00    +0.000 NA
ATOM     21  C   UNL     1      46.332   3.833   7.563  0.00  0.00    +0.000 A 
BRANCH  16  23
ATOM     22  N   UNL     1      48.470   2.387   6.394  0.00  0.00    +0.000 N 
ATOM     23  C   UNL     1      47.362   1.722   6.830  0.00  0.00    +0.000 C 
ATOM     24  O   UNL     1      47.178   0.546   6.534  0.00  0.00    +0.000 OA
ATOM     25  H   UNL     1      49.149   1.839   5.882  0.00  0.00    +0.000 HD
ATOM     26  H   UNL     1      48.785   3.257   6.803  0.00  0.00    +0.000 HD
ENDBRANCH  16  23
ENDBRANCH  15  19
ENDBRANCH   1  15
TORSDOF 5
ENDMDL
MODEL 3
REMARK VINA RESULT:    -8.094      2.012      2.714
REMARK INTER + INTRA:         -11.411
REMARK INTER:                 -10.633
REMARK INTRA:                  -0.778
REMARK UNBOUND:                -0.952
REMARK  Name = 
REMARK  5 active torsions:
REMARK  status: ('A' for Active; 'I' for Inactive)
REMARK    1  A    between atoms: C_2  and  C_4
REMARK    2  A    between atoms: C_7  and  O_8
REMARK    3  A    between atoms: O_8  and  C_9
REMARK    4  A    between atoms: C_9  and  C_10
REMARK    5  A    between atoms: C_14  and  C_15
REMARK                            x       y       z     vdW  Elec       q    Type
REMARK                         _______ _______ _______ _____ _____    ______ ____
ROOT
ATOM      1  C   UNL     1      44.204   3.683  11.581  0.00  0.00    +0.000 C 
ENDROOT
BRANCH   1   2
ATOM      2  C   UNL     1      44.686   5.119  11.580  0.00  0.00    +0.000 A 
ATOM      3  C   UNL     1      43.759   6.162  11.466  0.00  0.00    +0.000 A 
ATOM      4  C   UNL     1      44.174   7.487  11.562  0.00  0.00    +0.000 A 
ATOM      5  C   UNL     1      45.516   7.784  11.810  0.00  0.00    +0.000 A 
ATOM      6  C   UNL     1      46.468   6.765  11.988  0.00  0.00    +0.000 A 
ATOM      7  C   UNL     1      46.029   5.435  11.834  0.00  0.00    +0.000 A 
BRANCH   6   8
ATOM      8  C   UNL     1      47.847   7.051  12.451  0.00  0.00    +0.000 A 
ATOM      9  C   UNL     1      48.754   7.748  11.625  0.00  0.00    +0.000 A 
ATOM     10  C   UNL     1      50.002   8.171  12.095  0.00  0.00    +0.000 A 
ATOM     11  C   UNL     1      50.372   7.908  13.407  0.00  0.00    +0.000 A 
ATOM     12  C   UNL     1      49.507   7.193  14.224  0.00  0.00    +0.000 A 
ATOM     13  F   UNL     1      49.854   6.950  15.495  0.00  0.00    +0.000 F 
ATOM     14  C   UNL     1      48.269   6.753  13.758  0.00  0.00    +0.000 A 
ENDBRANCH   6   8
ENDBRANCH   1   2
BRANCH   1  15
ATOM     15  O   UNL     1      43.630   3.322  10.319  0.00  0.00    +0.000 OA
BRANCH  15  19
ATOM     16  C   UNL     1      46.481   2.648   7.421  0.00  0.00    +0.000 A 
ATOM     17  C   UNL     1      45.908   3.914   7.546  0.00  0.00    +0.000 A 
ATOM     18  C   UNL     1      44.951   4.134   8.538  0.00  0.00    +0.000 A 
ATOM     19  C   UNL     1      44.603   3.079   9.368  0.00  0.00    +0.000 A 
ATOM     20  N   UNL     1      45.146   1.847   9.274  0.00  0.00    +0.000 NA
ATOM     21  C   UNL     1      46.065   1.655   8.298  0.00  0.00    +0.000 A 
BRANCH  16  23
ATOM     22  N   UNL     1      47.428   2.974   5.201  0.00  0.00    +0.000 N 
ATOM     23  C   UNL     1      47.471   2.292   6.381  0.00  0.00    +0.000 C 
ATOM     24  O   UNL     1      48.322   1.431   6.580  0.00  0.00    +0.000 OA
ATOM     25  H   UNL     1      48.171   2.777   4.543  0.00  0.00    +0.000 HD
ATOM     26  H   UNL     1      46.919   3.840   5.084  0.00  0.00    +0.000 HD
ENDBRANCH  16  23
ENDBRANCH  15  19
ENDBRANCH   1  15
TORSDOF 5
ENDMDL
MODEL 4
REMARK VINA RESULT:    -8.030      5.231      8.311
REMARK INTER + INTRA:         -11.328
REMARK INTER:                 -10.672
REMARK INTRA:                  -0.657
REMARK UNBOUND:                -0.952
REMARK  Name = 
REMARK  5 active torsions:
REMARK  status: ('A' for Active; 'I' for Inactive)
REMARK    1  A    between atoms: C_2  and  C_4
REMARK    2  A    between atoms: C_7  and  O_8
REMARK    3  A    between atoms: O_8  and  C_9
REMARK    4  A    between atoms: C_9  and  C_10
REMARK    5  A    between atoms: C_14  and  C_15
REMARK                            x       y       z     vdW  Elec       q    Type
REMARK                         _______ _______ _______ _____ _____    ______ ____
ROOT
ATOM      1  C   UNL     1      46.044   5.118  14.013  0.00  0.00    +0.000 C 
ENDROOT
BRANCH   1   2
ATOM      2  C   UNL     1      45.094   4.872  12.861  0.00  0.00    +0.000 A 
ATOM      3  C   UNL     1      43.834   5.483  12.857  0.00  0.00    +0.000 A 
ATOM      4  C   UNL     1      42.988   5.346  11.761  0.00  0.00    +0.000 A 
ATOM      5  C   UNL     1      43.405   4.626  10.639  0.00  0.00    +0.000 A 
ATOM      6  C   UNL     1      44.684   4.044  10.580  0.00  0.00    +0.000 A 
ATOM      7  C   UNL     1      45.499   4.155  11.724  0.00  0.00    +0.000 A 
BRANCH   6   8
ATOM      8  C   UNL     1      45.221   3.454   9.330  0.00  0.00    +0.000 A 
ATOM      9  C   UNL     1      45.708   4.280   8.296  0.00  0.00    +0.000 A 
ATOM     10  C   UNL     1      46.364   3.752   7.179  0.00  0.00    +0.000 A 
ATOM     11  C   UNL     1      46.551   2.380   7.073  0.00  0.00    +0.000 A 
ATOM     12  C   UNL     1      46.048   1.549   8.064  0.00  0.00    +0.000 A 
ATOM     13  F   UNL     1      46.239   0.226   7.972  0.00  0.00    +0.000 F 
ATOM     14  C   UNL     1      45.378   2.067   9.171  0.00  0.00    +0.000 A 
ENDBRANCH   6   8
ENDBRANCH   1   2
BRANCH   1  15
ATOM     15  O   UNL     1      46.639   3.900  14.473  0.00  0.00    +0.000 OA
BRANCH  15  19
ATOM     16  C   UNL     1      48.507   4.414  18.110  0.00  0.00    +0.000 A 
ATOM     17  C   UNL     1      48.607   5.408  17.136  0.00  0.00    +0.000 A 
ATOM     18  C   UNL     1      47.961   5.227  15.911  0.00  0.00    +0.000 A 
ATOM     19  C   UNL     1      47.240   4.060  15.707  0.00  0.00    +0.000 A 
ATOM     20  N   UNL     1      47.122   3.087  16.635  0.00  0.00    +0.000 NA
ATOM     21  C   UNL     1      47.765   3.280  17.811  0.00  0.00    +0.000 A 
BRANCH  16  23
ATOM     22  N   UNL     1      48.564   3.896  20.491  0.00  0.00    +0.000 N 
ATOM     23  C   UNL     1      49.183   4.480  19.425  0.00  0.00    +0.000 C 
ATOM     24  O   UNL     1      50.277   5.020  19.551  0.00  0.00    +0.000 OA
ATOM     25  H   UNL     1      49.088   3.875  21.356  0.00  0.00    +0.000 HD
ATOM     26  H   UNL     1      47.800   3.240  20.391  0.00  0.00    +0.000 HD
ENDBRANCH  16  23
ENDBRANCH  15  19
ENDBRANCH   1  15
TORSDOF 5
ENDMDL
MODEL 5
REMARK VINA RESULT:    -7.731      4.036      7.071
REMARK INTER + INTRA:         -10.942
REMARK INTER:                 -10.017
REMARK INTRA:                  -0.925
REMARK UNBOUND:                -0.952
REMARK  Name = 
REMARK  5 active torsions:
REMARK  status: ('A' for Active; 'I' for Inactive)
REMARK    1  A    between atoms: C_2  and  C_4
REMARK    2  A    between atoms: C_7  and  O_8
REMARK    3  A    between atoms: O_8  and  C_9
REMARK    4  A    between atoms: C_9  and  C_10
REMARK    5  A    between atoms: C_14  and  C_15
REMARK                            x       y       z     vdW  Elec       q    Type
REMARK                         _______ _______ _______ _____ _____    ______ ____
ROOT
ATOM      1  C   UNL     1      44.801   7.333  11.560  0.00  0.00    +0.000 C 
ENDROOT
BRANCH   1   2
ATOM      2  C   UNL     1      44.518   5.869  11.294  0.00  0.00    +0.000 A 
ATOM      3  C   UNL     1      43.437   5.246  11.927  0.00  0.00    +0.000 A 
ATOM      4  C   UNL     1      43.104   3.930  11.619  0.00  0.00    +0.000 A 
ATOM      5  C   UNL     1      43.826   3.233  10.648  0.00  0.00    +0.000 A 
ATOM      6  C   UNL     1      44.883   3.842   9.949  0.00  0.00    +0.000 A 
ATOM      7  C   UNL     1      45.231   5.156  10.317  0.00  0.00    +0.000 A 
BRANCH   6   8
ATOM      8  C   UNL     1      45.527   3.195   8.780  0.00  0.00    +0.000 A 
ATOM      9  C   UNL     1      46.000   3.968   7.699  0.00  0.00    +0.000 A 
ATOM     10  C   UNL     1      46.751   3.403   6.663  0.00  0.00    +0.000 A 
ATOM     11  C   UNL     1      47.049   2.047   6.686  0.00  0.00    +0.000 A 
ATOM     12  C   UNL     1      46.562   1.264   7.723  0.00  0.00    +0.000 A 
ATOM     13  F   UNL     1      46.860  -0.042   7.756  0.00  0.00    +0.000 F 
ATOM     14  C   UNL     1      45.799   1.816   8.750  0.00  0.00    +0.000 A 
ENDBRANCH   6   8
ENDBRANCH   1   2
BRANCH   1  15
ATOM     15  O   UNL     1      45.496   7.517  12.799  0.00  0.00    +0.000 OA
BRANCH  15  19
ATOM     16  C   UNL     1      49.530   8.179  12.283  0.00  0.00    +0.000 A 
ATOM     17  C   UNL     1      49.094   6.979  12.848  0.00  0.00    +0.000 A 
ATOM     18  C   UNL     1      47.724   6.762  13.008  0.00  0.00    +0.000 A 
ATOM     19  C   UNL     1      46.843   7.751  12.597  0.00  0.00    +0.000 A 
ATOM     20  N   UNL     1      47.239   8.916  12.043  0.00  0.00    +0.000 NA
ATOM     21  C   UNL     1      48.572   9.109  11.907  0.00  0.00    +0.000 A 
BRANCH  16  23
ATOM     22  N   UNL     1      51.725   7.711  11.335  0.00  0.00    +0.000 N 
ATOM     23  C   UNL     1      50.956   8.532  12.106  0.00  0.00    +0.000 C 
ATOM     24  O   UNL     1      51.429   9.545  12.612  0.00  0.00    +0.000 OA
ATOM     25  H   UNL     1      52.671   8.022  11.154  0.00  0.00    +0.000 HD
ATOM     26  H   UNL     1      51.334   7.018  10.709  0.00  0.00    +0.000 HD
ENDBRANCH  16  23
ENDBRANCH  15  19
ENDBRANCH   1  15
TORSDOF 5
ENDMDL
MODEL 6
REMARK VINA RESULT:    -6.950      5.483      7.905
REMARK INTER + INTRA:          -9.933
REMARK INTER:                  -9.101
REMARK INTRA:                  -0.832
REMARK UNBOUND:                -0.952
REMARK  Name = 
REMARK  5 active torsions:
REMARK  status: ('A' for Active; 'I' for Inactive)
REMARK    1  A    between atoms: C_2  and  C_4
REMARK    2  A    between atoms: C_7  and  O_8
REMARK    3  A    between atoms: O_8  and  C_9
REMARK    4  A    between atoms: C_9  and  C_10
REMARK    5  A    between atoms: C_14  and  C_15
REMARK                            x       y       z     vdW  Elec       q    Type
REMARK                         _______ _______ _______ _____ _____    ______ ____
ROOT
ATOM      1  C   UNL     1      48.854   6.548  15.807  0.00  0.00    +0.000 C 
ENDROOT
BRANCH   1   2
ATOM      2  C   UNL     1      48.317   6.748  14.405  0.00  0.00    +0.000 A 
ATOM      3  C   UNL     1      49.037   7.526  13.491  0.00  0.00    +0.000 A 
ATOM      4  C   UNL     1      48.608   7.639  12.171  0.00  0.00    +0.000 A 
ATOM      5  C   UNL     1      47.475   6.945  11.741  0.00  0.00    +0.000 A 
ATOM      6  C   UNL     1      46.757   6.108  12.614  0.00  0.00    +0.000 A 
ATOM      7  C   UNL     1      47.183   6.054  13.955  0.00  0.00    +0.000 A 
BRANCH   6   8
ATOM      8  C   UNL     1      45.680   5.211  12.131  0.00  0.00    +0.000 A 
ATOM      9  C   UNL     1      44.909   4.457  13.041  0.00  0.00    +0.000 A 
ATOM     10  C   UNL     1      43.788   3.728  12.630  0.00  0.00    +0.000 A 
ATOM     11  C   UNL     1      43.409   3.740  11.294  0.00  0.00    +0.000 A 
ATOM     12  C   UNL     1      44.175   4.448  10.379  0.00  0.00    +0.000 A 
ATOM     13  F   UNL     1      43.804   4.472   9.092  0.00  0.00    +0.000 F 
ATOM     14  C   UNL     1      45.304   5.161  10.778  0.00  0.00    +0.000 A 
ENDBRANCH   6   8
ENDBRANCH   1   2
BRANCH   1  15
ATOM     15  O   UNL     1      48.233   5.432  16.454  0.00  0.00    +0.000 OA
BRANCH  15  19
ATOM     16  C   UNL     1      51.054   2.596  17.439  0.00  0.00    +0.000 A 
ATOM     17  C   UNL     1      51.343   3.949  17.620  0.00  0.00    +0.000 A 
ATOM     18  C   UNL     1      50.375   4.901  17.293  0.00  0.00    +0.000 A 
ATOM     19  C   UNL     1      49.156   4.463  16.797  0.00  0.00    +0.000 A 
ATOM     20  N   UNL     1      48.849   3.161  16.618  0.00  0.00    +0.000 NA
ATOM     21  C   UNL     1      49.807   2.257  16.934  0.00  0.00    +0.000 A 
BRANCH  16  23
ATOM     22  N   UNL     1      51.519   0.292  18.083  0.00  0.00    +0.000 N 
ATOM     23  C   UNL     1      52.018   1.506  17.712  0.00  0.00    +0.000 C 
ATOM     24  O   UNL     1      53.226   1.678  17.585  0.00  0.00    +0.000 OA
ATOM     25  H   UNL     1      52.191  -0.459  18.175  0.00  0.00    +0.000 HD
ATOM     26  H   UNL     1      50.547   0.037  17.965  0.00  0.00    +0.000 HD
ENDBRANCH  16  23
ENDBRANCH  15  19
ENDBRANCH   1  15
TORSDOF 5
ENDMDL
MODEL 7
REMARK VINA RESULT:    -6.772      5.000      8.233
REMARK INTER + INTRA:          -9.704
REMARK INTER:                  -8.912
REMARK INTRA:                  -0.792
REMARK UNBOUND:                -0.952
REMARK  Name = 
REMARK  5 active torsions:
REMARK  status: ('A' for Active; 'I' for Inactive)
REMARK    1  A    between atoms: C_2  and  C_4
REMARK    2  A    between atoms: C_7  and  O_8
REMARK    3  A    between atoms: O_8  and  C_9
REMARK    4  A    between atoms: C_9  and  C_10
REMARK    5  A    between atoms: C_14  and  C_15
REMARK                            x       y       z     vdW  Elec       q    Type
REMARK                         _______ _______ _______ _____ _____    ______ ____
ROOT
ATOM      1  C   UNL     1      48.280   7.606  13.906  0.00  0.00    +0.000 C 
ENDROOT
BRANCH   1   2
ATOM      2  C   UNL     1      46.999   7.516  13.104  0.00  0.00    +0.000 A 
ATOM      3  C   UNL     1      46.228   8.665  12.897  0.00  0.00    +0.000 A 
ATOM      4  C   UNL     1      45.101   8.620  12.081  0.00  0.00    +0.000 A 
ATOM      5  C   UNL     1      44.752   7.433  11.434  0.00  0.00    +0.000 A 
ATOM      6  C   UNL     1      45.532   6.271  11.571  0.00  0.00    +0.000 A 
ATOM      7  C   UNL     1      46.637   6.332  12.443  0.00  0.00    +0.000 A 
BRANCH   6   8
ATOM      8  C   UNL     1      45.298   5.066  10.739  0.00  0.00    +0.000 A 
ATOM      9  C   UNL     1      44.595   3.958  11.258  0.00  0.00    +0.000 A 
ATOM     10  C   UNL     1      44.222   2.879  10.450  0.00  0.00    +0.000 A 
ATOM     11  C   UNL     1      44.542   2.885   9.099  0.00  0.00    +0.000 A 
ATOM     12  C   UNL     1      45.263   3.950   8.578  0.00  0.00    +0.000 A 
ATOM     13  F   UNL     1      45.561   3.966   7.272  0.00  0.00    +0.000 F 
ATOM     14  C   UNL     1      45.654   5.020   9.380  0.00  0.00    +0.000 A 
ENDBRANCH   6   8
ENDBRANCH   1   2
BRANCH   1  15
ATOM     15  O   UNL     1      48.787   6.308  14.235  0.00  0.00    +0.000 OA
BRANCH  15  19
ATOM     16  C   UNL     1      48.308   5.439  18.234  0.00  0.00    +0.000 A 
ATOM     17  C   UNL     1      49.040   6.565  17.854  0.00  0.00    +0.000 A 
ATOM     18  C   UNL     1      49.187   6.856  16.496  0.00  0.00    +0.000 A 
ATOM     19  C   UNL     1      48.596   6.009  15.570  0.00  0.00    +0.000 A 
ATOM     20  N   UNL     1      47.879   4.918  15.910  0.00  0.00    +0.000 NA
ATOM     21  C   UNL     1      47.758   4.652  17.233  0.00  0.00    +0.000 A 
BRANCH  16  23
ATOM     22  N   UNL     1      48.582   3.780  19.997  0.00  0.00    +0.000 N 
ATOM     23  C   UNL     1      48.125   5.014  19.639  0.00  0.00    +0.000 C 
ATOM     24  O   UNL     1      47.603   5.756  20.465  0.00  0.00    +0.000 OA
ATOM     25  H   UNL     1      48.528   3.550  20.981  0.00  0.00    +0.000 HD
ATOM     26  H   UNL     1      49.225   3.246  19.427  0.00  0.00    +0.000 HD
ENDBRANCH  16  23
ENDBRANCH  15  19
ENDBRANCH   1  15
TORSDOF 5
ENDMDL
MODEL 8
REMARK VINA RESULT:    -6.556      5.322      8.363
REMARK INTER + INTRA:          -9.424
REMARK INTER:                  -8.626
REMARK INTRA:                  -0.797
REMARK UNBOUND:                -0.952
REMARK  Name = 
REMARK  5 active torsions:
REMARK  status: ('A' for Active; 'I' for Inactive)
REMARK    1  A    between atoms: C_2  and  C_4
REMARK    2  A    between atoms: C_7  and  O_8
REMARK    3  A    between atoms: O_8  and  C_9
REMARK    4  A    between atoms: C_9  and  C_10
REMARK    5  A    between atoms: C_14  and  C_15
REMARK                            x       y       z     vdW  Elec       q    Type
REMARK                         _______ _______ _______ _____ _____    ______ ____
ROOT
ATOM      1  C   UNL     1      49.039   7.070  13.955  0.00  0.00    +0.000 C 
ENDROOT
BRANCH   1   2
ATOM      2  C   UNL     1      47.642   7.247  13.398  0.00  0.00    +0.000 A 
ATOM      3  C   UNL     1      47.008   8.491  13.496  0.00  0.00    +0.000 A 
ATOM      4  C   UNL     1      45.766   8.698  12.904  0.00  0.00    +0.000 A 
ATOM      5  C   UNL     1      45.158   7.673  12.175  0.00  0.00    +0.000 A 
ATOM      6  C   UNL     1      45.787   6.426  12.005  0.00  0.00    +0.000 A 
ATOM      7  C   UNL     1      47.020   6.229  12.658  0.00  0.00    +0.000 A 
BRANCH   6   8
ATOM      8  C   UNL     1      45.259   5.401  11.073  0.00  0.00    +0.000 A 
ATOM      9  C   UNL     1      45.674   5.371   9.725  0.00  0.00    +0.000 A 
ATOM     10  C   UNL     1      45.319   4.325   8.868  0.00  0.00    +0.000 A 
ATOM     11  C   UNL     1      44.539   3.278   9.343  0.00  0.00    +0.000 A 
ATOM     12  C   UNL     1      44.092   3.308  10.657  0.00  0.00    +0.000 A 
ATOM     13  F   UNL     1      43.351   2.293  11.122  0.00  0.00    +0.000 F 
ATOM     14  C   UNL     1      44.428   4.356  11.511  0.00  0.00    +0.000 A 
ENDBRANCH   6   8
ENDBRANCH   1   2
BRANCH   1  15
ATOM     15  O   UNL     1      49.206   7.778  15.189  0.00  0.00    +0.000 OA
BRANCH  15  19
ATOM     16  C   UNL     1      48.768   5.361  18.497  0.00  0.00    +0.000 A 
ATOM     17  C   UNL     1      48.469   6.721  18.590  0.00  0.00    +0.000 A 
ATOM     18  C   UNL     1      48.611   7.529  17.460  0.00  0.00    +0.000 A 
ATOM     19  C   UNL     1      49.047   6.945  16.279  0.00  0.00    +0.000 A 
ATOM     20  N   UNL     1      49.335   5.632  16.160  0.00  0.00    +0.000 NA
ATOM     21  C   UNL     1      49.199   4.872  17.272  0.00  0.00    +0.000 A 
BRANCH  16  23
ATOM     22  N   UNL     1      48.417   3.114  19.372  0.00  0.00    +0.000 N 
ATOM     23  C   UNL     1      48.694   4.423  19.639  0.00  0.00    +0.000 C 
ATOM     24  O   UNL     1      48.900   4.801  20.787  0.00  0.00    +0.000 OA
ATOM     25  H   UNL     1      48.463   2.478  20.157  0.00  0.00    +0.000 HD
ATOM     26  H   UNL     1      48.483   2.717  18.444  0.00  0.00    +0.000 HD
ENDBRANCH  16  23
ENDBRANCH  15  19
ENDBRANCH   1  15
TORSDOF 5
ENDMDL
MODEL 9
REMARK VINA RESULT:    -6.438      5.861      8.012
REMARK INTER + INTRA:          -9.271
REMARK INTER:                  -8.523
REMARK INTRA:                  -0.748
REMARK UNBOUND:                -0.952
REMARK  Name = 
REMARK  5 active torsions:
REMARK  status: ('A' for Active; 'I' for Inactive)
REMARK    1  A    between atoms: C_2  and  C_4
REMARK    2  A    between atoms: C_7  and  O_8
REMARK    3  A    between atoms: O_8  and  C_9
REMARK    4  A    between atoms: C_9  and  C_10
REMARK    5  A    between atoms: C_14  and  C_15
REMARK                            x       y       z     vdW  Elec       q    Type
REMARK                         _______ _______ _______ _____ _____    ______ ____
ROOT
ATOM      1  C   UNL     1      47.153   3.776  16.084  0.00  0.00    +0.000 C 
ENDROOT
BRANCH   1   2
ATOM      2  C   UNL     1      48.356   4.213  16.895  0.00  0.00    +0.000 A 
ATOM      3  C   UNL     1      48.260   5.335  17.727  0.00  0.00    +0.000 A 
ATOM      4  C   UNL     1      49.323   5.693  18.552  0.00  0.00    +0.000 A 
ATOM      5  C   UNL     1      50.480   4.911  18.581  0.00  0.00    +0.000 A 
ATOM      6  C   UNL     1      50.594   3.746  17.803  0.00  0.00    +0.000 A 
ATOM      7  C   UNL     1      49.524   3.437  16.940  0.00  0.00    +0.000 A 
BRANCH   6   8
ATOM      8  C   UNL     1      51.721   2.798  17.970  0.00  0.00    +0.000 A 
ATOM      9  C   UNL     1      51.639   1.484  17.461  0.00  0.00    +0.000 A 
ATOM     10  C   UNL     1      52.741   0.624  17.462  0.00  0.00    +0.000 A 
ATOM     11  C   UNL     1      53.958   1.060  17.971  0.00  0.00    +0.000 A 
ATOM     12  C   UNL     1      54.048   2.337  18.508  0.00  0.00    +0.000 A 
ATOM     13  F   UNL     1      55.224   2.766  18.987  0.00  0.00    +0.000 F 
ATOM     14  C   UNL     1      52.949   3.193  18.527  0.00  0.00    +0.000 A 
ENDBRANCH   6   8
ENDBRANCH   1   2
BRANCH   1  15
ATOM     15  O   UNL     1      47.535   3.333  14.777  0.00  0.00    +0.000 OA
BRANCH  15  19
ATOM     16  C   UNL     1      44.937   4.818  11.944  0.00  0.00    +0.000 A 
ATOM     17  C   UNL     1      45.661   5.700  12.747  0.00  0.00    +0.000 A 
ATOM     18  C   UNL     1      46.546   5.186  13.696  0.00  0.00    +0.000 A 
ATOM     19  C   UNL     1      46.674   3.809  13.807  0.00  0.00    +0.000 A 
ATOM     20  N   UNL     1      45.990   2.935  13.038  0.00  0.00    +0.000 NA
ATOM     21  C   UNL     1      45.131   3.457  12.132  0.00  0.00    +0.000 A 
BRANCH  16  23
ATOM     22  N   UNL     1      44.032   4.721   9.684  0.00  0.00    +0.000 N 
ATOM     23  C   UNL     1      43.942   5.251  10.937  0.00  0.00    +0.000 C 
ATOM     24  O   UNL     1      43.048   6.041  11.224  0.00  0.00    +0.000 OA
ATOM     25  H   UNL     1      43.288   4.962   9.042  0.00  0.00    +0.000 HD
ATOM     26  H   UNL     1      44.584   3.900   9.472  0.00  0.00    +0.000 HD
ENDBRANCH  16  23
ENDBRANCH  15  19
ENDBRANCH   1  15
TORSDOF 5
ENDMDL
