MODEL 1
REMARK VINA RESULT:    -8.323      0.000      0.000
REMARK INTER + INTRA:         -11.444
REMARK INTER:                 -10.512
REMARK INTRA:                  -0.932
REMARK UNBOUND:                -0.932
REMARK  Name = 
REMARK  7 active torsions:
REMARK  status: ('A' for Active; 'I' for Inactive)
REMARK    1  A    between atoms: C_1  and  C_2
REMARK    2  A    between atoms: C_2  and  C_3
REMARK    3  A    between atoms: C_2  and  C_4
REMARK    4  A    between atoms: C_2  and  C_19
REMARK    5  A    between atoms: C_5  and  C_6
REMARK    6  A    between atoms: C_10  and  N_11
REMARK    7  A    between atoms: C_14  and  O_15
REMARK                            x       y       z     vdW  Elec       q    Type
REMARK                         _______ _______ _______ _____ _____    ______ ____
ROOT
ATOM      1  C   UNL     1      46.809   5.499  13.404  0.00  0.00    +0.000 A 
ATOM      2  C   UNL     1      47.809   6.455  13.268  0.00  0.00    +0.000 A 
ATOM      3  N   UNL     1      48.721   6.742  14.221  0.00  0.00    +0.000 NA
ATOM      4  C   UNL     1      48.624   6.032  15.372  0.00  0.00    +0.000 A 
ATOM      5  C   UNL     1      47.673   5.044  15.646  0.00  0.00    +0.000 A 
ATOM      6  C   UNL     1      46.772   4.782  14.607  0.00  0.00    +0.000 A 
ENDROOT
BRANCH   5   7
ATOM      7  N   UNL     1      47.615   4.333  16.835  0.00  0.00    +0.000 N 
ATOM      8  C   UNL     1      48.320   3.064  16.998  0.00  0.00    +0.000 C 
ATOM      9  C   UNL     1      49.466   3.219  17.993  0.00  0.00    +0.000 C 
ATOM     10  C   UNL     1      48.999   3.852  19.301  0.00  0.00    +0.000 C 
ATOM     11  C   UNL     1      48.226   5.148  19.066  0.00  0.00    +0.000 C 
ATOM     12  C   UNL     1      47.100   4.972  18.049  0.00  0.00    +0.000 C 
BRANCH  10  13
ATOM     13  O   UNL     1      48.212   2.931  20.056  0.00  0.00    +0.000 OA
ATOM     14  H   UNL     1      48.743   2.591  20.796  0.00  0.00    +0.000 HD
ENDBRANCH  10  13
ENDBRANCH   5   7
BRANCH   1  16
ATOM     15  C   UNL     1      45.267   4.063  12.063  0.00  0.00    +0.000 C 
ATOM     16  C   UNL     1      45.898   5.230  12.287  0.00  0.00    +0.000 C 
BRANCH  15  18
ATOM     17  C   UNL     1      43.355   2.612  11.361  0.00  0.00    +0.000 C 
ATOM     18  C   UNL     1      44.284   3.771  10.926  0.00  0.00    +0.000 C 
ATOM     19  C   UNL     1      43.371   5.017  10.770  0.00  0.00    +0.000 C 
BRANCH  18  20
ATOM     20  C   UNL     1      45.015   3.428   9.610  0.00  0.00    +0.000 A 
ATOM     21  C   UNL     1      45.510   4.437   8.764  0.00  0.00    +0.000 A 
ATOM     22  C   UNL     1      46.238   4.128   7.609  0.00  0.00    +0.000 A 
ATOM     23  C   UNL     1      46.503   2.800   7.289  0.00  0.00    +0.000 A 
ATOM     24 CL   UNL     1      47.424   2.422   5.889  0.00  0.00    +0.000 Cl
ATOM     25  C   UNL     1      46.036   1.778   8.108  0.00  0.00    +0.000 A 
ATOM     26  C   UNL     1      45.300   2.090   9.250  0.00  0.00    +0.000 A 
ENDBRANCH  18  20
ENDBRANCH  15  18
ENDBRANCH   1  16
TORSDOF 5
ENDMDL
MODEL 2
REMARK VINA RESULT:    -7.648      2.827      4.382
REMARK INTER + INTRA:         -10.592
REMARK INTER:                  -9.508
REMARK INTRA:                  -1.084
REMARK UNBOUND:                -0.932
REMARK  Name = 
REMARK  7 active torsions:
REMARK  status: ('A' for Active; 'I' for Inactive)
REMARK    1  A    between atoms: C_1  and  C_2
REMARK    2  A    between atoms: C_2  and  C_3
REMARK    3  A    between atoms: C_2  and  C_4
REMARK    4  A    between atoms: C_2  and  C_19
REMARK    5  A    between atoms: C_5  and  C_6
REMARK    6  A    between atoms: C_10  and  N_11
REMARK    7  A    between atoms: C_14  and  O_15
REMARK                            x       y       z     vdW  Elec       q    Type
REMARK                         _______ _______ _______ _____ _____    ______ ____
ROOT
ATOM      1  C   UNL     1      46.905   4.956  13.872  0.00  0.00    +0.000 A 
ATOM      2  C   UNL     1      47.209   4.445  15.129  0.00  0.00    +0.000 A 
ATOM      3  N   UNL     1      48.062   5.025  15.999  0.00  0.00    +0.000 NA
ATOM      4  C   UNL     1      48.643   6.180  15.585  0.00  0.00    +0.000 A 
ATOM      5  C   UNL     1      48.431   6.806  14.354  0.00  0.00    +0.000 A 
ATOM      6  C   UNL     1      47.517   6.162  13.509  0.00  0.00    +0.000 A 
ENDROOT
BRANCH   5   7
ATOM      7  N   UNL     1      49.036   7.994  13.974  0.00  0.00    +0.000 N 
ATOM      8  C   UNL     1      50.300   8.004  13.241  0.00  0.00    +0.000 C 
ATOM      9  C   UNL     1      50.083   8.503  11.816  0.00  0.00    +0.000 C 
ATOM     10  C   UNL     1      49.330   9.831  11.790  0.00  0.00    +0.000 C 
ATOM     11  C   UNL     1      48.044   9.776  12.610  0.00  0.00    +0.000 C 
ATOM     12  C   UNL     1      48.284   9.251  14.024  0.00  0.00    +0.000 C 
BRANCH  10  13
ATOM     13  O   UNL     1      50.166  10.896  12.241  0.00  0.00    +0.000 OA
ATOM     14  H   UNL     1      50.743  11.179  11.512  0.00  0.00    +0.000 HD
ENDBRANCH  10  13
ENDBRANCH   5   7
BRANCH   1  16
ATOM     15  C   UNL     1      45.192   4.856  12.057  0.00  0.00    +0.000 C 
ATOM     16  C   UNL     1      45.925   4.272  13.023  0.00  0.00    +0.000 C 
BRANCH  15  18
ATOM     17  C   UNL     1      43.545   2.981  11.906  0.00  0.00    +0.000 C 
ATOM     18  C   UNL     1      44.191   4.156  11.134  0.00  0.00    +0.000 C 
ATOM     19  C   UNL     1      43.044   5.162  10.845  0.00  0.00    +0.000 C 
BRANCH  18  20
ATOM     20  C   UNL     1      44.860   3.661   9.833  0.00  0.00    +0.000 A 
ATOM     21  C   UNL     1      45.397   4.564   8.897  0.00  0.00    +0.000 A 
ATOM     22  C   UNL     1      46.069   4.115   7.754  0.00  0.00    +0.000 A 
ATOM     23  C   UNL     1      46.237   2.752   7.537  0.00  0.00    +0.000 A 
ATOM     24 CL   UNL     1      47.090   2.201   6.151  0.00  0.00    +0.000 Cl
ATOM     25  C   UNL     1      45.727   1.832   8.447  0.00  0.00    +0.000 A 
ATOM     26  C   UNL     1      45.046   2.283   9.576  0.00  0.00    +0.000 A 
ENDBRANCH  18  20
ENDBRANCH  15  18
ENDBRANCH   1  16
TORSDOF 5
ENDMDL
MODEL 3
REMARK VINA RESULT:    -7.100      5.008      8.120
REMARK INTER + INTRA:          -9.900
REMARK INTER:                  -8.902
REMARK INTRA:                  -0.998
REMARK UNBOUND:                -0.932
REMARK  Name = 
REMARK  7 active torsions:
REMARK  status: ('A' for Active; 'I' for Inactive)
REMARK    1  A    between atoms: C_1  and  C_2
REMARK    2  A    between atoms: C_2  and  C_3
REMARK    3  A    between atoms: C_2  and  C_4
REMARK    4  A    between atoms: C_2  and  C_19
REMARK    5  A    between atoms: C_5  and  C_6
REMARK    6  A    between atoms: C_10  and  N_11
REMARK    7  A    between atoms: C_14  and  O_15
REMARK                            x       y       z     vdW  Elec       q    Type
REMARK                         _______ _______ _______ _____ _____    ______ ____
ROOT
ATOM      1  C   UNL     1      45.104   5.232  12.164  0.00  0.00    +0.000 A 
ATOM      2  C   UNL     1      44.364   4.421  13.017  0.00  0.00    +0.000 A 
ATOM      3  N   UNL     1      43.782   3.261  12.649  0.00  0.00    +0.000 NA
ATOM      4  C   UNL     1      43.950   2.894  11.353  0.00  0.00    +0.000 A 
ATOM      5  C   UNL     1      44.666   3.607  10.388  0.00  0.00    +0.000 A 
ATOM      6  C   UNL     1      45.262   4.791  10.844  0.00  0.00    +0.000 A 
ENDROOT
BRANCH   5   7
ATOM      7  N   UNL     1      44.824   3.192   9.075  0.00  0.00    +0.000 N 
ATOM      8  C   UNL     1      45.153   4.138   8.011  0.00  0.00    +0.000 C 
ATOM      9  C   UNL     1      46.566   3.887   7.496  0.00  0.00    +0.000 C 
ATOM     10  C   UNL     1      46.782   2.422   7.124  0.00  0.00    +0.000 C 
ATOM     11  C   UNL     1      46.377   1.479   8.254  0.00  0.00    +0.000 C 
ATOM     12  C   UNL     1      44.967   1.765   8.768  0.00  0.00    +0.000 C 
BRANCH  10  13
ATOM     13  O   UNL     1      46.080   2.096   5.925  0.00  0.00    +0.000 OA
ATOM     14  H   UNL     1      45.128   2.048   6.117  0.00  0.00    +0.000 HD
ENDBRANCH  10  13
ENDBRANCH   5   7
BRANCH   1  16
ATOM     15  C   UNL     1      46.502   7.292  11.959  0.00  0.00    +0.000 C 
ATOM     16  C   UNL     1      45.736   6.450  12.678  0.00  0.00    +0.000 C 
BRANCH  15  18
ATOM     17  C   UNL     1      46.213   9.772  12.103  0.00  0.00    +0.000 C 
ATOM     18  C   UNL     1      47.142   8.587  12.465  0.00  0.00    +0.000 C 
ATOM     19  C   UNL     1      47.166   8.519  14.016  0.00  0.00    +0.000 C 
BRANCH  18  20
ATOM     20  C   UNL     1      48.556   8.796  11.878  0.00  0.00    +0.000 A 
ATOM     21  C   UNL     1      49.028  10.078  11.547  0.00  0.00    +0.000 A 
ATOM     22  C   UNL     1      50.334  10.278  11.085  0.00  0.00    +0.000 A 
ATOM     23  C   UNL     1      51.202   9.197  10.967  0.00  0.00    +0.000 A 
ATOM     24 CL   UNL     1      52.815   9.445  10.431  0.00  0.00    +0.000 Cl
ATOM     25  C   UNL     1      50.770   7.916  11.294  0.00  0.00    +0.000 A 
ATOM     26  C   UNL     1      49.464   7.721  11.741  0.00  0.00    +0.000 A 
ENDBRANCH  18  20
ENDBRANCH  15  18
ENDBRANCH   1  16
TORSDOF 5
ENDMDL
MODEL 4
REMARK VINA RESULT:    -6.796      4.571      8.638
REMARK INTER + INTRA:          -9.516
REMARK INTER:                  -8.567
REMARK INTRA:                  -0.948
REMARK UNBOUND:                -0.932
REMARK  Name = 
REMARK  7 active torsions:
REMARK  status: ('A' for Active; 'I' for Inactive)
REMARK    1  A    between atoms: C_1  and  C_2
REMARK    2  A    between atoms: C_2  and  C_3
REMARK    3  A    between atoms: C_2  and  C_4
REMARK    4  A    between atoms: C_2  and  C_19
REMARK    5  A    between atoms: C_5  and  C_6
REMARK    6  A    between atoms: C_10  and  N_11
REMARK    7  A    between atoms: C_14  and  O_15
REMARK                            x       y       z     vdW  Elec       q    Type
REMARK                         _______ _______ _______ _____ _____    ______ ____
ROOT
ATOM      1  C   UNL     1      45.104   5.066  12.115  0.00  0.00    +0.000 A 
ATOM      2  C   UNL     1      44.222   4.325  12.895  0.00  0.00    +0.000 A 
ATOM      3  N   UNL     1      43.544   3.243  12.458  0.00  0.00    +0.000 NA
ATOM      4  C   UNL     1      43.762   2.885  11.167  0.00  0.00    +0.000 A 
ATOM      5  C   UNL     1      44.616   3.534  10.272  0.00  0.00    +0.000 A 
ATOM      6  C   UNL     1      45.304   4.635  10.798  0.00  0.00    +0.000 A 
ENDROOT
BRANCH   5   7
ATOM      7  N   UNL     1      44.818   3.129   8.961  0.00  0.00    +0.000 N 
ATOM      8  C   UNL     1      45.167   4.085   7.914  0.00  0.00    +0.000 C 
ATOM      9  C   UNL     1      46.599   3.855   7.440  0.00  0.00    +0.000 C 
ATOM     10  C   UNL     1      46.843   2.394   7.066  0.00  0.00    +0.000 C 
ATOM     11  C   UNL     1      46.415   1.439   8.177  0.00  0.00    +0.000 C 
ATOM     12  C   UNL     1      44.987   1.706   8.650  0.00  0.00    +0.000 C 
BRANCH  10  13
ATOM     13  O   UNL     1      46.181   2.068   5.844  0.00  0.00    +0.000 OA
ATOM     14  H   UNL     1      46.075   1.104   5.787  0.00  0.00    +0.000 HD
ENDBRANCH  10  13
ENDBRANCH   5   7
BRANCH   1  16
ATOM     15  C   UNL     1      47.145   6.435  12.561  0.00  0.00    +0.000 C 
ATOM     16  C   UNL     1      45.828   6.196  12.704  0.00  0.00    +0.000 C 
BRANCH  15  18
ATOM     17  C   UNL     1      48.810   8.220  12.020  0.00  0.00    +0.000 C 
ATOM     18  C   UNL     1      47.915   7.627  13.135  0.00  0.00    +0.000 C 
ATOM     19  C   UNL     1      46.875   8.727  13.481  0.00  0.00    +0.000 C 
BRANCH  18  20
ATOM     20  C   UNL     1      48.758   7.227  14.365  0.00  0.00    +0.000 A 
ATOM     21  C   UNL     1      48.248   6.364  15.351  0.00  0.00    +0.000 A 
ATOM     22  C   UNL     1      49.036   5.941  16.429  0.00  0.00    +0.000 A 
ATOM     23  C   UNL     1      50.359   6.357  16.526  0.00  0.00    +0.000 A 
ATOM     24 CL   UNL     1      51.337   5.812  17.830  0.00  0.00    +0.000 Cl
ATOM     25  C   UNL     1      50.898   7.203  15.563  0.00  0.00    +0.000 A 
ATOM     26  C   UNL     1      50.106   7.632  14.500  0.00  0.00    +0.000 A 
ENDBRANCH  18  20
ENDBRANCH  15  18
ENDBRANCH   1  16
TORSDOF 5
ENDMDL
MODEL 5
REMARK VINA RESULT:    -6.737      1.926      2.518
REMARK INTER + INTRA:          -9.441
REMARK INTER:                  -8.481
REMARK INTRA:                  -0.961
REMARK UNBOUND:                -0.932
REMARK  Name = 
REMARK  7 active torsions:
REMARK  status: ('A' for Active; 'I' for Inactive)
REMARK    1  A    between atoms: C_1  and  C_2
REMARK    2  A    between atoms: C_2  and  C_3
REMARK    3  A    between atoms: C_2  and  C_4
REMARK    4  A    between atoms: C_2  and  C_19
REMARK    5  A    between atoms: C_5  and  C_6
REMARK    6  A    between atoms: C_10  and  N_11
REMARK    7  A    between atoms: C_14  and  O_15
REMARK                            x       y       z     vdW  Elec       q    Type
REMARK                         _______ _______ _______ _____ _____    ______ ____
ROOT
ATOM      1  C   UNL     1      47.333   6.593  12.949  0.00  0.00    +0.000 A 
ATOM      2  C   UNL     1      47.615   7.670  12.116  0.00  0.00    +0.000 A 
ATOM      3  N   UNL     1      48.423   8.698  12.449  0.00  0.00    +0.000 NA
ATOM      4  C   UNL     1      48.979   8.643  13.686  0.00  0.00    +0.000 A 
ATOM      5  C   UNL     1      48.786   7.626  14.625  0.00  0.00    +0.000 A 
ATOM      6  C   UNL     1      47.953   6.581  14.205  0.00  0.00    +0.000 A 
ENDROOT
BRANCH   5   7
ATOM      7  N   UNL     1      49.381   7.602  15.876  0.00  0.00    +0.000 N 
ATOM      8  C   UNL     1      48.867   8.408  16.981  0.00  0.00    +0.000 C 
ATOM      9  C   UNL     1      48.260   7.511  18.054  0.00  0.00    +0.000 C 
ATOM     10  C   UNL     1      49.223   6.404  18.478  0.00  0.00    +0.000 C 
ATOM     11  C   UNL     1      49.766   5.628  17.281  0.00  0.00    +0.000 C 
ATOM     12  C   UNL     1      50.346   6.550  16.210  0.00  0.00    +0.000 C 
BRANCH  10  13
ATOM     13  O   UNL     1      50.295   6.937  19.256  0.00  0.00    +0.000 OA
ATOM     14  H   UNL     1      50.240   7.907  19.251  0.00  0.00    +0.000 HD
ENDBRANCH  10  13
ENDBRANCH   5   7
BRANCH   1  16
ATOM     15  C   UNL     1      45.282   5.658  11.874  0.00  0.00    +0.000 C 
ATOM     16  C   UNL     1      46.479   5.503  12.470  0.00  0.00    +0.000 C 
BRANCH  15  18
ATOM     17  C   UNL     1      44.244   3.450  12.425  0.00  0.00    +0.000 C 
ATOM     18  C   UNL     1      44.390   4.537  11.333  0.00  0.00    +0.000 C 
ATOM     19  C   UNL     1      42.971   5.132  11.126  0.00  0.00    +0.000 C 
BRANCH  18  20
ATOM     20  C   UNL     1      44.955   3.935  10.027  0.00  0.00    +0.000 A 
ATOM     21  C   UNL     1      45.553   4.747   9.047  0.00  0.00    +0.000 A 
ATOM     22  C   UNL     1      46.131   4.195   7.897  0.00  0.00    +0.000 A 
ATOM     23  C   UNL     1      46.142   2.816   7.718  0.00  0.00    +0.000 A 
ATOM     24 CL   UNL     1      46.880   2.137   6.323  0.00  0.00    +0.000 Cl
ATOM     25  C   UNL     1      45.567   1.984   8.672  0.00  0.00    +0.000 A 
ATOM     26  C   UNL     1      44.980   2.538   9.808  0.00  0.00    +0.000 A 
ENDBRANCH  18  20
ENDBRANCH  15  18
ENDBRANCH   1  16
TORSDOF 5
ENDMDL
MODEL 6
REMARK VINA RESULT:    -6.700      3.893      8.423
REMARK INTER + INTRA:          -9.395
REMARK INTER:                  -8.429
REMARK INTRA:                  -0.966
REMARK UNBOUND:                -0.932
REMARK  Name = 
REMARK  7 active torsions:
REMARK  status: ('A' for Active; 'I' for Inactive)
REMARK    1  A    between atoms: C_1  and  C_2
REMARK    2  A    between atoms: C_2  and  C_3
REMARK    3  A    between atoms: C_2  and  C_4
REMARK    4  A    between atoms: C_2  and  C_19
REMARK    5  A    between atoms: C_5  and  C_6
REMARK    6  A    between atoms: C_10  and  N_11
REMARK    7  A    between atoms: C_14  and  O_15
REMARK                            x       y       z     vdW  Elec       q    Type
REMARK                         _______ _______ _______ _____ _____    ______ ____
ROOT
ATOM      1  C   UNL     1      48.132   6.342  14.442  0.00  0.00    +0.000 A 
ATOM      2  C   UNL     1      48.328   7.345  13.500  0.00  0.00    +0.000 A 
ATOM      3  N   UNL     1      47.581   7.499  12.386  0.00  0.00    +0.000 NA
ATOM      4  C   UNL     1      46.584   6.596  12.207  0.00  0.00    +0.000 A 
ATOM      5  C   UNL     1      46.273   5.540  13.068  0.00  0.00    +0.000 A 
ATOM      6  C   UNL     1      47.074   5.452  14.215  0.00  0.00    +0.000 A 
ENDROOT
BRANCH   5   7
ATOM      7  N   UNL     1      45.238   4.644  12.855  0.00  0.00    +0.000 N 
ATOM      8  C   UNL     1      43.841   5.073  12.881  0.00  0.00    +0.000 C 
ATOM      9  C   UNL     1      43.234   4.987  11.484  0.00  0.00    +0.000 C 
ATOM     10  C   UNL     1      43.459   3.615  10.852  0.00  0.00    +0.000 C 
ATOM     11  C   UNL     1      44.927   3.199  10.897  0.00  0.00    +0.000 C 
ATOM     12  C   UNL     1      45.518   3.316  12.301  0.00  0.00    +0.000 C 
BRANCH  10  13
ATOM     13  O   UNL     1      42.640   2.629  11.479  0.00  0.00    +0.000 OA
ATOM     14  H   UNL     1      41.942   3.073  11.989  0.00  0.00    +0.000 HD
ENDBRANCH  10  13
ENDBRANCH   5   7
BRANCH   1  16
ATOM     15  C   UNL     1      48.784   5.466  16.688  0.00  0.00    +0.000 C 
ATOM     16  C   UNL     1      48.970   6.294  15.644  0.00  0.00    +0.000 C 
BRANCH  15  18
ATOM     17  C   UNL     1      50.533   6.652  18.026  0.00  0.00    +0.000 C 
ATOM     18  C   UNL     1      49.666   5.373  17.936  0.00  0.00    +0.000 C 
ATOM     19  C   UNL     1      48.727   5.402  19.172  0.00  0.00    +0.000 C 
BRANCH  18  20
ATOM     20  C   UNL     1      50.552   4.107  17.918  0.00  0.00    +0.000 A 
ATOM     21  C   UNL     1      50.085   2.896  17.375  0.00  0.00    +0.000 A 
ATOM     22  C   UNL     1      50.911   1.769  17.291  0.00  0.00    +0.000 A 
ATOM     23  C   UNL     1      52.229   1.839  17.730  0.00  0.00    +0.000 A 
ATOM     24 CL   UNL     1      53.253   0.465  17.597  0.00  0.00    +0.000 Cl
ATOM     25  C   UNL     1      52.725   3.023  18.264  0.00  0.00    +0.000 A 
ATOM     26  C   UNL     1      51.895   4.139  18.359  0.00  0.00    +0.000 A 
ENDBRANCH  18  20
ENDBRANCH  15  18
ENDBRANCH   1  16
TORSDOF 5
ENDMDL
MODEL 7
REMARK VINA RESULT:    -6.588      2.059      3.022
REMARK INTER + INTRA:          -9.253
REMARK INTER:                  -8.248
REMARK INTRA:                  -1.005
REMARK UNBOUND:                -0.932
REMARK  Name = 
REMARK  7 active torsions:
REMARK  status: ('A' for Active; 'I' for Inactive)
REMARK    1  A    between atoms: C_1  and  C_2
REMARK    2  A    between atoms: C_2  and  C_3
REMARK    3  A    between atoms: C_2  and  C_4
REMARK    4  A    between atoms: C_2  and  C_19
REMARK    5  A    between atoms: C_5  and  C_6
REMARK    6  A    between atoms: C_10  and  N_11
REMARK    7  A    between atoms: C_14  and  O_15
REMARK                            x       y       z     vdW  Elec       q    Type
REMARK                         _______ _______ _______ _____ _____    ______ ____
ROOT
ATOM      1  C   UNL     1      47.080   4.596  14.287  0.00  0.00    +0.000 A 
ATOM      2  C   UNL     1      47.259   3.275  14.684  0.00  0.00    +0.000 A 
ATOM      3  N   UNL     1      47.878   2.900  15.823  0.00  0.00    +0.000 NA
ATOM      4  C   UNL     1      48.345   3.905  16.606  0.00  0.00    +0.000 A 
ATOM      5  C   UNL     1      48.237   5.272  16.334  0.00  0.00    +0.000 A 
ATOM      6  C   UNL     1      47.564   5.590  15.147  0.00  0.00    +0.000 A 
ENDROOT
BRANCH   5   7
ATOM      7  N   UNL     1      48.718   6.270  17.167  0.00  0.00    +0.000 N 
ATOM      8  C   UNL     1      49.207   7.538  16.633  0.00  0.00    +0.000 C 
ATOM      9  C   UNL     1      48.267   8.675  17.020  0.00  0.00    +0.000 C 
ATOM     10  C   UNL     1      47.986   8.691  18.521  0.00  0.00    +0.000 C 
ATOM     11  C   UNL     1      47.526   7.328  19.032  0.00  0.00    +0.000 C 
ATOM     12  C   UNL     1      48.470   6.204  18.611  0.00  0.00    +0.000 C 
BRANCH  10  13
ATOM     13  O   UNL     1      49.133   9.135  19.246  0.00  0.00    +0.000 OA
ATOM     14  H   UNL     1      49.894   8.580  19.007  0.00  0.00    +0.000 HD
ENDBRANCH  10  13
ENDBRANCH   5   7
BRANCH   1  16
ATOM     15  C   UNL     1      45.027   5.138  12.972  0.00  0.00    +0.000 C 
ATOM     16  C   UNL     1      46.349   4.895  13.053  0.00  0.00    +0.000 C 
BRANCH  15  18
ATOM     17  C   UNL     1      42.755   5.153  11.929  0.00  0.00    +0.000 C 
ATOM     18  C   UNL     1      44.249   5.489  11.702  0.00  0.00    +0.000 C 
ATOM     19  C   UNL     1      44.321   7.030  11.524  0.00  0.00    +0.000 C 
BRANCH  18  20
ATOM     20  C   UNL     1      44.801   4.743  10.467  0.00  0.00    +0.000 A 
ATOM     21  C   UNL     1      44.405   3.426  10.172  0.00  0.00    +0.000 A 
ATOM     22  C   UNL     1      44.846   2.775   9.013  0.00  0.00    +0.000 A 
ATOM     23  C   UNL     1      45.676   3.439   8.116  0.00  0.00    +0.000 A 
ATOM     24 CL   UNL     1      46.192   2.652   6.679  0.00  0.00    +0.000 Cl
ATOM     25  C   UNL     1      46.079   4.745   8.373  0.00  0.00    +0.000 A 
ATOM     26  C   UNL     1      45.649   5.384   9.535  0.00  0.00    +0.000 A 
ENDBRANCH  18  20
ENDBRANCH  15  18
ENDBRANCH   1  16
TORSDOF 5
ENDMDL
MODEL 8
REMARK VINA RESULT:    -6.137      3.546      5.104
REMARK INTER + INTRA:          -8.684
REMARK INTER:                  -8.034
REMARK INTRA:                  -0.650
REMARK UNBOUND:                -0.932
REMARK  Name = 
REMARK  7 active torsions:
REMARK  status: ('A' for Active; 'I' for Inactive)
REMARK    1  A    between atoms: C_1  and  C_2
REMARK    2  A    between atoms: C_2  and  C_3
REMARK    3  A    between atoms: C_2  and  C_4
REMARK    4  A    between atoms: C_2  and  C_19
REMARK    5  A    between atoms: C_5  and  C_6
REMARK    6  A    between atoms: C_10  and  N_11
REMARK    7  A    between atoms: C_14  and  O_15
REMARK                            x       y       z     vdW  Elec       q    Type
REMARK                         _______ _______ _______ _____ _____    ______ ____
ROOT
ATOM      1  C   UNL     1      47.750   6.263  12.990  0.00  0.00    +0.000 A 
ATOM      2  C   UNL     1      47.762   5.892  14.331  0.00  0.00    +0.000 A 
ATOM      3  N   UNL     1      48.649   6.351  15.239  0.00  0.00    +0.000 NA
ATOM      4  C   UNL     1      49.574   7.230  14.777  0.00  0.00    +0.000 A 
ATOM      5  C   UNL     1      49.680   7.690  13.462  0.00  0.00    +0.000 A 
ATOM      6  C   UNL     1      48.715   7.190  12.577  0.00  0.00    +0.000 A 
ENDROOT
BRANCH   5   7
ATOM      7  N   UNL     1      50.635   8.598  13.032  0.00  0.00    +0.000 N 
ATOM      8  C   UNL     1      50.507   9.291  11.752  0.00  0.00    +0.000 C 
ATOM      9  C   UNL     1      50.247  10.776  11.977  0.00  0.00    +0.000 C 
ATOM     10  C   UNL     1      51.271  11.394  12.927  0.00  0.00    +0.000 C 
ATOM     11  C   UNL     1      51.398  10.601  14.225  0.00  0.00    +0.000 C 
ATOM     12  C   UNL     1      51.634   9.114  13.973  0.00  0.00    +0.000 C 
BRANCH  10  13
ATOM     13  O   UNL     1      52.542  11.516  12.289  0.00  0.00    +0.000 OA
ATOM     14  H   UNL     1      53.238  11.250  12.914  0.00  0.00    +0.000 HD
ENDBRANCH  10  13
ENDBRANCH   5   7
BRANCH   1  16
ATOM     15  C   UNL     1      45.562   5.165  12.495  0.00  0.00    +0.000 C 
ATOM     16  C   UNL     1      46.711   5.743  12.097  0.00  0.00    +0.000 C 
BRANCH  15  18
ATOM     17  C   UNL     1      43.660   3.549  12.337  0.00  0.00    +0.000 C 
ATOM     18  C   UNL     1      44.447   4.648  11.583  0.00  0.00    +0.000 C 
ATOM     19  C   UNL     1      43.449   5.816  11.362  0.00  0.00    +0.000 C 
BRANCH  18  20
ATOM     20  C   UNL     1      45.003   4.109  10.246  0.00  0.00    +0.000 A 
ATOM     21  C   UNL     1      44.875   2.753   9.895  0.00  0.00    +0.000 A 
ATOM     22  C   UNL     1      45.312   2.278   8.653  0.00  0.00    +0.000 A 
ATOM     23  C   UNL     1      45.868   3.157   7.729  0.00  0.00    +0.000 A 
ATOM     24 CL   UNL     1      46.375   2.579   6.192  0.00  0.00    +0.000 Cl
ATOM     25  C   UNL     1      46.002   4.505   8.041  0.00  0.00    +0.000 A 
ATOM     26  C   UNL     1      45.577   4.971   9.284  0.00  0.00    +0.000 A 
ENDBRANCH  18  20
ENDBRANCH  15  18
ENDBRANCH   1  16
TORSDOF 5
ENDMDL
MODEL 9
REMARK VINA RESULT:    -5.785      2.771      4.485
REMARK INTER + INTRA:          -8.238
REMARK INTER:                  -7.189
REMARK INTRA:                  -1.049
REMARK UNBOUND:                -0.932
REMARK  Name = 
REMARK  7 active torsions:
REMARK  status: ('A' for Active; 'I' for Inactive)
REMARK    1  A    between atoms: C_1  and  C_2
REMARK    2  A    between atoms: C_2  and  C_3
REMARK    3  A    between atoms: C_2  and  C_4
REMARK    4  A    between atoms: C_2  and  C_19
REMARK    5  A    between atoms: C_5  and  C_6
REMARK    6  A    between atoms: C_10  and  N_11
REMARK    7  A    between atoms: C_14  and  O_15
REMARK                            x       y       z     vdW  Elec       q    Type
REMARK                         _______ _______ _______ _____ _____    ______ ____
ROOT
ATOM      1  C   UNL     1      50.489   7.355  15.133  0.00  0.00    +0.000 A 
ATOM      2  C   UNL     1      51.792   7.838  15.181  0.00  0.00    +0.000 A 
ATOM      3  N   UNL     1      52.651   7.610  16.197  0.00  0.00    +0.000 NA
ATOM      4  C   UNL     1      52.176   6.857  17.221  0.00  0.00    +0.000 A 
ATOM      5  C   UNL     1      50.894   6.308  17.306  0.00  0.00    +0.000 A 
ATOM      6  C   UNL     1      50.063   6.566  16.208  0.00  0.00    +0.000 A 
ENDROOT
BRANCH   5   7
ATOM      7  N   UNL     1      50.451   5.534  18.367  0.00  0.00    +0.000 N 
ATOM      8  C   UNL     1      49.836   6.138  19.546  0.00  0.00    +0.000 C 
ATOM      9  C   UNL     1      48.354   5.781  19.613  0.00  0.00    +0.000 C 
ATOM     10  C   UNL     1      48.128   4.276  19.487  0.00  0.00    +0.000 C 
ATOM     11  C   UNL     1      48.833   3.692  18.265  0.00  0.00    +0.000 C 
ATOM     12  C   UNL     1      50.309   4.083  18.209  0.00  0.00    +0.000 C 
BRANCH  10  13
ATOM     13  O   UNL     1      48.542   3.601  20.674  0.00  0.00    +0.000 OA
ATOM     14  H   UNL     1      49.392   3.968  20.969  0.00  0.00    +0.000 HD
ENDBRANCH  10  13
ENDBRANCH   5   7
BRANCH   1  16
ATOM     15  C   UNL     1      48.421   7.121  13.752  0.00  0.00    +0.000 C 
ATOM     16  C   UNL     1      49.654   7.621  13.958  0.00  0.00    +0.000 C 
BRANCH  15  18
ATOM     17  C   UNL     1      46.722   8.711  12.836  0.00  0.00    +0.000 C 
ATOM     18  C   UNL     1      47.517   7.413  12.552  0.00  0.00    +0.000 C 
ATOM     19  C   UNL     1      48.437   7.729  11.343  0.00  0.00    +0.000 C 
BRANCH  18  20
ATOM     20  C   UNL     1      46.562   6.236  12.254  0.00  0.00    +0.000 A 
ATOM     21  C   UNL     1      46.470   5.132  13.120  0.00  0.00    +0.000 A 
ATOM     22  C   UNL     1      45.553   4.099  12.891  0.00  0.00    +0.000 A 
ATOM     23  C   UNL     1      44.693   4.164  11.799  0.00  0.00    +0.000 A 
ATOM     24 CL   UNL     1      43.545   2.913  11.535  0.00  0.00    +0.000 Cl
ATOM     25  C   UNL     1      44.752   5.246  10.927  0.00  0.00    +0.000 A 
ATOM     26  C   UNL     1      45.676   6.264  11.152  0.00  0.00    +0.000 A 
ENDBRANCH  18  20
ENDBRANCH  15  18
ENDBRANCH   1  16
TORSDOF 5
ENDMDL
