MODEL 1
REMARK VINA RESULT:    -8.743      0.000      0.000
REMARK INTER + INTRA:         -12.746
REMARK INTER:                 -11.810
REMARK INTRA:                  -0.937
REMARK UNBOUND:                -0.937
REMARK  Name = 
REMARK  7 active torsions:
REMARK  status: ('A' for Active; 'I' for Inactive)
REMARK    1  A    between atoms: C_1  and  O_2
REMARK    2  A    between atoms: O_2  and  C_3
REMARK    3  A    between atoms: C_5  and  C_6
REMARK    4  A    between atoms: C_6  and  N_7
REMARK    5  A    between atoms: N_7  and  C_8
REMARK    6  A    between atoms: C_11  and  C_12
REMARK    7  A    between atoms: C_21  and  C_22
REMARK                            x       y       z     vdW  Elec       q    Type
REMARK                         _______ _______ _______ _____ _____    ______ ____
ROOT
ATOM      1  C   UNL     1      43.771   5.133  11.388  0.00  0.00    +0.000 C 
ATOM      2  C   UNL     1      42.533   5.559  12.155  0.00  0.00    +0.000 C 
ATOM      3  C   UNL     1      43.025   4.161  12.308  0.00  0.00    +0.000 C 
ENDROOT
BRANCH   1   6
ATOM      4  C   UNL     1      47.152   5.393  13.252  0.00  0.00    +0.000 A 
ATOM      5  C   UNL     1      45.871   4.974  12.850  0.00  0.00    +0.000 A 
ATOM      6  C   UNL     1      45.119   5.665  11.876  0.00  0.00    +0.000 A 
ATOM      7  C   UNL     1      45.680   6.841  11.357  0.00  0.00    +0.000 A 
ATOM      8  C   UNL     1      46.958   7.264  11.729  0.00  0.00    +0.000 A 
ATOM      9  C   UNL     1      47.715   6.537  12.662  0.00  0.00    +0.000 A 
BRANCH   9  10
ATOM     10  C   UNL     1      49.110   7.028  12.907  0.00  0.00    +0.000 C 
ATOM     11  N   UNL     1      49.575   7.044  14.190  0.00  0.00    +0.000 N 
ATOM     12  O   UNL     1      49.839   7.385  11.989  0.00  0.00    +0.000 OA
ATOM     13  H   UNL     1      48.973   6.807  14.970  0.00  0.00    +0.000 HD
ATOM     14  H   UNL     1      50.514   7.374  14.362  0.00  0.00    +0.000 HD
ENDBRANCH   9  10
BRANCH   4  16
ATOM     15  C   UNL     1      47.170   4.407  15.430  0.00  0.00    +0.000 C 
ATOM     16  O   UNL     1      47.865   4.757  14.238  0.00  0.00    +0.000 OA
ENDBRANCH   4  16
ENDBRANCH   1   6
BRANCH   1  17
ATOM     17  N   UNL     1      43.738   4.726   9.979  0.00  0.00    +0.000 N 
ATOM     18  H   UNL     1      42.821   4.707   9.545  0.00  0.00    +0.000 HD
BRANCH  17  19
ATOM     19  C   UNL     1      44.726   4.044   9.249  0.00  0.00    +0.000 A 
ATOM     20  C   UNL     1      45.592   4.640   8.332  0.00  0.00    +0.000 A 
ATOM     21  C   UNL     1      46.482   3.863   7.573  0.00  0.00    +0.000 A 
ATOM     22  C   UNL     1      46.517   2.468   7.719  0.00  0.00    +0.000 A 
ATOM     23  C   UNL     1      45.654   1.862   8.631  0.00  0.00    +0.000 A 
ATOM     24  C   UNL     1      44.773   2.642   9.381  0.00  0.00    +0.000 A 
BRANCH  22  25
ATOM     25  C   UNL     1      47.423   1.670   6.845  0.00  0.00    +0.000 C 
ATOM     26  N   UNL     1      48.543   2.286   6.370  0.00  0.00    +0.000 N 
ATOM     27  O   UNL     1      47.169   0.509   6.552  0.00  0.00    +0.000 OA
ATOM     28  H   UNL     1      48.691   3.285   6.409  0.00  0.00    +0.000 HD
ATOM     29  H   UNL     1      49.120   1.751   5.728  0.00  0.00    +0.000 HD
ENDBRANCH  22  25
ENDBRANCH  17  19
ENDBRANCH   1  17
TORSDOF 6
ENDMDL
MODEL 2
REMARK VINA RESULT:    -8.492      1.108      2.282
REMARK INTER + INTRA:         -12.407
REMARK INTER:                 -11.237
REMARK INTRA:                  -1.169
REMARK UNBOUND:                -0.937
REMARK  Name = 
REMARK  7 active torsions:
REMARK  status: ('A' for Active; 'I' for Inactive)
REMARK    1  A    between atoms: C_1  and  O_2
REMARK    2  A    between atoms: O_2  and  C_3
REMARK    3  A    between atoms: C_5  and  C_6
REMARK    4  A    between atoms: C_6  and  N_7
REMARK    5  A    between atoms: N_7  and  C_8
REMARK    6  A    between atoms: C_11  and  C_12
REMARK    7  A    between atoms: C_21  and  C_22
REMARK                            x       y       z     vdW  Elec       q    Type
REMARK                         _______ _______ _______ _____ _____    ______ ____
ROOT
ATOM      1  C   UNL     1      43.873   4.986  11.403  0.00  0.00    +0.000 C 
ATOM      2  C   UNL     1      42.876   6.101  11.142  0.00  0.00    +0.000 C 
ATOM      3  C   UNL     1      42.645   5.187  12.298  0.00  0.00    +0.000 C 
ENDROOT
BRANCH   1   6
ATOM      4  C   UNL     1      47.055   7.030  12.223  0.00  0.00    +0.000 A 
ATOM      5  C   UNL     1      45.848   6.603  11.640  0.00  0.00    +0.000 A 
ATOM      6  C   UNL     1      45.233   5.380  11.981  0.00  0.00    +0.000 A 
ATOM      7  C   UNL     1      45.910   4.561  12.897  0.00  0.00    +0.000 A 
ATOM      8  C   UNL     1      47.099   4.975  13.501  0.00  0.00    +0.000 A 
ATOM      9  C   UNL     1      47.673   6.217  13.189  0.00  0.00    +0.000 A 
BRANCH   9  10
ATOM     10  C   UNL     1      48.892   6.599  13.973  0.00  0.00    +0.000 C 
ATOM     11  N   UNL     1      49.895   7.265  13.330  0.00  0.00    +0.000 N 
ATOM     12  O   UNL     1      48.993   6.352  15.169  0.00  0.00    +0.000 OA
ATOM     13  H   UNL     1      49.859   7.430  12.331  0.00  0.00    +0.000 HD
ATOM     14  H   UNL     1      50.719   7.524  13.852  0.00  0.00    +0.000 HD
ENDBRANCH   9  10
BRANCH   4  16
ATOM     15  C   UNL     1      47.070   9.420  12.222  0.00  0.00    +0.000 C 
ATOM     16  O   UNL     1      47.686   8.192  11.854  0.00  0.00    +0.000 OA
ENDBRANCH   4  16
ENDBRANCH   1   6
BRANCH   1  17
ATOM     17  N   UNL     1      43.852   3.709  10.682  0.00  0.00    +0.000 N 
ATOM     18  H   UNL     1      43.390   2.941  11.157  0.00  0.00    +0.000 HD
BRANCH  17  19
ATOM     19  C   UNL     1      44.657   3.309   9.602  0.00  0.00    +0.000 A 
ATOM     20  C   UNL     1      45.074   1.999   9.364  0.00  0.00    +0.000 A 
ATOM     21  C   UNL     1      45.961   1.707   8.316  0.00  0.00    +0.000 A 
ATOM     22  C   UNL     1      46.451   2.727   7.487  0.00  0.00    +0.000 A 
ATOM     23  C   UNL     1      46.042   4.040   7.718  0.00  0.00    +0.000 A 
ATOM     24  C   UNL     1      45.160   4.321   8.762  0.00  0.00    +0.000 A 
BRANCH  22  25
ATOM     25  C   UNL     1      47.446   2.389   6.431  0.00  0.00    +0.000 C 
ATOM     26  N   UNL     1      47.467   3.170   5.312  0.00  0.00    +0.000 N 
ATOM     27  O   UNL     1      48.209   1.440   6.552  0.00  0.00    +0.000 OA
ATOM     28  H   UNL     1      46.734   3.823   5.072  0.00  0.00    +0.000 HD
ATOM     29  H   UNL     1      48.108   2.893   4.574  0.00  0.00    +0.000 HD
ENDBRANCH  22  25
ENDBRANCH  17  19
ENDBRANCH   1  17
TORSDOF 6
ENDMDL
MODEL 3
REMARK VINA RESULT:    -6.306      1.883      7.012
REMARK INTER + INTRA:          -9.455
REMARK INTER:                  -9.566
REMARK INTRA:                   0.110
REMARK UNBOUND:                -0.937
REMARK  Name = 
REMARK  7 active torsions:
REMARK  status: ('A' for Active; 'I' for Inactive)
REMARK    1  A    between atoms: C_1  and  O_2
REMARK    2  A    between atoms: O_2  and  C_3
REMARK    3  A    between atoms: C_5  and  C_6
REMARK    4  A    between atoms: C_6  and  N_7
REMARK    5  A    between atoms: N_7  and  C_8
REMARK    6  A    between atoms: C_11  and  C_12
REMARK    7  A    between atoms: C_21  and  C_22
REMARK                            x       y       z     vdW  Elec       q    Type
REMARK                         _______ _______ _______ _____ _____    ______ ____
ROOT
ATOM      1  C   UNL     1      44.473   4.813  10.823  0.00  0.00    +0.000 C 
ATOM      2  C   UNL     1      44.085   3.874  11.950  0.00  0.00    +0.000 C 
ATOM      3  C   UNL     1      43.022   4.364  11.027  0.00  0.00    +0.000 C 
ENDROOT
BRANCH   1   6
ATOM      4  C   UNL     1      45.784   2.272   8.216  0.00  0.00    +0.000 A 
ATOM      5  C   UNL     1      45.169   2.835   9.348  0.00  0.00    +0.000 A 
ATOM      6  C   UNL     1      45.232   4.214   9.638  0.00  0.00    +0.000 A 
ATOM      7  C   UNL     1      45.995   5.011   8.772  0.00  0.00    +0.000 A 
ATOM      8  C   UNL     1      46.598   4.475   7.632  0.00  0.00    +0.000 A 
ATOM      9  C   UNL     1      46.484   3.109   7.330  0.00  0.00    +0.000 A 
BRANCH   9  10
ATOM     10  C   UNL     1      47.085   2.667   6.030  0.00  0.00    +0.000 C 
ATOM     11  N   UNL     1      48.437   2.498   5.965  0.00  0.00    +0.000 N 
ATOM     12  O   UNL     1      46.392   2.430   5.047  0.00  0.00    +0.000 OA
ATOM     13  H   UNL     1      49.035   2.741   6.746  0.00  0.00    +0.000 HD
ATOM     14  H   UNL     1      48.848   2.201   5.092  0.00  0.00    +0.000 HD
ENDBRANCH   9  10
BRANCH   4  16
ATOM     15  C   UNL     1      47.028   0.280   7.768  0.00  0.00    +0.000 C 
ATOM     16  O   UNL     1      45.773   0.923   7.959  0.00  0.00    +0.000 OA
ENDBRANCH   4  16
ENDBRANCH   1   6
BRANCH   1  17
ATOM     17  N   UNL     1      44.657   6.256  11.012  0.00  0.00    +0.000 N 
ATOM     18  H   UNL     1      44.230   6.852  10.310  0.00  0.00    +0.000 HD
BRANCH  17  19
ATOM     19  C   UNL     1      45.605   6.913  11.814  0.00  0.00    +0.000 A 
ATOM     20  C   UNL     1      46.837   6.378  12.190  0.00  0.00    +0.000 A 
ATOM     21  C   UNL     1      47.679   7.066  13.078  0.00  0.00    +0.000 A 
ATOM     22  C   UNL     1      47.297   8.308  13.609  0.00  0.00    +0.000 A 
ATOM     23  C   UNL     1      46.067   8.850  13.241  0.00  0.00    +0.000 A 
ATOM     24  C   UNL     1      45.237   8.159  12.359  0.00  0.00    +0.000 A 
BRANCH  22  25
ATOM     25  C   UNL     1      48.184   8.975  14.603  0.00  0.00    +0.000 C 
ATOM     26  N   UNL     1      47.659   9.248  15.832  0.00  0.00    +0.000 N 
ATOM     27  O   UNL     1      49.338   9.280  14.328  0.00  0.00    +0.000 OA
ATOM     28  H   UNL     1      46.671   9.209  16.039  0.00  0.00    +0.000 HD
ATOM     29  H   UNL     1      48.254   9.756  16.480  0.00  0.00    +0.000 HD
ENDBRANCH  22  25
ENDBRANCH  17  19
ENDBRANCH   1  17
TORSDOF 6
ENDMDL
MODEL 4
REMARK VINA RESULT:    -6.264      3.127      5.533
REMARK INTER + INTRA:          -9.398
REMARK INTER:                  -8.513
REMARK INTRA:                  -0.885
REMARK UNBOUND:                -0.937
REMARK  Name = 
REMARK  7 active torsions:
REMARK  status: ('A' for Active; 'I' for Inactive)
REMARK    1  A    between atoms: C_1  and  O_2
REMARK    2  A    between atoms: O_2  and  C_3
REMARK    3  A    between atoms: C_5  and  C_6
REMARK    4  A    between atoms: C_6  and  N_7
REMARK    5  A    between atoms: N_7  and  C_8
REMARK    6  A    between atoms: C_11  and  C_12
REMARK    7  A    between atoms: C_21  and  C_22
REMARK                            x       y       z     vdW  Elec       q    Type
REMARK                         _______ _______ _______ _____ _____    ______ ____
ROOT
ATOM      1  C   UNL     1      48.538   7.315  14.155  0.00  0.00    +0.000 C 
ATOM      2  C   UNL     1      49.527   7.640  13.051  0.00  0.00    +0.000 C 
ATOM      3  C   UNL     1      48.999   8.752  13.892  0.00  0.00    +0.000 C 
ENDROOT
BRANCH   1   6
ATOM      4  C   UNL     1      48.779   5.026  17.266  0.00  0.00    +0.000 A 
ATOM      5  C   UNL     1      48.280   5.744  16.165  0.00  0.00    +0.000 A 
ATOM      6  C   UNL     1      49.082   6.622  15.406  0.00  0.00    +0.000 A 
ATOM      7  C   UNL     1      50.405   6.804  15.833  0.00  0.00    +0.000 A 
ATOM      8  C   UNL     1      50.926   6.086  16.912  0.00  0.00    +0.000 A 
ATOM      9  C   UNL     1      50.129   5.178  17.626  0.00  0.00    +0.000 A 
BRANCH   9  10
ATOM     10  C   UNL     1      50.821   4.391  18.698  0.00  0.00    +0.000 C 
ATOM     11  N   UNL     1      50.312   4.432  19.964  0.00  0.00    +0.000 N 
ATOM     12  O   UNL     1      51.804   3.701  18.458  0.00  0.00    +0.000 OA
ATOM     13  H   UNL     1      49.535   5.039  20.198  0.00  0.00    +0.000 HD
ATOM     14  H   UNL     1      50.774   3.905  20.691  0.00  0.00    +0.000 HD
ENDBRANCH   9  10
BRANCH   4  16
ATOM     15  C   UNL     1      47.447   3.049  17.432  0.00  0.00    +0.000 C 
ATOM     16  O   UNL     1      47.990   4.214  18.042  0.00  0.00    +0.000 OA
ENDBRANCH   4  16
ENDBRANCH   1   6
BRANCH   1  17
ATOM     17  N   UNL     1      47.104   7.121  13.914  0.00  0.00    +0.000 N 
ATOM     18  H   UNL     1      46.488   7.380  14.677  0.00  0.00    +0.000 HD
BRANCH  17  19
ATOM     19  C   UNL     1      46.489   6.328  12.931  0.00  0.00    +0.000 A 
ATOM     20  C   UNL     1      46.398   6.663  11.580  0.00  0.00    +0.000 A 
ATOM     21  C   UNL     1      45.676   5.856  10.686  0.00  0.00    +0.000 A 
ATOM     22  C   UNL     1      45.025   4.696  11.134  0.00  0.00    +0.000 A 
ATOM     23  C   UNL     1      45.108   4.354  12.482  0.00  0.00    +0.000 A 
ATOM     24  C   UNL     1      45.828   5.162  13.364  0.00  0.00    +0.000 A 
BRANCH  22  25
ATOM     25  C   UNL     1      44.209   3.905  10.171  0.00  0.00    +0.000 C 
ATOM     26  N   UNL     1      44.075   4.397   8.905  0.00  0.00    +0.000 N 
ATOM     27  O   UNL     1      43.667   2.858  10.502  0.00  0.00    +0.000 OA
ATOM     28  H   UNL     1      44.322   5.340   8.643  0.00  0.00    +0.000 HD
ATOM     29  H   UNL     1      43.468   3.879   8.277  0.00  0.00    +0.000 HD
ENDBRANCH  22  25
ENDBRANCH  17  19
ENDBRANCH   1  17
TORSDOF 6
ENDMDL
MODEL 5
REMARK VINA RESULT:    -5.847      3.193      5.066
REMARK INTER + INTRA:          -8.834
REMARK INTER:                  -7.813
REMARK INTRA:                  -1.022
REMARK UNBOUND:                -0.937
REMARK  Name = 
REMARK  7 active torsions:
REMARK  status: ('A' for Active; 'I' for Inactive)
REMARK    1  A    between atoms: C_1  and  O_2
REMARK    2  A    between atoms: O_2  and  C_3
REMARK    3  A    between atoms: C_5  and  C_6
REMARK    4  A    between atoms: C_6  and  N_7
REMARK    5  A    between atoms: N_7  and  C_8
REMARK    6  A    between atoms: C_11  and  C_12
REMARK    7  A    between atoms: C_21  and  C_22
REMARK                            x       y       z     vdW  Elec       q    Type
REMARK                         _______ _______ _______ _____ _____    ______ ____
ROOT
ATOM      1  C   UNL     1      47.699   7.994  12.884  0.00  0.00    +0.000 C 
ATOM      2  C   UNL     1      48.739   7.782  11.799  0.00  0.00    +0.000 C 
ATOM      3  C   UNL     1      48.259   9.167  12.073  0.00  0.00    +0.000 C 
ENDROOT
BRANCH   1   6
ATOM      4  C   UNL     1      49.157   6.508  16.146  0.00  0.00    +0.000 A 
ATOM      5  C   UNL     1      48.645   6.637  14.842  0.00  0.00    +0.000 A 
ATOM      6  C   UNL     1      48.160   7.861  14.337  0.00  0.00    +0.000 A 
ATOM      7  C   UNL     1      48.150   8.954  15.216  0.00  0.00    +0.000 A 
ATOM      8  C   UNL     1      48.672   8.852  16.507  0.00  0.00    +0.000 A 
ATOM      9  C   UNL     1      49.197   7.640  16.980  0.00  0.00    +0.000 A 
BRANCH   9  10
ATOM     10  C   UNL     1      49.821   7.675  18.342  0.00  0.00    +0.000 C 
ATOM     11  N   UNL     1      49.204   7.001  19.356  0.00  0.00    +0.000 N 
ATOM     12  O   UNL     1      50.873   8.266  18.555  0.00  0.00    +0.000 OA
ATOM     13  H   UNL     1      48.306   6.552  19.217  0.00  0.00    +0.000 HD
ATOM     14  H   UNL     1      49.619   7.021  20.276  0.00  0.00    +0.000 HD
ENDBRANCH   9  10
BRANCH   4  16
ATOM     15  C   UNL     1      48.582   4.346  16.985  0.00  0.00    +0.000 C 
ATOM     16  O   UNL     1      49.579   5.309  16.663  0.00  0.00    +0.000 OA
ENDBRANCH   4  16
ENDBRANCH   1   6
BRANCH   1  17
ATOM     17  N   UNL     1      46.263   7.784  12.668  0.00  0.00    +0.000 N 
ATOM     18  H   UNL     1      45.650   8.503  13.038  0.00  0.00    +0.000 HD
BRANCH  17  19
ATOM     19  C   UNL     1      45.601   6.591  12.331  0.00  0.00    +0.000 A 
ATOM     20  C   UNL     1      45.279   5.577  13.234  0.00  0.00    +0.000 A 
ATOM     21  C   UNL     1      44.706   4.375  12.791  0.00  0.00    +0.000 A 
ATOM     22  C   UNL     1      44.447   4.165  11.428  0.00  0.00    +0.000 A 
ATOM     23  C   UNL     1      44.766   5.171  10.517  0.00  0.00    +0.000 A 
ATOM     24  C   UNL     1      45.336   6.363  10.967  0.00  0.00    +0.000 A 
BRANCH  22  25
ATOM     25  C   UNL     1      43.905   2.850  10.986  0.00  0.00    +0.000 C 
ATOM     26  N   UNL     1      44.514   2.240   9.929  0.00  0.00    +0.000 N 
ATOM     27  O   UNL     1      42.940   2.337  11.540  0.00  0.00    +0.000 OA
ATOM     28  H   UNL     1      45.166   2.706   9.315  0.00  0.00    +0.000 HD
ATOM     29  H   UNL     1      44.098   1.374   9.600  0.00  0.00    +0.000 HD
ENDBRANCH  22  25
ENDBRANCH  17  19
ENDBRANCH   1  17
TORSDOF 6
ENDMDL
MODEL 6
REMARK VINA RESULT:    -5.758      3.826      8.329
REMARK INTER + INTRA:          -8.715
REMARK INTER:                  -7.675
REMARK INTRA:                  -1.039
REMARK UNBOUND:                -0.937
REMARK  Name = 
REMARK  7 active torsions:
REMARK  status: ('A' for Active; 'I' for Inactive)
REMARK    1  A    between atoms: C_1  and  O_2
REMARK    2  A    between atoms: O_2  and  C_3
REMARK    3  A    between atoms: C_5  and  C_6
REMARK    4  A    between atoms: C_6  and  N_7
REMARK    5  A    between atoms: N_7  and  C_8
REMARK    6  A    between atoms: C_11  and  C_12
REMARK    7  A    between atoms: C_21  and  C_22
REMARK                            x       y       z     vdW  Elec       q    Type
REMARK                         _______ _______ _______ _____ _____    ______ ____
ROOT
ATOM      1  C   UNL     1      48.895   7.674  12.655  0.00  0.00    +0.000 C 
ATOM      2  C   UNL     1      48.779   8.887  11.751  0.00  0.00    +0.000 C 
ATOM      3  C   UNL     1      49.728   7.800  11.375  0.00  0.00    +0.000 C 
ENDROOT
BRANCH   1   6
ATOM      4  C   UNL     1      46.599   4.712  13.619  0.00  0.00    +0.000 A 
ATOM      5  C   UNL     1      47.692   5.594  13.549  0.00  0.00    +0.000 A 
ATOM      6  C   UNL     1      47.737   6.674  12.643  0.00  0.00    +0.000 A 
ATOM      7  C   UNL     1      46.659   6.805  11.756  0.00  0.00    +0.000 A 
ATOM      8  C   UNL     1      45.555   5.952  11.821  0.00  0.00    +0.000 A 
ATOM      9  C   UNL     1      45.503   4.912  12.763  0.00  0.00    +0.000 A 
BRANCH   9  10
ATOM     10  C   UNL     1      44.227   4.125  12.809  0.00  0.00    +0.000 C 
ATOM     11  N   UNL     1      44.282   2.786  12.556  0.00  0.00    +0.000 N 
ATOM     12  O   UNL     1      43.156   4.650  13.092  0.00  0.00    +0.000 OA
ATOM     13  H   UNL     1      45.145   2.341  12.265  0.00  0.00    +0.000 HD
ATOM     14  H   UNL     1      43.427   2.250  12.585  0.00  0.00    +0.000 HD
ENDBRANCH   9  10
BRANCH   4  16
ATOM     15  C   UNL     1      47.302   3.722  15.678  0.00  0.00    +0.000 C 
ATOM     16  O   UNL     1      46.574   3.627  14.460  0.00  0.00    +0.000 OA
ENDBRANCH   4  16
ENDBRANCH   1   6
BRANCH   1  17
ATOM     17  N   UNL     1      49.715   7.658  13.871  0.00  0.00    +0.000 N 
ATOM     18  H   UNL     1      50.602   7.170  13.801  0.00  0.00    +0.000 HD
BRANCH  17  19
ATOM     19  C   UNL     1      49.314   7.918  15.192  0.00  0.00    +0.000 A 
ATOM     20  C   UNL     1      49.511   7.054  16.269  0.00  0.00    +0.000 A 
ATOM     21  C   UNL     1      48.986   7.353  17.537  0.00  0.00    +0.000 A 
ATOM     22  C   UNL     1      48.249   8.528  17.747  0.00  0.00    +0.000 A 
ATOM     23  C   UNL     1      48.045   9.398  16.677  0.00  0.00    +0.000 A 
ATOM     24  C   UNL     1      48.570   9.093  15.421  0.00  0.00    +0.000 A 
BRANCH  22  25
ATOM     25  C   UNL     1      47.648   8.777  19.088  0.00  0.00    +0.000 C 
ATOM     26  N   UNL     1      47.121  10.013  19.322  0.00  0.00    +0.000 N 
ATOM     27  O   UNL     1      47.637   7.911  19.954  0.00  0.00    +0.000 OA
ATOM     28  H   UNL     1      47.288  10.813  18.729  0.00  0.00    +0.000 HD
ATOM     29  H   UNL     1      46.769  10.189  20.258  0.00  0.00    +0.000 HD
ENDBRANCH  22  25
ENDBRANCH  17  19
ENDBRANCH   1  17
TORSDOF 6
ENDMDL
