MODEL 1
REMARK VINA RESULT:    -7.778      0.000      0.000
REMARK INTER + INTRA:         -11.411
REMARK INTER:                 -10.506
REMARK INTRA:                  -0.905
REMARK UNBOUND:                -0.905
REMARK  Name = 
REMARK  7 active torsions:
REMARK  status: ('A' for Active; 'I' for Inactive)
REMARK    1  A    between atoms: C_1  and  C_2
REMARK    2  A    between atoms: C_2  and  C_3
REMARK    3  A    between atoms: C_2  and  C_14
REMARK    4  A    between atoms: C_3  and  O_4
REMARK    5  A    between atoms: O_4  and  C_5
REMARK    6  A    between atoms: C_8  and  C_9
REMARK    7  A    between atoms: C_18  and  C_19
REMARK                            x       y       z     vdW  Elec       q    Type
REMARK                         _______ _______ _______ _____ _____    ______ ____
ROOT
ATOM      1  O   UNL     1      43.410   3.251  10.163  0.00  0.00    +0.000 OA
ENDROOT
BRANCH   1   2
ATOM      2  C   UNL     1      44.447   3.009   9.286  0.00  0.00    +0.000 A 
ATOM      3  C   UNL     1      44.897   4.069   8.521  0.00  0.00    +0.000 A 
ATOM      4  C   UNL     1      45.947   3.840   7.636  0.00  0.00    +0.000 A 
ATOM      5  C   UNL     1      46.482   2.564   7.577  0.00  0.00    +0.000 A 
ATOM      6  N   UNL     1      46.021   1.543   8.343  0.00  0.00    +0.000 NA
ATOM      7  N   UNL     1      44.991   1.773   9.203  0.00  0.00    +0.000 NA
BRANCH   5   8
ATOM      8  C   UNL     1      47.609   2.237   6.660  0.00  0.00    +0.000 C 
ATOM      9  N   UNL     1      47.762   3.065   5.579  0.00  0.00    +0.000 N 
ATOM     10  O   UNL     1      48.355   1.287   6.857  0.00  0.00    +0.000 OA
ATOM     11  H   UNL     1      47.132   3.844   5.424  0.00  0.00    +0.000 HD
ATOM     12  H   UNL     1      48.506   2.885   4.921  0.00  0.00    +0.000 HD
ENDBRANCH   5   8
ENDBRANCH   1   2
BRANCH   1  13
ATOM     13  C   UNL     1      43.836   3.208  11.526  0.00  0.00    +0.000 C 
BRANCH  13  15
ATOM     14  C   UNL     1      42.663   5.443  12.004  0.00  0.00    +0.000 C 
ATOM     15  C   UNL     1      43.905   4.613  12.048  0.00  0.00    +0.000 C 
BRANCH  15  16
ATOM     16  C   UNL     1      45.210   5.225  12.341  0.00  0.00    +0.000 A 
ATOM     17  C   UNL     1      45.800   6.135  11.457  0.00  0.00    +0.000 A 
ATOM     18  C   UNL     1      47.023   6.740  11.766  0.00  0.00    +0.000 A 
ATOM     19  C   UNL     1      47.674   6.435  12.961  0.00  0.00    +0.000 A 
ATOM     20  C   UNL     1      47.102   5.521  13.848  0.00  0.00    +0.000 A 
ATOM     21  C   UNL     1      45.878   4.921  13.536  0.00  0.00    +0.000 A 
BRANCH  20  22
ATOM     22  C   UNL     1      47.759   5.197  15.079  0.00  0.00    +0.000 C 
ATOM     23  N   UNL     1      48.302   4.942  16.073  0.00  0.00    +0.000 NA
ENDBRANCH  20  22
ENDBRANCH  15  16
ENDBRANCH  13  15
ENDBRANCH   1  13
TORSDOF 6
ENDMDL
MODEL 2
REMARK VINA RESULT:    -7.426      2.027      2.510
REMARK INTER + INTRA:         -10.935
REMARK INTER:                 -10.255
REMARK INTRA:                  -0.680
REMARK UNBOUND:                -0.905
REMARK  Name = 
REMARK  7 active torsions:
REMARK  status: ('A' for Active; 'I' for Inactive)
REMARK    1  A    between atoms: C_1  and  C_2
REMARK    2  A    between atoms: C_2  and  C_3
REMARK    3  A    between atoms: C_2  and  C_14
REMARK    4  A    between atoms: C_3  and  O_4
REMARK    5  A    between atoms: O_4  and  C_5
REMARK    6  A    between atoms: C_8  and  C_9
REMARK    7  A    between atoms: C_18  and  C_19
REMARK                            x       y       z     vdW  Elec       q    Type
REMARK                         _______ _______ _______ _____ _____    ______ ____
ROOT
ATOM      1  O   UNL     1      43.901   4.843   9.915  0.00  0.00    +0.000 OA
ENDROOT
BRANCH   1   2
ATOM      2  C   UNL     1      44.779   4.091   9.162  0.00  0.00    +0.000 A 
ATOM      3  C   UNL     1      44.729   2.717   9.305  0.00  0.00    +0.000 A 
ATOM      4  C   UNL     1      45.605   1.946   8.547  0.00  0.00    +0.000 A 
ATOM      5  C   UNL     1      46.474   2.601   7.690  0.00  0.00    +0.000 A 
ATOM      6  N   UNL     1      46.498   3.952   7.568  0.00  0.00    +0.000 NA
ATOM      7  N   UNL     1      45.642   4.701   8.316  0.00  0.00    +0.000 NA
BRANCH   5   8
ATOM      8  C   UNL     1      47.440   1.850   6.841  0.00  0.00    +0.000 C 
ATOM      9  N   UNL     1      48.530   2.556   6.405  0.00  0.00    +0.000 N 
ATOM     10  O   UNL     1      47.274   0.673   6.549  0.00  0.00    +0.000 OA
ATOM     11  H   UNL     1      48.652   3.533   6.649  0.00  0.00    +0.000 HD
ATOM     12  H   UNL     1      49.214   2.097   5.820  0.00  0.00    +0.000 HD
ENDBRANCH   5   8
ENDBRANCH   1   2
BRANCH   1  13
ATOM     13  C   UNL     1      43.823   4.386  11.267  0.00  0.00    +0.000 C 
BRANCH  13  15
ATOM     14  C   UNL     1      45.777   3.555  12.714  0.00  0.00    +0.000 C 
ATOM     15  C   UNL     1      45.136   4.660  11.938  0.00  0.00    +0.000 C 
BRANCH  15  16
ATOM     16  C   UNL     1      45.633   6.040  12.046  0.00  0.00    +0.000 A 
ATOM     17  C   UNL     1      44.783   7.092  12.409  0.00  0.00    +0.000 A 
ATOM     18  C   UNL     1      45.276   8.393  12.547  0.00  0.00    +0.000 A 
ATOM     19  C   UNL     1      46.625   8.660  12.315  0.00  0.00    +0.000 A 
ATOM     20  C   UNL     1      47.482   7.624  11.942  0.00  0.00    +0.000 A 
ATOM     21  C   UNL     1      46.986   6.323  11.809  0.00  0.00    +0.000 A 
BRANCH  20  22
ATOM     22  C   UNL     1      48.870   7.882  11.699  0.00  0.00    +0.000 C 
ATOM     23  N   UNL     1      49.993   8.105  11.504  0.00  0.00    +0.000 NA
ENDBRANCH  20  22
ENDBRANCH  15  16
ENDBRANCH  13  15
ENDBRANCH   1  13
TORSDOF 6
ENDMDL
MODEL 3
REMARK VINA RESULT:    -7.373      1.474      1.958
REMARK INTER + INTRA:         -10.865
REMARK INTER:                 -10.134
REMARK INTRA:                  -0.731
REMARK UNBOUND:                -0.905
REMARK  Name = 
REMARK  7 active torsions:
REMARK  status: ('A' for Active; 'I' for Inactive)
REMARK    1  A    between atoms: C_1  and  C_2
REMARK    2  A    between atoms: C_2  and  C_3
REMARK    3  A    between atoms: C_2  and  C_14
REMARK    4  A    between atoms: C_3  and  O_4
REMARK    5  A    between atoms: O_4  and  C_5
REMARK    6  A    between atoms: C_8  and  C_9
REMARK    7  A    between atoms: C_18  and  C_19
REMARK                            x       y       z     vdW  Elec       q    Type
REMARK                         _______ _______ _______ _____ _____    ______ ____
ROOT
ATOM      1  O   UNL     1      43.505   3.465  10.308  0.00  0.00    +0.000 OA
ENDROOT
BRANCH   1   2
ATOM      2  C   UNL     1      44.493   3.185   9.388  0.00  0.00    +0.000 A 
ATOM      3  C   UNL     1      44.988   4.239   8.642  0.00  0.00    +0.000 A 
ATOM      4  C   UNL     1      45.990   3.972   7.713  0.00  0.00    +0.000 A 
ATOM      5  C   UNL     1      46.435   2.665   7.594  0.00  0.00    +0.000 A 
ATOM      6  N   UNL     1      45.932   1.651   8.342  0.00  0.00    +0.000 NA
ATOM      7  N   UNL     1      44.949   1.919   9.245  0.00  0.00    +0.000 NA
BRANCH   5   8
ATOM      8  C   UNL     1      47.506   2.296   6.627  0.00  0.00    +0.000 C 
ATOM      9  N   UNL     1      47.547   3.027   5.470  0.00  0.00    +0.000 N 
ATOM     10  O   UNL     1      48.304   1.395   6.850  0.00  0.00    +0.000 OA
ATOM     11  H   UNL     1      46.876   3.767   5.295  0.00  0.00    +0.000 HD
ATOM     12  H   UNL     1      48.249   2.814   4.776  0.00  0.00    +0.000 HD
ENDBRANCH   5   8
ENDBRANCH   1   2
BRANCH   1  13
ATOM     13  C   UNL     1      43.948   3.266  11.652  0.00  0.00    +0.000 C 
BRANCH  13  15
ATOM     14  C   UNL     1      42.625   5.355  12.349  0.00  0.00    +0.000 C 
ATOM     15  C   UNL     1      43.904   4.583  12.368  0.00  0.00    +0.000 C 
BRANCH  15  16
ATOM     16  C   UNL     1      45.151   5.205  12.839  0.00  0.00    +0.000 A 
ATOM     17  C   UNL     1      46.042   4.511  13.667  0.00  0.00    +0.000 A 
ATOM     18  C   UNL     1      47.242   5.100  14.076  0.00  0.00    +0.000 A 
ATOM     19  C   UNL     1      47.565   6.394  13.667  0.00  0.00    +0.000 A 
ATOM     20  C   UNL     1      46.681   7.101  12.850  0.00  0.00    +0.000 A 
ATOM     21  C   UNL     1      45.483   6.508  12.441  0.00  0.00    +0.000 A 
BRANCH  20  22
ATOM     22  C   UNL     1      46.997   8.432  12.423  0.00  0.00    +0.000 C 
ATOM     23  N   UNL     1      47.256   9.513  12.089  0.00  0.00    +0.000 NA
ENDBRANCH  20  22
ENDBRANCH  15  16
ENDBRANCH  13  15
ENDBRANCH   1  13
TORSDOF 6
ENDMDL
MODEL 4
REMARK VINA RESULT:    -7.254      2.539      3.237
REMARK INTER + INTRA:         -10.703
REMARK INTER:                 -10.373
REMARK INTRA:                  -0.330
REMARK UNBOUND:                -0.905
REMARK  Name = 
REMARK  7 active torsions:
REMARK  status: ('A' for Active; 'I' for Inactive)
REMARK    1  A    between atoms: C_1  and  C_2
REMARK    2  A    between atoms: C_2  and  C_3
REMARK    3  A    between atoms: C_2  and  C_14
REMARK    4  A    between atoms: C_3  and  O_4
REMARK    5  A    between atoms: O_4  and  C_5
REMARK    6  A    between atoms: C_8  and  C_9
REMARK    7  A    between atoms: C_18  and  C_19
REMARK                            x       y       z     vdW  Elec       q    Type
REMARK                         _______ _______ _______ _____ _____    ______ ____
ROOT
ATOM      1  O   UNL     1      43.747   4.685   9.866  0.00  0.00    +0.000 OA
ENDROOT
BRANCH   1   2
ATOM      2  C   UNL     1      44.671   3.976   9.128  0.00  0.00    +0.000 A 
ATOM      3  C   UNL     1      44.699   2.603   9.289  0.00  0.00    +0.000 A 
ATOM      4  C   UNL     1      45.623   1.874   8.545  0.00  0.00    +0.000 A 
ATOM      5  C   UNL     1      46.458   2.568   7.685  0.00  0.00    +0.000 A 
ATOM      6  N   UNL     1      46.406   3.917   7.546  0.00  0.00    +0.000 NA
ATOM      7  N   UNL     1      45.503   4.624   8.279  0.00  0.00    +0.000 NA
BRANCH   5   8
ATOM      8  C   UNL     1      47.472   1.863   6.851  0.00  0.00    +0.000 C 
ATOM      9  N   UNL     1      48.538   2.617   6.439  0.00  0.00    +0.000 N 
ATOM     10  O   UNL     1      47.362   0.682   6.552  0.00  0.00    +0.000 OA
ATOM     11  H   UNL     1      48.614   3.597   6.689  0.00  0.00    +0.000 HD
ATOM     12  H   UNL     1      49.252   2.191   5.865  0.00  0.00    +0.000 HD
ENDBRANCH   5   8
ENDBRANCH   1   2
BRANCH   1  13
ATOM     13  C   UNL     1      43.689   4.245  11.224  0.00  0.00    +0.000 C 
BRANCH  13  15
ATOM     14  C   UNL     1      45.700   3.596  12.686  0.00  0.00    +0.000 C 
ATOM     15  C   UNL     1      44.965   4.639  11.907  0.00  0.00    +0.000 C 
BRANCH  15  16
ATOM     16  C   UNL     1      45.329   6.059  12.022  0.00  0.00    +0.000 A 
ATOM     17  C   UNL     1      46.528   6.456  12.626  0.00  0.00    +0.000 A 
ATOM     18  C   UNL     1      46.880   7.808  12.694  0.00  0.00    +0.000 A 
ATOM     19  C   UNL     1      46.033   8.781  12.164  0.00  0.00    +0.000 A 
ATOM     20  C   UNL     1      44.829   8.400  11.569  0.00  0.00    +0.000 A 
ATOM     21  C   UNL     1      44.482   7.048  11.500  0.00  0.00    +0.000 A 
BRANCH  20  22
ATOM     22  C   UNL     1      43.948   9.388  11.021  0.00  0.00    +0.000 C 
ATOM     23  N   UNL     1      43.224  10.179  10.576  0.00  0.00    +0.000 NA
ENDBRANCH  20  22
ENDBRANCH  15  16
ENDBRANCH  13  15
ENDBRANCH   1  13
TORSDOF 6
ENDMDL
MODEL 5
REMARK VINA RESULT:    -7.220      2.858      6.029
REMARK INTER + INTRA:         -10.658
REMARK INTER:                  -9.709
REMARK INTRA:                  -0.949
REMARK UNBOUND:                -0.905
REMARK  Name = 
REMARK  7 active torsions:
REMARK  status: ('A' for Active; 'I' for Inactive)
REMARK    1  A    between atoms: C_1  and  C_2
REMARK    2  A    between atoms: C_2  and  C_3
REMARK    3  A    between atoms: C_2  and  C_14
REMARK    4  A    between atoms: C_3  and  O_4
REMARK    5  A    between atoms: O_4  and  C_5
REMARK    6  A    between atoms: C_8  and  C_9
REMARK    7  A    between atoms: C_18  and  C_19
REMARK                            x       y       z     vdW  Elec       q    Type
REMARK                         _______ _______ _______ _____ _____    ______ ____
ROOT
ATOM      1  O   UNL     1      43.518   5.201  12.686  0.00  0.00    +0.000 OA
ENDROOT
BRANCH   1   2
ATOM      2  C   UNL     1      44.810   5.679  12.746  0.00  0.00    +0.000 A 
ATOM      3  C   UNL     1      45.712   4.987  13.533  0.00  0.00    +0.000 A 
ATOM      4  C   UNL     1      47.021   5.456  13.598  0.00  0.00    +0.000 A 
ATOM      5  C   UNL     1      47.344   6.588  12.867  0.00  0.00    +0.000 A 
ATOM      6  N   UNL     1      46.438   7.245  12.101  0.00  0.00    +0.000 NA
ATOM      7  N   UNL     1      45.158   6.784  12.045  0.00  0.00    +0.000 NA
BRANCH   5   8
ATOM      8  C   UNL     1      48.723   7.151  12.879  0.00  0.00    +0.000 C 
ATOM      9  N   UNL     1      49.005   8.065  11.898  0.00  0.00    +0.000 N 
ATOM     10  O   UNL     1      49.555   6.822  13.714  0.00  0.00    +0.000 OA
ATOM     11  H   UNL     1      48.309   8.324  11.208  0.00  0.00    +0.000 HD
ATOM     12  H   UNL     1      49.928   8.474  11.855  0.00  0.00    +0.000 HD
ENDBRANCH   5   8
ENDBRANCH   1   2
BRANCH   1  13
ATOM     13  C   UNL     1      43.098   4.953  11.343  0.00  0.00    +0.000 C 
BRANCH  13  15
ATOM     14  C   UNL     1      43.371   2.445  11.832  0.00  0.00    +0.000 C 
ATOM     15  C   UNL     1      43.611   3.608  10.924  0.00  0.00    +0.000 C 
BRANCH  15  16
ATOM     16  C   UNL     1      44.545   3.498   9.792  0.00  0.00    +0.000 A 
ATOM     17  C   UNL     1      44.995   4.634   9.109  0.00  0.00    +0.000 A 
ATOM     18  C   UNL     1      45.913   4.519   8.060  0.00  0.00    +0.000 A 
ATOM     19  C   UNL     1      46.386   3.264   7.676  0.00  0.00    +0.000 A 
ATOM     20  C   UNL     1      45.937   2.122   8.342  0.00  0.00    +0.000 A 
ATOM     21  C   UNL     1      45.022   2.242   9.392  0.00  0.00    +0.000 A 
BRANCH  20  22
ATOM     22  C   UNL     1      46.413   0.826   7.958  0.00  0.00    +0.000 C 
ATOM     23  N   UNL     1      46.796  -0.221   7.635  0.00  0.00    +0.000 NA
ENDBRANCH  20  22
ENDBRANCH  15  16
ENDBRANCH  13  15
ENDBRANCH   1  13
TORSDOF 6
ENDMDL
MODEL 6
REMARK VINA RESULT:    -6.611      2.665      6.955
REMARK INTER + INTRA:          -9.835
REMARK INTER:                  -9.416
REMARK INTRA:                  -0.419
REMARK UNBOUND:                -0.905
REMARK  Name = 
REMARK  7 active torsions:
REMARK  status: ('A' for Active; 'I' for Inactive)
REMARK    1  A    between atoms: C_1  and  C_2
REMARK    2  A    between atoms: C_2  and  C_3
REMARK    3  A    between atoms: C_2  and  C_14
REMARK    4  A    between atoms: C_3  and  O_4
REMARK    5  A    between atoms: O_4  and  C_5
REMARK    6  A    between atoms: C_8  and  C_9
REMARK    7  A    between atoms: C_18  and  C_19
REMARK                            x       y       z     vdW  Elec       q    Type
REMARK                         _______ _______ _______ _____ _____    ______ ____
ROOT
ATOM      1  O   UNL     1      46.140   5.087  12.138  0.00  0.00    +0.000 OA
ENDROOT
BRANCH   1   2
ATOM      2  C   UNL     1      46.698   4.843  13.375  0.00  0.00    +0.000 A 
ATOM      3  C   UNL     1      47.327   5.897  14.011  0.00  0.00    +0.000 A 
ATOM      4  C   UNL     1      47.889   5.665  15.264  0.00  0.00    +0.000 A 
ATOM      5  C   UNL     1      47.782   4.392  15.800  0.00  0.00    +0.000 A 
ATOM      6  N   UNL     1      47.156   3.378  15.152  0.00  0.00    +0.000 NA
ATOM      7  N   UNL     1      46.612   3.609  13.926  0.00  0.00    +0.000 NA
BRANCH   5   8
ATOM      8  C   UNL     1      48.353   4.062  17.136  0.00  0.00    +0.000 C 
ATOM      9  N   UNL     1      47.520   3.396  17.995  0.00  0.00    +0.000 N 
ATOM     10  O   UNL     1      49.496   4.366  17.449  0.00  0.00    +0.000 OA
ATOM     11  H   UNL     1      46.573   3.155  17.725  0.00  0.00    +0.000 HD
ATOM     12  H   UNL     1      47.854   3.154  18.917  0.00  0.00    +0.000 HD
ENDBRANCH   5   8
ENDBRANCH   1   2
BRANCH   1  13
ATOM     13  C   UNL     1      44.715   4.978  12.158  0.00  0.00    +0.000 C 
BRANCH  13  15
ATOM     14  C   UNL     1      43.427   2.778  11.836  0.00  0.00    +0.000 C 
ATOM     15  C   UNL     1      44.312   3.840  11.268  0.00  0.00    +0.000 C 
BRANCH  15  16
ATOM     16  C   UNL     1      44.983   3.646   9.973  0.00  0.00    +0.000 A 
ATOM     17  C   UNL     1      45.275   4.730   9.137  0.00  0.00    +0.000 A 
ATOM     18  C   UNL     1      45.948   4.537   7.927  0.00  0.00    +0.000 A 
ATOM     19  C   UNL     1      46.331   3.255   7.534  0.00  0.00    +0.000 A 
ATOM     20  C   UNL     1      46.037   2.163   8.353  0.00  0.00    +0.000 A 
ATOM     21  C   UNL     1      45.366   2.361   9.563  0.00  0.00    +0.000 A 
BRANCH  20  22
ATOM     22  C   UNL     1      46.422   0.840   7.962  0.00  0.00    +0.000 C 
ATOM     23  N   UNL     1      46.723  -0.235   7.640  0.00  0.00    +0.000 NA
ENDBRANCH  20  22
ENDBRANCH  15  16
ENDBRANCH  13  15
ENDBRANCH   1  13
TORSDOF 6
ENDMDL
MODEL 7
REMARK VINA RESULT:    -6.543      4.236      7.874
REMARK INTER + INTRA:          -9.743
REMARK INTER:                  -9.236
REMARK INTRA:                  -0.507
REMARK UNBOUND:                -0.905
REMARK  Name = 
REMARK  7 active torsions:
REMARK  status: ('A' for Active; 'I' for Inactive)
REMARK    1  A    between atoms: C_1  and  C_2
REMARK    2  A    between atoms: C_2  and  C_3
REMARK    3  A    between atoms: C_2  and  C_14
REMARK    4  A    between atoms: C_3  and  O_4
REMARK    5  A    between atoms: O_4  and  C_5
REMARK    6  A    between atoms: C_8  and  C_9
REMARK    7  A    between atoms: C_18  and  C_19
REMARK                            x       y       z     vdW  Elec       q    Type
REMARK                         _______ _______ _______ _____ _____    ______ ____
ROOT
ATOM      1  O   UNL     1      47.855   4.737  16.486  0.00  0.00    +0.000 OA
ENDROOT
BRANCH   1   2
ATOM      2  C   UNL     1      48.902   3.885  16.769  0.00  0.00    +0.000 A 
ATOM      3  C   UNL     1      49.934   4.379  17.545  0.00  0.00    +0.000 A 
ATOM      4  C   UNL     1      50.994   3.527  17.844  0.00  0.00    +0.000 A 
ATOM      5  C   UNL     1      50.950   2.234  17.350  0.00  0.00    +0.000 A 
ATOM      6  N   UNL     1      49.922   1.777  16.592  0.00  0.00    +0.000 NA
ATOM      7  N   UNL     1      48.890   2.616  16.300  0.00  0.00    +0.000 NA
BRANCH   5   8
ATOM      8  C   UNL     1      52.043   1.260  17.627  0.00  0.00    +0.000 C 
ATOM      9  N   UNL     1      51.655   0.064  18.170  0.00  0.00    +0.000 N 
ATOM     10  O   UNL     1      53.216   1.510  17.384  0.00  0.00    +0.000 OA
ATOM     11  H   UNL     1      50.680  -0.128  18.372  0.00  0.00    +0.000 HD
ATOM     12  H   UNL     1      52.356  -0.631  18.385  0.00  0.00    +0.000 HD
ENDBRANCH   5   8
ENDBRANCH   1   2
BRANCH   1  13
ATOM     13  C   UNL     1      47.109   4.312  15.343  0.00  0.00    +0.000 C 
BRANCH  13  15
ATOM     14  C   UNL     1      48.201   6.483  14.509  0.00  0.00    +0.000 C 
ATOM     15  C   UNL     1      47.328   5.301  14.237  0.00  0.00    +0.000 C 
BRANCH  15  16
ATOM     16  C   UNL     1      46.498   5.242  13.024  0.00  0.00    +0.000 A 
ATOM     17  C   UNL     1      46.672   6.157  11.979  0.00  0.00    +0.000 A 
ATOM     18  C   UNL     1      45.903   6.065  10.814  0.00  0.00    +0.000 A 
ATOM     19  C   UNL     1      44.945   5.061  10.683  0.00  0.00    +0.000 A 
ATOM     20  C   UNL     1      44.754   4.147  11.722  0.00  0.00    +0.000 A 
ATOM     21  C   UNL     1      45.526   4.241  12.883  0.00  0.00    +0.000 A 
BRANCH  20  22
ATOM     22  C   UNL     1      43.772   3.110  11.603  0.00  0.00    +0.000 C 
ATOM     23  N   UNL     1      42.984   2.265  11.496  0.00  0.00    +0.000 NA
ENDBRANCH  20  22
ENDBRANCH  15  16
ENDBRANCH  13  15
ENDBRANCH   1  13
TORSDOF 6
ENDMDL
MODEL 8
REMARK VINA RESULT:    -6.334      3.863      6.305
REMARK INTER + INTRA:          -9.461
REMARK INTER:                  -8.947
REMARK INTRA:                  -0.514
REMARK UNBOUND:                -0.905
REMARK  Name = 
REMARK  7 active torsions:
REMARK  status: ('A' for Active; 'I' for Inactive)
REMARK    1  A    between atoms: C_1  and  C_2
REMARK    2  A    between atoms: C_2  and  C_3
REMARK    3  A    between atoms: C_2  and  C_14
REMARK    4  A    between atoms: C_3  and  O_4
REMARK    5  A    between atoms: O_4  and  C_5
REMARK    6  A    between atoms: C_8  and  C_9
REMARK    7  A    between atoms: C_18  and  C_19
REMARK                            x       y       z     vdW  Elec       q    Type
REMARK                         _______ _______ _______ _____ _____    ______ ____
ROOT
ATOM      1  O   UNL     1      47.933   4.676  14.747  0.00  0.00    +0.000 OA
ENDROOT
BRANCH   1   2
ATOM      2  C   UNL     1      46.918   4.501  13.829  0.00  0.00    +0.000 A 
ATOM      3  C   UNL     1      46.413   5.631  13.212  0.00  0.00    +0.000 A 
ATOM      4  C   UNL     1      45.393   5.467  12.279  0.00  0.00    +0.000 A 
ATOM      5  C   UNL     1      44.946   4.182  12.021  0.00  0.00    +0.000 A 
ATOM      6  N   UNL     1      45.463   3.091  12.641  0.00  0.00    +0.000 NA
ATOM      7  N   UNL     1      46.458   3.258  13.555  0.00  0.00    +0.000 NA
BRANCH   5   8
ATOM      8  C   UNL     1      43.861   3.921  11.035  0.00  0.00    +0.000 C 
ATOM      9  N   UNL     1      43.783   4.797   9.984  0.00  0.00    +0.000 N 
ATOM     10  O   UNL     1      43.085   2.982  11.152  0.00  0.00    +0.000 OA
ATOM     11  H   UNL     1      44.428   5.575   9.903  0.00  0.00    +0.000 HD
ATOM     12  H   UNL     1      43.061   4.671   9.289  0.00  0.00    +0.000 HD
ENDBRANCH   5   8
ENDBRANCH   1   2
BRANCH   1  13
ATOM     13  C   UNL     1      47.439   4.771  16.084  0.00  0.00    +0.000 C 
BRANCH  13  15
ATOM     14  C   UNL     1      47.209   2.736  17.636  0.00  0.00    +0.000 C 
ATOM     15  C   UNL     1      48.090   3.701  16.910  0.00  0.00    +0.000 C 
BRANCH  15  16
ATOM     16  C   UNL     1      49.530   3.772  17.201  0.00  0.00    +0.000 A 
ATOM     17  C   UNL     1      50.187   5.001  17.323  0.00  0.00    +0.000 A 
ATOM     18  C   UNL     1      51.548   5.055  17.639  0.00  0.00    +0.000 A 
ATOM     19  C   UNL     1      52.271   3.878  17.830  0.00  0.00    +0.000 A 
ATOM     20  C   UNL     1      51.631   2.644  17.701  0.00  0.00    +0.000 A 
ATOM     21  C   UNL     1      50.269   2.595  17.388  0.00  0.00    +0.000 A 
BRANCH  20  22
ATOM     22  C   UNL     1      52.360   1.426  17.893  0.00  0.00    +0.000 C 
ATOM     23  N   UNL     1      52.940   0.432  18.049  0.00  0.00    +0.000 NA
ENDBRANCH  20  22
ENDBRANCH  15  16
ENDBRANCH  13  15
ENDBRANCH   1  13
TORSDOF 6
ENDMDL
MODEL 9
REMARK VINA RESULT:    -6.327      2.696      6.980
REMARK INTER + INTRA:          -9.452
REMARK INTER:                  -8.786
REMARK INTRA:                  -0.666
REMARK UNBOUND:                -0.905
REMARK  Name = 
REMARK  7 active torsions:
REMARK  status: ('A' for Active; 'I' for Inactive)
REMARK    1  A    between atoms: C_1  and  C_2
REMARK    2  A    between atoms: C_2  and  C_3
REMARK    3  A    between atoms: C_2  and  C_14
REMARK    4  A    between atoms: C_3  and  O_4
REMARK    5  A    between atoms: O_4  and  C_5
REMARK    6  A    between atoms: C_8  and  C_9
REMARK    7  A    between atoms: C_18  and  C_19
REMARK                            x       y       z     vdW  Elec       q    Type
REMARK                         _______ _______ _______ _____ _____    ______ ____
ROOT
ATOM      1  O   UNL     1      47.289   6.191  12.645  0.00  0.00    +0.000 OA
ENDROOT
BRANCH   1   2
ATOM      2  C   UNL     1      47.416   5.422  13.782  0.00  0.00    +0.000 A 
ATOM      3  C   UNL     1      47.877   6.045  14.927  0.00  0.00    +0.000 A 
ATOM      4  C   UNL     1      48.004   5.280  16.084  0.00  0.00    +0.000 A 
ATOM      5  C   UNL     1      47.658   3.941  16.020  0.00  0.00    +0.000 A 
ATOM      6  N   UNL     1      47.205   3.357  14.882  0.00  0.00    +0.000 NA
ATOM      7  N   UNL     1      47.087   4.109  13.753  0.00  0.00    +0.000 NA
BRANCH   5   8
ATOM      8  C   UNL     1      47.761   3.055  17.213  0.00  0.00    +0.000 C 
ATOM      9  N   UNL     1      49.019   2.887  17.727  0.00  0.00    +0.000 N 
ATOM     10  O   UNL     1      46.783   2.510  17.707  0.00  0.00    +0.000 OA
ATOM     11  H   UNL     1      49.822   3.339  17.304  0.00  0.00    +0.000 HD
ATOM     12  H   UNL     1      49.148   2.290  18.532  0.00  0.00    +0.000 HD
ENDBRANCH   5   8
ENDBRANCH   1   2
BRANCH   1  13
ATOM     13  C   UNL     1      46.319   7.228  12.802  0.00  0.00    +0.000 C 
BRANCH  13  15
ATOM     14  C   UNL     1      44.636   8.442  11.286  0.00  0.00    +0.000 C 
ATOM     15  C   UNL     1      45.395   7.199  11.620  0.00  0.00    +0.000 C 
BRANCH  15  16
ATOM     16  C   UNL     1      45.055   5.917  10.985  0.00  0.00    +0.000 A 
ATOM     17  C   UNL     1      44.141   5.034  11.571  0.00  0.00    +0.000 A 
ATOM     18  C   UNL     1      43.797   3.836  10.938  0.00  0.00    +0.000 A 
ATOM     19  C   UNL     1      44.370   3.502   9.711  0.00  0.00    +0.000 A 
ATOM     20  C   UNL     1      45.291   4.368   9.118  0.00  0.00    +0.000 A 
ATOM     21  C   UNL     1      45.630   5.566   9.754  0.00  0.00    +0.000 A 
BRANCH  20  22
ATOM     22  C   UNL     1      45.889   4.038   7.859  0.00  0.00    +0.000 C 
ATOM     23  N   UNL     1      46.380   3.762   6.844  0.00  0.00    +0.000 NA
ENDBRANCH  20  22
ENDBRANCH  15  16
ENDBRANCH  13  15
ENDBRANCH   1  13
TORSDOF 6
ENDMDL
