MODEL 1
REMARK VINA RESULT:    -9.145      0.000      0.000
REMARK INTER + INTRA:         -13.030
REMARK INTER:                 -12.352
REMARK INTRA:                  -0.678
REMARK UNBOUND:                -0.678
REMARK  Name = 
REMARK  10 active torsions:
REMARK  status: ('A' for Active; 'I' for Inactive)
REMARK    1  A    between atoms: C_1  and  C_2
REMARK    2  A    between atoms: C_2  and  C_3
REMARK    3  A    between atoms: C_5  and  N_6
REMARK    4  A    between atoms: C_9  and  C_10
REMARK    5  A    between atoms: C_10  and  C_11
REMARK    6  A    between atoms: C_10  and  C_12
REMARK    7  A    between atoms: C_10  and  C_13
REMARK    8  A    between atoms: C_13  and  N_14
REMARK    9  A    between atoms: N_14  and  C_15
REMARK   10  A    between atoms: C_18  and  C_19
REMARK                            x       y       z     vdW  Elec       q    Type
REMARK                         _______ _______ _______ _____ _____    ______ ____
ROOT
ATOM      1  C   UNL     1      43.929   5.320  12.013  0.00  0.00    +0.000 C 
ATOM      2  C   UNL     1      42.752   5.539  13.002  0.00  0.00    +0.000 C 
ATOM      3  C   UNL     1      44.297   6.681  11.377  0.00  0.00    +0.000 C 
ENDROOT
BRANCH   1   7
ATOM      4  N   UNL     1      47.628   5.802  15.315  0.00  0.00    +0.000 N 
ATOM      5  C   UNL     1      46.957   5.005  14.366  0.00  0.00    +0.000 A 
ATOM      6  C   UNL     1      45.866   5.549  13.682  0.00  0.00    +0.000 A 
ATOM      7  C   UNL     1      45.138   4.756  12.780  0.00  0.00    +0.000 A 
ATOM      8  C   UNL     1      45.578   3.436  12.628  0.00  0.00    +0.000 A 
ATOM      9  C   UNL     1      46.710   3.000  13.289  0.00  0.00    +0.000 A 
ATOM     10  N   UNL     1      47.399   3.752  14.154  0.00  0.00    +0.000 NA
ATOM     11  H   UNL     1      48.242   6.412  14.776  0.00  0.00    +0.000 HD
BRANCH   4  16
ATOM     12  C   UNL     1      49.377   4.303  19.122  0.00  0.00    +0.000 C 
ATOM     13  C   UNL     1      48.320   5.252  18.559  0.00  0.00    +0.000 C 
ATOM     14  C   UNL     1      47.556   5.963  19.672  0.00  0.00    +0.000 C 
ATOM     15  C   UNL     1      47.406   4.601  17.486  0.00  0.00    +0.000 C 
ATOM     16  C   UNL     1      48.345   5.177  16.394  0.00  0.00    +0.000 C 
ATOM     17  C   UNL     1      48.834   6.205  17.437  0.00  0.00    +0.000 C 
ENDBRANCH   4  16
ENDBRANCH   1   7
BRANCH   1  18
ATOM     18  C   UNL     1      43.392   4.371  10.893  0.00  0.00    +0.000 C 
BRANCH  18  19
ATOM     19  N   UNL     1      43.791   4.768   9.537  0.00  0.00    +0.000 N 
ATOM     20  H   UNL     1      44.056   5.743   9.402  0.00  0.00    +0.000 HD
BRANCH  19  21
ATOM     21  C   UNL     1      44.753   3.989   8.901  0.00  0.00    +0.000 A 
ATOM     22  N   UNL     1      45.597   4.670   8.094  0.00  0.00    +0.000 NA
ATOM     23  C   UNL     1      46.547   3.959   7.426  0.00  0.00    +0.000 A 
ATOM     24  C   UNL     1      46.719   2.589   7.540  0.00  0.00    +0.000 A 
ATOM     25  C   UNL     1      45.858   1.902   8.395  0.00  0.00    +0.000 A 
ATOM     26  C   UNL     1      44.865   2.603   9.062  0.00  0.00    +0.000 A 
ATOM     27  F   UNL     1      44.053   1.927   9.889  0.00  0.00    +0.000 F 
BRANCH  24  28
ATOM     28  C   UNL     1      47.750   1.813   6.816  0.00  0.00    +0.000 C 
ATOM     29  N   UNL     1      48.583   2.457   5.939  0.00  0.00    +0.000 N 
ATOM     30  O   UNL     1      47.858   0.606   6.979  0.00  0.00    +0.000 OA
ATOM     31  H   UNL     1      48.578   3.436   5.729  0.00  0.00    +0.000 HD
ATOM     32  H   UNL     1      49.264   1.873   5.464  0.00  0.00    +0.000 HD
ENDBRANCH  24  28
ENDBRANCH  19  21
ENDBRANCH  18  19
ENDBRANCH   1  18
TORSDOF 6
ENDMDL
MODEL 2
REMARK VINA RESULT:    -8.988      3.140      4.033
REMARK INTER + INTRA:         -12.819
REMARK INTER:                 -12.010
REMARK INTRA:                  -0.808
REMARK UNBOUND:                -0.678
REMARK  Name = 
REMARK  10 active torsions:
REMARK  status: ('A' for Active; 'I' for Inactive)
REMARK    1  A    between atoms: C_1  and  C_2
REMARK    2  A    between atoms: C_2  and  C_3
REMARK    3  A    between atoms: C_5  and  N_6
REMARK    4  A    between atoms: C_9  and  C_10
REMARK    5  A    between atoms: C_10  and  C_11
REMARK    6  A    between atoms: C_10  and  C_12
REMARK    7  A    between atoms: C_10  and  C_13
REMARK    8  A    between atoms: C_13  and  N_14
REMARK    9  A    between atoms: N_14  and  C_15
REMARK   10  A    between atoms: C_18  and  C_19
REMARK                            x       y       z     vdW  Elec       q    Type
REMARK                         _______ _______ _______ _____ _____    ______ ____
ROOT
ATOM      1  C   UNL     1      43.882   5.288  12.014  0.00  0.00    +0.000 C 
ATOM      2  C   UNL     1      43.003   5.006  13.262  0.00  0.00    +0.000 C 
ATOM      3  C   UNL     1      43.331   6.542  11.297  0.00  0.00    +0.000 C 
ENDROOT
BRANCH   1   7
ATOM      4  N   UNL     1      48.319   7.486  11.457  0.00  0.00    +0.000 N 
ATOM      5  C   UNL     1      47.501   6.586  12.169  0.00  0.00    +0.000 A 
ATOM      6  C   UNL     1      46.190   6.377  11.733  0.00  0.00    +0.000 A 
ATOM      7  C   UNL     1      45.334   5.537  12.462  0.00  0.00    +0.000 A 
ATOM      8  C   UNL     1      45.879   4.948  13.609  0.00  0.00    +0.000 A 
ATOM      9  C   UNL     1      47.207   5.150  13.929  0.00  0.00    +0.000 A 
ATOM     10  N   UNL     1      48.022   5.957  13.239  0.00  0.00    +0.000 NA
ATOM     11  H   UNL     1      48.648   6.971  10.641  0.00  0.00    +0.000 HD
BRANCH   4  16
ATOM     12  C   UNL     1      51.898   9.764  12.797  0.00  0.00    +0.000 C 
ATOM     13  C   UNL     1      51.090   9.387  11.556  0.00  0.00    +0.000 C 
ATOM     14  C   UNL     1      51.687   9.997  10.292  0.00  0.00    +0.000 C 
ATOM     15  C   UNL     1      49.564   9.629  11.710  0.00  0.00    +0.000 C 
ATOM     16  C   UNL     1      49.411   8.141  12.124  0.00  0.00    +0.000 C 
ATOM     17  C   UNL     1      50.762   7.868  11.430  0.00  0.00    +0.000 C 
ENDBRANCH   4  16
ENDBRANCH   1   7
BRANCH   1  18
ATOM     18  C   UNL     1      43.715   4.054  11.069  0.00  0.00    +0.000 C 
BRANCH  18  19
ATOM     19  N   UNL     1      43.756   4.391   9.641  0.00  0.00    +0.000 N 
ATOM     20  H   UNL     1      43.742   5.381   9.401  0.00  0.00    +0.000 HD
BRANCH  19  21
ATOM     21  C   UNL     1      44.751   3.794   8.874  0.00  0.00    +0.000 A 
ATOM     22  N   UNL     1      45.517   4.654   8.164  0.00  0.00    +0.000 NA
ATOM     23  C   UNL     1      46.495   4.129   7.376  0.00  0.00    +0.000 A 
ATOM     24  C   UNL     1      46.771   2.774   7.274  0.00  0.00    +0.000 A 
ATOM     25  C   UNL     1      45.990   1.901   8.030  0.00  0.00    +0.000 A 
ATOM     26  C   UNL     1      44.970   2.413   8.816  0.00  0.00    +0.000 A 
ATOM     27  F   UNL     1      44.237   1.559   9.546  0.00  0.00    +0.000 F 
BRANCH  24  28
ATOM     28  C   UNL     1      47.833   2.200   6.418  0.00  0.00    +0.000 C 
ATOM     29  N   UNL     1      48.227   2.875   5.292  0.00  0.00    +0.000 N 
ATOM     30  O   UNL     1      48.351   1.128   6.695  0.00  0.00    +0.000 OA
ATOM     31  H   UNL     1      47.868   3.754   4.973  0.00  0.00    +0.000 HD
ATOM     32  H   UNL     1      48.952   2.429   4.739  0.00  0.00    +0.000 HD
ENDBRANCH  24  28
ENDBRANCH  19  21
ENDBRANCH  18  19
ENDBRANCH   1  18
TORSDOF 6
ENDMDL
MODEL 3
REMARK VINA RESULT:    -8.136      3.198      4.269
REMARK INTER + INTRA:         -11.667
REMARK INTER:                 -10.700
REMARK INTRA:                  -0.967
REMARK UNBOUND:                -0.678
REMARK  Name = 
REMARK  10 active torsions:
REMARK  status: ('A' for Active; 'I' for Inactive)
REMARK    1  A    between atoms: C_1  and  C_2
REMARK    2  A    between atoms: C_2  and  C_3
REMARK    3  A    between atoms: C_5  and  N_6
REMARK    4  A    between atoms: C_9  and  C_10
REMARK    5  A    between atoms: C_10  and  C_11
REMARK    6  A    between atoms: C_10  and  C_12
REMARK    7  A    between atoms: C_10  and  C_13
REMARK    8  A    between atoms: C_13  and  N_14
REMARK    9  A    between atoms: N_14  and  C_15
REMARK   10  A    between atoms: C_18  and  C_19
REMARK                            x       y       z     vdW  Elec       q    Type
REMARK                         _______ _______ _______ _____ _____    ______ ____
ROOT
ATOM      1  C   UNL     1      43.891   4.657  12.167  0.00  0.00    +0.000 C 
ATOM      2  C   UNL     1      43.395   4.344  13.605  0.00  0.00    +0.000 C 
ATOM      3  C   UNL     1      42.662   4.791  11.240  0.00  0.00    +0.000 C 
ENDROOT
BRANCH   1   7
ATOM      4  N   UNL     1      47.955   7.311  13.292  0.00  0.00    +0.000 N 
ATOM      5  C   UNL     1      46.652   7.272  12.758  0.00  0.00    +0.000 A 
ATOM      6  C   UNL     1      45.957   6.060  12.766  0.00  0.00    +0.000 A 
ATOM      7  C   UNL     1      44.684   5.977  12.181  0.00  0.00    +0.000 A 
ATOM      8  C   UNL     1      44.188   7.159  11.617  0.00  0.00    +0.000 A 
ATOM      9  C   UNL     1      44.910   8.332  11.716  0.00  0.00    +0.000 A 
ATOM     10  N   UNL     1      46.127   8.410  12.267  0.00  0.00    +0.000 NA
ATOM     11  H   UNL     1      47.836   7.361  14.304  0.00  0.00    +0.000 HD
BRANCH   4  16
ATOM     12  C   UNL     1      51.182   9.797  11.502  0.00  0.00    +0.000 C 
ATOM     13  C   UNL     1      50.652   8.367  11.583  0.00  0.00    +0.000 C 
ATOM     14  C   UNL     1      51.505   7.405  10.762  0.00  0.00    +0.000 C 
ATOM     15  C   UNL     1      49.129   8.249  11.305  0.00  0.00    +0.000 C 
ATOM     16  C   UNL     1      48.886   8.309  12.836  0.00  0.00    +0.000 C 
ATOM     17  C   UNL     1      50.351   7.866  13.029  0.00  0.00    +0.000 C 
ENDBRANCH   4  16
ENDBRANCH   1   7
BRANCH   1  18
ATOM     18  C   UNL     1      44.732   3.420  11.713  0.00  0.00    +0.000 C 
BRANCH  18  19
ATOM     19  N   UNL     1      44.205   2.752  10.518  0.00  0.00    +0.000 N 
ATOM     20  H   UNL     1      43.278   3.034  10.204  0.00  0.00    +0.000 HD
BRANCH  19  21
ATOM     21  C   UNL     1      45.025   2.713   9.394  0.00  0.00    +0.000 A 
ATOM     22  N   UNL     1      45.477   1.483   9.059  0.00  0.00    +0.000 NA
ATOM     23  C   UNL     1      46.303   1.384   7.981  0.00  0.00    +0.000 A 
ATOM     24  C   UNL     1      46.688   2.457   7.192  0.00  0.00    +0.000 A 
ATOM     25  C   UNL     1      46.194   3.715   7.534  0.00  0.00    +0.000 A 
ATOM     26  C   UNL     1      45.376   3.843   8.645  0.00  0.00    +0.000 A 
ATOM     27  F   UNL     1      44.901   5.059   8.952  0.00  0.00    +0.000 F 
BRANCH  24  28
ATOM     28  C   UNL     1      47.584   2.352   6.019  0.00  0.00    +0.000 C 
ATOM     29  N   UNL     1      47.488   3.279   5.015  0.00  0.00    +0.000 N 
ATOM     30  O   UNL     1      48.397   1.443   5.929  0.00  0.00    +0.000 OA
ATOM     31  H   UNL     1      46.858   4.058   4.986  0.00  0.00    +0.000 HD
ATOM     32  H   UNL     1      48.121   3.152   4.232  0.00  0.00    +0.000 HD
ENDBRANCH  24  28
ENDBRANCH  19  21
ENDBRANCH  18  19
ENDBRANCH   1  18
TORSDOF 6
ENDMDL
MODEL 4
REMARK VINA RESULT:    -7.668      2.341      2.936
REMARK INTER + INTRA:         -11.036
REMARK INTER:                 -10.066
REMARK INTRA:                  -0.970
REMARK UNBOUND:                -0.678
REMARK  Name = 
REMARK  10 active torsions:
REMARK  status: ('A' for Active; 'I' for Inactive)
REMARK    1  A    between atoms: C_1  and  C_2
REMARK    2  A    between atoms: C_2  and  C_3
REMARK    3  A    between atoms: C_5  and  N_6
REMARK    4  A    between atoms: C_9  and  C_10
REMARK    5  A    between atoms: C_10  and  C_11
REMARK    6  A    between atoms: C_10  and  C_12
REMARK    7  A    between atoms: C_10  and  C_13
REMARK    8  A    between atoms: C_13  and  N_14
REMARK    9  A    between atoms: N_14  and  C_15
REMARK   10  A    between atoms: C_18  and  C_19
REMARK                            x       y       z     vdW  Elec       q    Type
REMARK                         _______ _______ _______ _____ _____    ______ ____
ROOT
ATOM      1  C   UNL     1      44.134   4.414  12.030  0.00  0.00    +0.000 C 
ATOM      2  C   UNL     1      43.623   4.284  13.491  0.00  0.00    +0.000 C 
ATOM      3  C   UNL     1      42.960   4.874  11.136  0.00  0.00    +0.000 C 
ENDROOT
BRANCH   1   7
ATOM      4  N   UNL     1      47.133   7.726  14.237  0.00  0.00    +0.000 N 
ATOM      5  C   UNL     1      46.705   7.088  13.055  0.00  0.00    +0.000 A 
ATOM      6  C   UNL     1      45.669   6.154  13.131  0.00  0.00    +0.000 A 
ATOM      7  C   UNL     1      45.268   5.455  11.982  0.00  0.00    +0.000 A 
ATOM      8  C   UNL     1      45.958   5.762  10.803  0.00  0.00    +0.000 A 
ATOM      9  C   UNL     1      46.921   6.753  10.800  0.00  0.00    +0.000 A 
ATOM     10  N   UNL     1      47.309   7.413  11.897  0.00  0.00    +0.000 NA
ATOM     11  H   UNL     1      46.451   8.463  14.413  0.00  0.00    +0.000 HD
BRANCH   4  16
ATOM     12  C   UNL     1      51.320   8.889  15.191  0.00  0.00    +0.000 C 
ATOM     13  C   UNL     1      50.140   8.063  15.702  0.00  0.00    +0.000 C 
ATOM     14  C   UNL     1      50.476   7.357  17.012  0.00  0.00    +0.000 C 
ATOM     15  C   UNL     1      49.520   7.131  14.626  0.00  0.00    +0.000 C 
ATOM     16  C   UNL     1      48.474   8.237  14.328  0.00  0.00    +0.000 C 
ATOM     17  C   UNL     1      48.778   8.821  15.724  0.00  0.00    +0.000 C 
ENDBRANCH   4  16
ENDBRANCH   1   7
BRANCH   1  18
ATOM     18  C   UNL     1      44.573   2.981  11.587  0.00  0.00    +0.000 C 
BRANCH  18  19
ATOM     19  N   UNL     1      44.002   2.557  10.303  0.00  0.00    +0.000 N 
ATOM     20  H   UNL     1      43.141   3.014  10.009  0.00  0.00    +0.000 HD
BRANCH  19  21
ATOM     21  C   UNL     1      44.854   2.535   9.203  0.00  0.00    +0.000 A 
ATOM     22  N   UNL     1      45.592   1.409   9.075  0.00  0.00    +0.000 NA
ATOM     23  C   UNL     1      46.461   1.337   8.029  0.00  0.00    +0.000 A 
ATOM     24  C   UNL     1      46.618   2.331   7.076  0.00  0.00    +0.000 A 
ATOM     25  C   UNL     1      45.833   3.475   7.206  0.00  0.00    +0.000 A 
ATOM     26  C   UNL     1      44.963   3.581   8.280  0.00  0.00    +0.000 A 
ATOM     27  F   UNL     1      44.207   4.685   8.383  0.00  0.00    +0.000 F 
BRANCH  24  28
ATOM     28  C   UNL     1      47.561   2.255   5.938  0.00  0.00    +0.000 C 
ATOM     29  N   UNL     1      47.362   3.057   4.845  0.00  0.00    +0.000 N 
ATOM     30  O   UNL     1      48.505   1.479   5.956  0.00  0.00    +0.000 OA
ATOM     31  H   UNL     1      46.622   3.723   4.727  0.00  0.00    +0.000 HD
ATOM     32  H   UNL     1      48.034   2.956   4.092  0.00  0.00    +0.000 HD
ENDBRANCH  24  28
ENDBRANCH  19  21
ENDBRANCH  18  19
ENDBRANCH   1  18
TORSDOF 6
ENDMDL
MODEL 5
REMARK VINA RESULT:    -7.562      1.738      2.306
REMARK INTER + INTRA:         -10.892
REMARK INTER:                 -10.554
REMARK INTRA:                  -0.338
REMARK UNBOUND:                -0.678
REMARK  Name = 
REMARK  10 active torsions:
REMARK  status: ('A' for Active; 'I' for Inactive)
REMARK    1  A    between atoms: C_1  and  C_2
REMARK    2  A    between atoms: C_2  and  C_3
REMARK    3  A    between atoms: C_5  and  N_6
REMARK    4  A    between atoms: C_9  and  C_10
REMARK    5  A    between atoms: C_10  and  C_11
REMARK    6  A    between atoms: C_10  and  C_12
REMARK    7  A    between atoms: C_10  and  C_13
REMARK    8  A    between atoms: C_13  and  N_14
REMARK    9  A    between atoms: N_14  and  C_15
REMARK   10  A    between atoms: C_18  and  C_19
REMARK                            x       y       z     vdW  Elec       q    Type
REMARK                         _______ _______ _______ _____ _____    ______ ____
ROOT
ATOM      1  C   UNL     1      45.688   6.192  12.066  0.00  0.00    +0.000 C 
ATOM      2  C   UNL     1      44.689   7.315  12.452  0.00  0.00    +0.000 C 
ATOM      3  C   UNL     1      46.615   6.720  10.947  0.00  0.00    +0.000 C 
ENDROOT
BRANCH   1   7
ATOM      4  N   UNL     1      49.384   7.067  15.291  0.00  0.00    +0.000 N 
ATOM      5  C   UNL     1      48.344   6.224  14.851  0.00  0.00    +0.000 A 
ATOM      6  C   UNL     1      47.608   6.596  13.722  0.00  0.00    +0.000 A 
ATOM      7  C   UNL     1      46.524   5.809  13.301  0.00  0.00    +0.000 A 
ATOM      8  C   UNL     1      46.256   4.670  14.069  0.00  0.00    +0.000 A 
ATOM      9  C   UNL     1      47.079   4.336  15.126  0.00  0.00    +0.000 A 
ATOM     10  N   UNL     1      48.107   5.089  15.533  0.00  0.00    +0.000 NA
ATOM     11  H   UNL     1      50.176   6.867  14.681  0.00  0.00    +0.000 HD
BRANCH   4  16
ATOM     12  C   UNL     1      50.985   7.689  19.396  0.00  0.00    +0.000 C 
ATOM     13  C   UNL     1      50.948   8.305  17.998  0.00  0.00    +0.000 C 
ATOM     14  C   UNL     1      51.724   9.617  17.943  0.00  0.00    +0.000 C 
ATOM     15  C   UNL     1      49.520   8.395  17.394  0.00  0.00    +0.000 C 
ATOM     16  C   UNL     1      49.784   7.047  16.672  0.00  0.00    +0.000 C 
ATOM     17  C   UNL     1      51.294   7.317  16.842  0.00  0.00    +0.000 C 
ENDBRANCH   4  16
ENDBRANCH   1   7
BRANCH   1  18
ATOM     18  C   UNL     1      44.830   5.016  11.495  0.00  0.00    +0.000 C 
BRANCH  18  19
ATOM     19  N   UNL     1      44.534   5.140  10.063  0.00  0.00    +0.000 N 
ATOM     20  H   UNL     1      44.582   6.075   9.662  0.00  0.00    +0.000 HD
BRANCH  19  21
ATOM     21  C   UNL     1      45.207   4.284   9.196  0.00  0.00    +0.000 A 
ATOM     22  N   UNL     1      46.033   4.896   8.318  0.00  0.00    +0.000 NA
ATOM     23  C   UNL     1      46.704   4.113   7.428  0.00  0.00    +0.000 A 
ATOM     24  C   UNL     1      46.613   2.731   7.382  0.00  0.00    +0.000 A 
ATOM     25  C   UNL     1      45.776   2.112   8.310  0.00  0.00    +0.000 A 
ATOM     26  C   UNL     1      45.062   2.892   9.205  0.00  0.00    +0.000 A 
ATOM     27  F   UNL     1      44.271   2.277  10.098  0.00  0.00    +0.000 F 
BRANCH  24  28
ATOM     28  C   UNL     1      47.340   1.878   6.417  0.00  0.00    +0.000 C 
ATOM     29  N   UNL     1      48.091   2.465   5.433  0.00  0.00    +0.000 N 
ATOM     30  O   UNL     1      47.268   0.659   6.478  0.00  0.00    +0.000 OA
ATOM     31  H   UNL     1      48.215   3.449   5.291  0.00  0.00    +0.000 HD
ATOM     32  H   UNL     1      48.560   1.832   4.794  0.00  0.00    +0.000 HD
ENDBRANCH  24  28
ENDBRANCH  19  21
ENDBRANCH  18  19
ENDBRANCH   1  18
TORSDOF 6
ENDMDL
MODEL 6
REMARK VINA RESULT:    -7.540      1.823      2.224
REMARK INTER + INTRA:         -10.862
REMARK INTER:                 -10.037
REMARK INTRA:                  -0.825
REMARK UNBOUND:                -0.678
REMARK  Name = 
REMARK  10 active torsions:
REMARK  status: ('A' for Active; 'I' for Inactive)
REMARK    1  A    between atoms: C_1  and  C_2
REMARK    2  A    between atoms: C_2  and  C_3
REMARK    3  A    between atoms: C_5  and  N_6
REMARK    4  A    between atoms: C_9  and  C_10
REMARK    5  A    between atoms: C_10  and  C_11
REMARK    6  A    between atoms: C_10  and  C_12
REMARK    7  A    between atoms: C_10  and  C_13
REMARK    8  A    between atoms: C_13  and  N_14
REMARK    9  A    between atoms: N_14  and  C_15
REMARK   10  A    between atoms: C_18  and  C_19
REMARK                            x       y       z     vdW  Elec       q    Type
REMARK                         _______ _______ _______ _____ _____    ______ ____
ROOT
ATOM      1  C   UNL     1      45.542   7.034  11.776  0.00  0.00    +0.000 C 
ATOM      2  C   UNL     1      44.535   6.111  12.515  0.00  0.00    +0.000 C 
ATOM      3  C   UNL     1      44.987   8.477  11.787  0.00  0.00    +0.000 C 
ENDROOT
BRANCH   1   7
ATOM      4  N   UNL     1      48.270   6.693  15.931  0.00  0.00    +0.000 N 
ATOM      5  C   UNL     1      48.222   6.853  14.532  0.00  0.00    +0.000 A 
ATOM      6  C   UNL     1      46.975   6.897  13.902  0.00  0.00    +0.000 A 
ATOM      7  C   UNL     1      46.898   6.988  12.503  0.00  0.00    +0.000 A 
ATOM      8  C   UNL     1      48.120   7.035  11.823  0.00  0.00    +0.000 A 
ATOM      9  C   UNL     1      49.307   7.061  12.527  0.00  0.00    +0.000 A 
ATOM     10  N   UNL     1      49.382   6.965  13.859  0.00  0.00    +0.000 NA
ATOM     11  H   UNL     1      48.081   7.616  16.320  0.00  0.00    +0.000 HD
BRANCH   4  16
ATOM     12  C   UNL     1      51.364   4.659  18.399  0.00  0.00    +0.000 C 
ATOM     13  C   UNL     1      49.875   4.997  18.351  0.00  0.00    +0.000 C 
ATOM     14  C   UNL     1      49.137   4.454  19.571  0.00  0.00    +0.000 C 
ATOM     15  C   UNL     1      49.198   4.643  16.999  0.00  0.00    +0.000 C 
ATOM     16  C   UNL     1      49.432   6.107  16.544  0.00  0.00    +0.000 C 
ATOM     17  C   UNL     1      49.557   6.490  18.034  0.00  0.00    +0.000 C 
ENDBRANCH   4  16
ENDBRANCH   1   7
BRANCH   1  18
ATOM     18  C   UNL     1      45.600   6.528  10.298  0.00  0.00    +0.000 C 
BRANCH  18  19
ATOM     19  N   UNL     1      44.695   5.407  10.019  0.00  0.00    +0.000 N 
ATOM     20  H   UNL     1      43.814   5.631   9.559  0.00  0.00    +0.000 HD
BRANCH  19  21
ATOM     21  C   UNL     1      45.232   4.302   9.365  0.00  0.00    +0.000 A 
ATOM     22  N   UNL     1      46.060   4.593   8.337  0.00  0.00    +0.000 NA
ATOM     23  C   UNL     1      46.599   3.552   7.644  0.00  0.00    +0.000 A 
ATOM     24  C   UNL     1      46.374   2.217   7.941  0.00  0.00    +0.000 A 
ATOM     25  C   UNL     1      45.538   1.932   9.019  0.00  0.00    +0.000 A 
ATOM     26  C   UNL     1      44.955   2.976   9.720  0.00  0.00    +0.000 A 
ATOM     27  F   UNL     1      44.163   2.682  10.762  0.00  0.00    +0.000 F 
BRANCH  24  28
ATOM     28  C   UNL     1      46.958   1.084   7.190  0.00  0.00    +0.000 C 
ATOM     29  N   UNL     1      46.863  -0.183   7.703  0.00  0.00    +0.000 N 
ATOM     30  O   UNL     1      47.535   1.266   6.128  0.00  0.00    +0.000 OA
ATOM     31  H   UNL     1      46.417  -0.442   8.562  0.00  0.00    +0.000 HD
ATOM     32  H   UNL     1      47.290  -0.919   7.150  0.00  0.00    +0.000 HD
ENDBRANCH  24  28
ENDBRANCH  19  21
ENDBRANCH  18  19
ENDBRANCH   1  18
TORSDOF 6
ENDMDL
MODEL 7
REMARK VINA RESULT:    -6.834      3.256      5.013
REMARK INTER + INTRA:          -9.909
REMARK INTER:                  -8.868
REMARK INTRA:                  -1.041
REMARK UNBOUND:                -0.678
REMARK  Name = 
REMARK  10 active torsions:
REMARK  status: ('A' for Active; 'I' for Inactive)
REMARK    1  A    between atoms: C_1  and  C_2
REMARK    2  A    between atoms: C_2  and  C_3
REMARK    3  A    between atoms: C_5  and  N_6
REMARK    4  A    between atoms: C_9  and  C_10
REMARK    5  A    between atoms: C_10  and  C_11
REMARK    6  A    between atoms: C_10  and  C_12
REMARK    7  A    between atoms: C_10  and  C_13
REMARK    8  A    between atoms: C_13  and  N_14
REMARK    9  A    between atoms: N_14  and  C_15
REMARK   10  A    between atoms: C_18  and  C_19
REMARK                            x       y       z     vdW  Elec       q    Type
REMARK                         _______ _______ _______ _____ _____    ______ ____
ROOT
ATOM      1  C   UNL     1      48.097   8.452  12.668  0.00  0.00    +0.000 C 
ATOM      2  C   UNL     1      48.702   9.805  12.206  0.00  0.00    +0.000 C 
ATOM      3  C   UNL     1      48.732   7.317  11.833  0.00  0.00    +0.000 C 
ENDROOT
BRANCH   1   7
ATOM      4  N   UNL     1      49.374   5.539  16.503  0.00  0.00    +0.000 N 
ATOM      5  C   UNL     1      49.001   6.813  16.030  0.00  0.00    +0.000 A 
ATOM      6  C   UNL     1      48.718   6.970  14.671  0.00  0.00    +0.000 A 
ATOM      7  C   UNL     1      48.409   8.241  14.161  0.00  0.00    +0.000 A 
ATOM      8  C   UNL     1      48.403   9.290  15.088  0.00  0.00    +0.000 A 
ATOM      9  C   UNL     1      48.622   9.036  16.427  0.00  0.00    +0.000 A 
ATOM     10  N   UNL     1      48.925   7.827  16.912  0.00  0.00    +0.000 NA
ATOM     11  H   UNL     1      48.504   5.016  16.601  0.00  0.00    +0.000 HD
BRANCH   4  16
ATOM     12  C   UNL     1      52.165   4.546  19.824  0.00  0.00    +0.000 C 
ATOM     13  C   UNL     1      51.707   4.086  18.440  0.00  0.00    +0.000 C 
ATOM     14  C   UNL     1      52.458   2.837  17.988  0.00  0.00    +0.000 C 
ATOM     15  C   UNL     1      51.683   5.222  17.382  0.00  0.00    +0.000 C 
ATOM     16  C   UNL     1      50.177   5.424  17.691  0.00  0.00    +0.000 C 
ATOM     17  C   UNL     1      50.161   3.991  18.265  0.00  0.00    +0.000 C 
ENDBRANCH   4  16
ENDBRANCH   1   7
BRANCH   1  18
ATOM     18  C   UNL     1      46.569   8.520  12.346  0.00  0.00    +0.000 C 
BRANCH  18  19
ATOM     19  N   UNL     1      45.740   7.681  13.219  0.00  0.00    +0.000 N 
ATOM     20  H   UNL     1      44.932   8.125  13.651  0.00  0.00    +0.000 HD
BRANCH  19  21
ATOM     21  C   UNL     1      45.316   6.457  12.712  0.00  0.00    +0.000 A 
ATOM     22  N   UNL     1      44.570   6.532  11.587  0.00  0.00    +0.000 NA
ATOM     23  C   UNL     1      44.106   5.368  11.055  0.00  0.00    +0.000 A 
ATOM     24  C   UNL     1      44.370   4.112  11.577  0.00  0.00    +0.000 A 
ATOM     25  C   UNL     1      45.162   4.047  12.723  0.00  0.00    +0.000 A 
ATOM     26  C   UNL     1      45.619   5.222  13.298  0.00  0.00    +0.000 A 
ATOM     27  F   UNL     1      46.389   5.139  14.393  0.00  0.00    +0.000 F 
BRANCH  24  28
ATOM     28  C   UNL     1      43.868   2.845  11.002  0.00  0.00    +0.000 C 
ATOM     29  N   UNL     1      44.490   2.312   9.904  0.00  0.00    +0.000 N 
ATOM     30  O   UNL     1      42.898   2.278  11.483  0.00  0.00    +0.000 OA
ATOM     31  H   UNL     1      45.287   2.694   9.431  0.00  0.00    +0.000 HD
ATOM     32  H   UNL     1      44.097   1.447   9.546  0.00  0.00    +0.000 HD
ENDBRANCH  24  28
ENDBRANCH  19  21
ENDBRANCH  18  19
ENDBRANCH   1  18
TORSDOF 6
ENDMDL
MODEL 8
REMARK VINA RESULT:    -6.706      3.897      8.452
REMARK INTER + INTRA:          -9.735
REMARK INTER:                  -8.393
REMARK INTRA:                  -1.342
REMARK UNBOUND:                -0.678
REMARK  Name = 
REMARK  10 active torsions:
REMARK  status: ('A' for Active; 'I' for Inactive)
REMARK    1  A    between atoms: C_1  and  C_2
REMARK    2  A    between atoms: C_2  and  C_3
REMARK    3  A    between atoms: C_5  and  N_6
REMARK    4  A    between atoms: C_9  and  C_10
REMARK    5  A    between atoms: C_10  and  C_11
REMARK    6  A    between atoms: C_10  and  C_12
REMARK    7  A    between atoms: C_10  and  C_13
REMARK    8  A    between atoms: C_13  and  N_14
REMARK    9  A    between atoms: N_14  and  C_15
REMARK   10  A    between atoms: C_18  and  C_19
REMARK                            x       y       z     vdW  Elec       q    Type
REMARK                         _______ _______ _______ _____ _____    ______ ____
ROOT
ATOM      1  C   UNL     1      49.290   9.012  16.045  0.00  0.00    +0.000 C 
ATOM      2  C   UNL     1      49.875  10.342  15.496  0.00  0.00    +0.000 C 
ATOM      3  C   UNL     1      47.984   9.328  16.810  0.00  0.00    +0.000 C 
ENDROOT
BRANCH   1   7
ATOM      4  N   UNL     1      46.435   5.621  13.771  0.00  0.00    +0.000 N 
ATOM      5  C   UNL     1      47.614   6.392  13.779  0.00  0.00    +0.000 A 
ATOM      6  C   UNL     1      47.859   7.237  14.865  0.00  0.00    +0.000 A 
ATOM      7  C   UNL     1      48.992   8.066  14.868  0.00  0.00    +0.000 A 
ATOM      8  C   UNL     1      49.822   7.976  13.745  0.00  0.00    +0.000 A 
ATOM      9  C   UNL     1      49.546   7.061  12.748  0.00  0.00    +0.000 A 
ATOM     10  N   UNL     1      48.462   6.277  12.740  0.00  0.00    +0.000 NA
ATOM     11  H   UNL     1      46.624   4.823  14.378  0.00  0.00    +0.000 HD
BRANCH   4  16
ATOM     12  C   UNL     1      44.001   4.529  10.210  0.00  0.00    +0.000 C 
ATOM     13  C   UNL     1      43.904   5.125  11.613  0.00  0.00    +0.000 C 
ATOM     14  C   UNL     1      42.469   5.506  11.963  0.00  0.00    +0.000 C 
ATOM     15  C   UNL     1      44.937   6.253  11.884  0.00  0.00    +0.000 C 
ATOM     16  C   UNL     1      45.871   5.190  12.520  0.00  0.00    +0.000 C 
ATOM     17  C   UNL     1      44.627   4.300  12.722  0.00  0.00    +0.000 C 
ENDBRANCH   4  16
ENDBRANCH   1   7
BRANCH   1  18
ATOM     18  C   UNL     1      50.342   8.452  17.056  0.00  0.00    +0.000 C 
BRANCH  18  19
ATOM     19  N   UNL     1      49.773   7.556  18.069  0.00  0.00    +0.000 N 
ATOM     20  H   UNL     1      48.816   7.744  18.364  0.00  0.00    +0.000 HD
BRANCH  19  21
ATOM     21  C   UNL     1      49.871   6.187  17.837  0.00  0.00    +0.000 A 
ATOM     22  N   UNL     1      51.131   5.722  17.685  0.00  0.00    +0.000 NA
ATOM     23  C   UNL     1      51.290   4.393  17.434  0.00  0.00    +0.000 A 
ATOM     24  C   UNL     1      50.246   3.485  17.349  0.00  0.00    +0.000 A 
ATOM     25  C   UNL     1      48.954   3.974  17.533  0.00  0.00    +0.000 A 
ATOM     26  C   UNL     1      48.768   5.329  17.760  0.00  0.00    +0.000 A 
ATOM     27  F   UNL     1      47.518   5.779  17.947  0.00  0.00    +0.000 F 
BRANCH  24  28
ATOM     28  C   UNL     1      50.416   2.041  17.076  0.00  0.00    +0.000 C 
ATOM     29  N   UNL     1      51.197   1.286  17.911  0.00  0.00    +0.000 N 
ATOM     30  O   UNL     1      49.880   1.518  16.110  0.00  0.00    +0.000 OA
ATOM     31  H   UNL     1      51.682   1.613  18.724  0.00  0.00    +0.000 HD
ATOM     32  H   UNL     1      51.285   0.304  17.670  0.00  0.00    +0.000 HD
ENDBRANCH  24  28
ENDBRANCH  19  21
ENDBRANCH  18  19
ENDBRANCH   1  18
TORSDOF 6
ENDMDL
MODEL 9
REMARK VINA RESULT:    -6.659      5.311      7.738
REMARK INTER + INTRA:          -9.672
REMARK INTER:                  -8.836
REMARK INTRA:                  -0.836
REMARK UNBOUND:                -0.678
REMARK  Name = 
REMARK  10 active torsions:
REMARK  status: ('A' for Active; 'I' for Inactive)
REMARK    1  A    between atoms: C_1  and  C_2
REMARK    2  A    between atoms: C_2  and  C_3
REMARK    3  A    between atoms: C_5  and  N_6
REMARK    4  A    between atoms: C_9  and  C_10
REMARK    5  A    between atoms: C_10  and  C_11
REMARK    6  A    between atoms: C_10  and  C_12
REMARK    7  A    between atoms: C_10  and  C_13
REMARK    8  A    between atoms: C_13  and  N_14
REMARK    9  A    between atoms: N_14  and  C_15
REMARK   10  A    between atoms: C_18  and  C_19
REMARK                            x       y       z     vdW  Elec       q    Type
REMARK                         _______ _______ _______ _____ _____    ______ ____
ROOT
ATOM      1  C   UNL     1      48.432   8.995  12.864  0.00  0.00    +0.000 C 
ATOM      2  C   UNL     1      48.628   9.657  14.255  0.00  0.00    +0.000 C 
ATOM      3  C   UNL     1      47.320   9.757  12.108  0.00  0.00    +0.000 C 
ENDROOT
BRANCH   1   7
ATOM      4  N   UNL     1      52.125   6.866  10.285  0.00  0.00    +0.000 N 
ATOM      5  C   UNL     1      51.563   8.030  10.845  0.00  0.00    +0.000 A 
ATOM      6  C   UNL     1      50.368   7.923  11.562  0.00  0.00    +0.000 A 
ATOM      7  C   UNL     1      49.752   9.076  12.074  0.00  0.00    +0.000 A 
ATOM      8  C   UNL     1      50.407  10.287  11.823  0.00  0.00    +0.000 A 
ATOM      9  C   UNL     1      51.623  10.296  11.169  0.00  0.00    +0.000 A 
ATOM     10  N   UNL     1      52.207   9.199  10.673  0.00  0.00    +0.000 NA
ATOM     11  H   UNL     1      52.602   6.394  11.053  0.00  0.00    +0.000 HD
BRANCH   4  16
ATOM     12  C   UNL     1      54.527   6.451   6.562  0.00  0.00    +0.000 C 
ATOM     13  C   UNL     1      53.533   5.713   7.457  0.00  0.00    +0.000 C 
ATOM     14  C   UNL     1      53.212   4.324   6.913  0.00  0.00    +0.000 C 
ATOM     15  C   UNL     1      52.277   6.551   7.818  0.00  0.00    +0.000 C 
ATOM     16  C   UNL     1      52.983   6.969   9.135  0.00  0.00    +0.000 C 
ATOM     17  C   UNL     1      53.889   5.729   8.975  0.00  0.00    +0.000 C 
ENDBRANCH   4  16
ENDBRANCH   1   7
BRANCH   1  18
ATOM     18  C   UNL     1      47.947   7.535  13.136  0.00  0.00    +0.000 C 
BRANCH  18  19
ATOM     19  N   UNL     1      46.499   7.421  13.350  0.00  0.00    +0.000 N 
ATOM     20  H   UNL     1      45.940   8.253  13.166  0.00  0.00    +0.000 HD
BRANCH  19  21
ATOM     21  C   UNL     1      45.848   6.347  12.751  0.00  0.00    +0.000 A 
ATOM     22  N   UNL     1      46.085   5.145  13.324  0.00  0.00    +0.000 NA
ATOM     23  C   UNL     1      45.492   4.052  12.769  0.00  0.00    +0.000 A 
ATOM     24  C   UNL     1      44.645   4.095  11.673  0.00  0.00    +0.000 A 
ATOM     25  C   UNL     1      44.389   5.345  11.109  0.00  0.00    +0.000 A 
ATOM     26  C   UNL     1      45.006   6.467  11.640  0.00  0.00    +0.000 A 
ATOM     27  F   UNL     1      44.738   7.661  11.091  0.00  0.00    +0.000 F 
BRANCH  24  28
ATOM     28  C   UNL     1      43.999   2.910  11.068  0.00  0.00    +0.000 C 
ATOM     29  N   UNL     1      44.572   2.318   9.973  0.00  0.00    +0.000 N 
ATOM     30  O   UNL     1      42.957   2.461  11.523  0.00  0.00    +0.000 OA
ATOM     31  H   UNL     1      45.419   2.604   9.521  0.00  0.00    +0.000 HD
ATOM     32  H   UNL     1      44.081   1.514   9.594  0.00  0.00    +0.000 HD
ENDBRANCH  24  28
ENDBRANCH  19  21
ENDBRANCH  18  19
ENDBRANCH   1  18
TORSDOF 6
ENDMDL
