MODEL 1
REMARK VINA RESULT:    -7.927      0.000      0.000
REMARK INTER + INTRA:         -13.128
REMARK INTER:                 -12.098
REMARK INTRA:                  -1.030
REMARK UNBOUND:                -1.030
REMARK  Name = 
REMARK  10 active torsions:
REMARK  status: ('A' for Active; 'I' for Inactive)
REMARK    1  A    between atoms: C_1  and  O_2
REMARK    2  A    between atoms: O_2  and  C_3
REMARK    3  A    between atoms: C_3  and  C_4
REMARK    4  A    between atoms: C_4  and  N_5
REMARK    5  A    between atoms: N_5  and  C_6
REMARK    6  A    between atoms: C_6  and  C_7
REMARK    7  A    between atoms: C_7  and  C_8
REMARK    8  A    between atoms: N_14  and  C_15
REMARK    9  A    between atoms: C_15  and  C_16
REMARK   10  A    between atoms: C_19  and  C_20
REMARK                            x       y       z     vdW  Elec       q    Type
REMARK                         _______ _______ _______ _____ _____    ______ ____
ROOT
ATOM      1  C   UNL     1      44.931   8.827  11.650  0.00  0.00    +0.000 A 
ATOM      2  C   UNL     1      45.848   8.853  12.706  0.00  0.00    +0.000 A 
ATOM      3  N   UNL     1      46.324   7.759  13.335  0.00  0.00    +0.000 NA
ATOM      4  C   UNL     1      45.827   6.604  12.827  0.00  0.00    +0.000 A 
ATOM      5  C   UNL     1      46.097   5.272  13.204  0.00  0.00    +0.000 A 
ATOM      6  C   UNL     1      45.366   4.454  12.367  0.00  0.00    +0.000 A 
ATOM      7  N   UNL     1      44.666   5.253  11.486  0.00  0.00    +0.000 N 
ATOM      8  C   UNL     1      44.915   6.580  11.769  0.00  0.00    +0.000 A 
ATOM      9  N   UNL     1      44.416   7.672  11.138  0.00  0.00    +0.000 NA
ENDROOT
BRANCH   1  10
ATOM     10  C   UNL     1      44.512  10.127  11.003  0.00  0.00    +0.000 C 
BRANCH  10  11
ATOM     11  C   UNL     1      43.127  10.577  11.489  0.00  0.00    +0.000 C 
BRANCH  11  12
ATOM     12  N   UNL     1      42.076   9.679  11.002  0.00  0.00    +0.000 NA
ATOM     13  H   UNL     1      42.433   9.130  10.219  0.00  0.00    +0.000 HD
BRANCH  12  14
ATOM     14  C   UNL     1      40.906  10.451  10.560  0.00  0.00    +0.000 C 
BRANCH  14  15
ATOM     15  C   UNL     1      39.942  10.712  11.720  0.00  0.00    +0.000 C 
BRANCH  15  17
ATOM     16  C   UNL     1      37.955   9.963  10.708  0.00  0.00    +0.000 C 
ATOM     17  O   UNL     1      38.922   9.711  11.718  0.00  0.00    +0.000 OA
ENDBRANCH  15  17
ENDBRANCH  14  15
ENDBRANCH  12  14
ENDBRANCH  11  12
ENDBRANCH  10  11
ENDBRANCH   1  10
BRANCH   7  18
ATOM     18  C   UNL     1      43.822   4.732  10.416  0.00  0.00    +0.000 C 
BRANCH  18  19
ATOM     19  C   UNL     1      44.634   3.918   9.443  0.00  0.00    +0.000 A 
ATOM     20  C   UNL     1      45.487   4.551   8.532  0.00  0.00    +0.000 A 
ATOM     21  C   UNL     1      46.365   3.799   7.744  0.00  0.00    +0.000 A 
ATOM     22  C   UNL     1      46.383   2.401   7.835  0.00  0.00    +0.000 A 
ATOM     23  C   UNL     1      45.492   1.763   8.705  0.00  0.00    +0.000 A 
ATOM     24  C   UNL     1      44.631   2.522   9.491  0.00  0.00    +0.000 A 
ATOM     25  F   UNL     1      43.792   1.887  10.325  0.00  0.00    +0.000 F 
BRANCH  22  26
ATOM     26  C   UNL     1      47.320   1.548   7.048  0.00  0.00    +0.000 C 
ATOM     27  N   UNL     1      48.401   2.139   6.457  0.00  0.00    +0.000 N 
ATOM     28  O   UNL     1      47.141   0.347   6.930  0.00  0.00    +0.000 OA
ATOM     29  H   UNL     1      48.657   3.112   6.538  0.00  0.00    +0.000 HD
ATOM     30  H   UNL     1      49.027   1.533   5.947  0.00  0.00    +0.000 HD
ENDBRANCH  22  26
ENDBRANCH  18  19
ENDBRANCH   7  18
TORSDOF 9
ENDMDL
MODEL 2
REMARK VINA RESULT:    -7.591      1.847      2.226
REMARK INTER + INTRA:         -12.616
REMARK INTER:                 -11.533
REMARK INTRA:                  -1.083
REMARK UNBOUND:                -1.030
REMARK  Name = 
REMARK  10 active torsions:
REMARK  status: ('A' for Active; 'I' for Inactive)
REMARK    1  A    between atoms: C_1  and  O_2
REMARK    2  A    between atoms: O_2  and  C_3
REMARK    3  A    between atoms: C_3  and  C_4
REMARK    4  A    between atoms: C_4  and  N_5
REMARK    5  A    between atoms: N_5  and  C_6
REMARK    6  A    between atoms: C_6  and  C_7
REMARK    7  A    between atoms: C_7  and  C_8
REMARK    8  A    between atoms: N_14  and  C_15
REMARK    9  A    between atoms: C_15  and  C_16
REMARK   10  A    between atoms: C_19  and  C_20
REMARK                            x       y       z     vdW  Elec       q    Type
REMARK                         _______ _______ _______ _____ _____    ______ ____
ROOT
ATOM      1  C   UNL     1      45.920   8.341  12.249  0.00  0.00    +0.000 A 
ATOM      2  C   UNL     1      46.784   8.088  13.320  0.00  0.00    +0.000 A 
ATOM      3  N   UNL     1      47.026   6.867  13.837  0.00  0.00    +0.000 NA
ATOM      4  C   UNL     1      46.347   5.882  13.198  0.00  0.00    +0.000 A 
ATOM      5  C   UNL     1      46.355   4.492  13.435  0.00  0.00    +0.000 A 
ATOM      6  C   UNL     1      45.521   3.913  12.501  0.00  0.00    +0.000 A 
ATOM      7  N   UNL     1      45.015   4.914  11.697  0.00  0.00    +0.000 N 
ATOM      8  C   UNL     1      45.490   6.136  12.126  0.00  0.00    +0.000 A 
ATOM      9  N   UNL     1      45.224   7.360  11.605  0.00  0.00    +0.000 NA
ENDROOT
BRANCH   1  10
ATOM     10  C   UNL     1      45.772   9.755  11.736  0.00  0.00    +0.000 C 
BRANCH  10  11
ATOM     11  C   UNL     1      44.298  10.119  11.509  0.00  0.00    +0.000 C 
BRANCH  11  12
ATOM     12  N   UNL     1      43.820   9.621  10.217  0.00  0.00    +0.000 NA
ATOM     13  H   UNL     1      44.554   9.734   9.516  0.00  0.00    +0.000 HD
BRANCH  12  14
ATOM     14  C   UNL     1      42.625  10.362   9.791  0.00  0.00    +0.000 C 
BRANCH  14  15
ATOM     15  C   UNL     1      42.930  11.270   8.596  0.00  0.00    +0.000 C 
BRANCH  15  17
ATOM     16  C   UNL     1      43.693  11.068   6.380  0.00  0.00    +0.000 C 
ATOM     17  O   UNL     1      43.831  10.598   7.714  0.00  0.00    +0.000 OA
ENDBRANCH  15  17
ENDBRANCH  14  15
ENDBRANCH  12  14
ENDBRANCH  11  12
ENDBRANCH  10  11
ENDBRANCH   1  10
BRANCH   7  18
ATOM     18  C   UNL     1      44.133   4.670  10.560  0.00  0.00    +0.000 C 
BRANCH  18  19
ATOM     19  C   UNL     1      44.863   3.935   9.466  0.00  0.00    +0.000 A 
ATOM     20  C   UNL     1      45.674   4.633   8.565  0.00  0.00    +0.000 A 
ATOM     21  C   UNL     1      46.481   3.940   7.656  0.00  0.00    +0.000 A 
ATOM     22  C   UNL     1      46.469   2.540   7.617  0.00  0.00    +0.000 A 
ATOM     23  C   UNL     1      45.617   1.841   8.479  0.00  0.00    +0.000 A 
ATOM     24  C   UNL     1      44.826   2.540   9.385  0.00  0.00    +0.000 A 
ATOM     25  F   UNL     1      44.024   1.847  10.208  0.00  0.00    +0.000 F 
BRANCH  22  26
ATOM     26  C   UNL     1      47.333   1.746   6.697  0.00  0.00    +0.000 C 
ATOM     27  N   UNL     1      48.373   2.375   6.071  0.00  0.00    +0.000 N 
ATOM     28  O   UNL     1      47.132   0.559   6.500  0.00  0.00    +0.000 OA
ATOM     29  H   UNL     1      48.645   3.338   6.207  0.00  0.00    +0.000 HD
ATOM     30  H   UNL     1      48.951   1.808   5.469  0.00  0.00    +0.000 HD
ENDBRANCH  22  26
ENDBRANCH  18  19
ENDBRANCH   7  18
TORSDOF 9
ENDMDL
MODEL 3
REMARK VINA RESULT:    -7.380      2.303      3.023
REMARK INTER + INTRA:         -12.293
REMARK INTER:                 -11.137
REMARK INTRA:                  -1.156
REMARK UNBOUND:                -1.030
REMARK  Name = 
REMARK  10 active torsions:
REMARK  status: ('A' for Active; 'I' for Inactive)
REMARK    1  A    between atoms: C_1  and  O_2
REMARK    2  A    between atoms: O_2  and  C_3
REMARK    3  A    between atoms: C_3  and  C_4
REMARK    4  A    between atoms: C_4  and  N_5
REMARK    5  A    between atoms: N_5  and  C_6
REMARK    6  A    between atoms: C_6  and  C_7
REMARK    7  A    between atoms: C_7  and  C_8
REMARK    8  A    between atoms: N_14  and  C_15
REMARK    9  A    between atoms: C_15  and  C_16
REMARK   10  A    between atoms: C_19  and  C_20
REMARK                            x       y       z     vdW  Elec       q    Type
REMARK                         _______ _______ _______ _____ _____    ______ ____
ROOT
ATOM      1  C   UNL     1      47.916   7.035  12.087  0.00  0.00    +0.000 A 
ATOM      2  C   UNL     1      48.278   6.559  13.351  0.00  0.00    +0.000 A 
ATOM      3  N   UNL     1      47.604   5.614  14.036  0.00  0.00    +0.000 NA
ATOM      4  C   UNL     1      46.522   5.150  13.363  0.00  0.00    +0.000 A 
ATOM      5  C   UNL     1      45.591   4.159  13.740  0.00  0.00    +0.000 A 
ATOM      6  C   UNL     1      44.692   4.026  12.703  0.00  0.00    +0.000 A 
ATOM      7  N   UNL     1      45.057   4.902  11.701  0.00  0.00    +0.000 N 
ATOM      8  C   UNL     1      46.165   5.622  12.099  0.00  0.00    +0.000 A 
ATOM      9  N   UNL     1      46.824   6.583  11.405  0.00  0.00    +0.000 NA
ENDROOT
BRANCH   1  10
ATOM     10  C   UNL     1      48.787   8.068  11.407  0.00  0.00    +0.000 C 
BRANCH  10  11
ATOM     11  C   UNL     1      48.486   9.483  11.919  0.00  0.00    +0.000 C 
BRANCH  11  12
ATOM     12  N   UNL     1      47.064   9.641  12.238  0.00  0.00    +0.000 NA
ATOM     13  H   UNL     1      46.562   8.788  11.989  0.00  0.00    +0.000 HD
BRANCH  12  14
ATOM     14  C   UNL     1      46.495  10.773  11.495  0.00  0.00    +0.000 C 
BRANCH  14  15
ATOM     15  C   UNL     1      44.984  10.883  11.720  0.00  0.00    +0.000 C 
BRANCH  15  17
ATOM     16  C   UNL     1      43.446   9.522  10.572  0.00  0.00    +0.000 C 
ATOM     17  O   UNL     1      44.306  10.650  10.484  0.00  0.00    +0.000 OA
ENDBRANCH  15  17
ENDBRANCH  14  15
ENDBRANCH  12  14
ENDBRANCH  11  12
ENDBRANCH  10  11
ENDBRANCH   1  10
BRANCH   7  18
ATOM     18  C   UNL     1      44.364   5.003  10.421  0.00  0.00    +0.000 C 
BRANCH  18  19
ATOM     19  C   UNL     1      45.055   4.172   9.372  0.00  0.00    +0.000 A 
ATOM     20  C   UNL     1      45.896   4.777   8.433  0.00  0.00    +0.000 A 
ATOM     21  C   UNL     1      46.668   3.996   7.566  0.00  0.00    +0.000 A 
ATOM     22  C   UNL     1      46.589   2.598   7.608  0.00  0.00    +0.000 A 
ATOM     23  C   UNL     1      45.708   1.991   8.509  0.00  0.00    +0.000 A 
ATOM     24  C   UNL     1      44.952   2.778   9.373  0.00  0.00    +0.000 A 
ATOM     25  F   UNL     1      44.120   2.172  10.234  0.00  0.00    +0.000 F 
BRANCH  22  26
ATOM     26  C   UNL     1      47.413   1.711   6.736  0.00  0.00    +0.000 C 
ATOM     27  N   UNL     1      48.513   2.240   6.120  0.00  0.00    +0.000 N 
ATOM     28  O   UNL     1      47.128   0.537   6.570  0.00  0.00    +0.000 OA
ATOM     29  H   UNL     1      48.854   3.184   6.233  0.00  0.00    +0.000 HD
ATOM     30  H   UNL     1      49.060   1.612   5.551  0.00  0.00    +0.000 HD
ENDBRANCH  22  26
ENDBRANCH  18  19
ENDBRANCH   7  18
TORSDOF 9
ENDMDL
MODEL 4
REMARK VINA RESULT:    -7.319      3.583      6.113
REMARK INTER + INTRA:         -12.200
REMARK INTER:                 -11.302
REMARK INTRA:                  -0.899
REMARK UNBOUND:                -1.030
REMARK  Name = 
REMARK  10 active torsions:
REMARK  status: ('A' for Active; 'I' for Inactive)
REMARK    1  A    between atoms: C_1  and  O_2
REMARK    2  A    between atoms: O_2  and  C_3
REMARK    3  A    between atoms: C_3  and  C_4
REMARK    4  A    between atoms: C_4  and  N_5
REMARK    5  A    between atoms: N_5  and  C_6
REMARK    6  A    between atoms: C_6  and  C_7
REMARK    7  A    between atoms: C_7  and  C_8
REMARK    8  A    between atoms: N_14  and  C_15
REMARK    9  A    between atoms: C_15  and  C_16
REMARK   10  A    between atoms: C_19  and  C_20
REMARK                            x       y       z     vdW  Elec       q    Type
REMARK                         _______ _______ _______ _____ _____    ______ ____
ROOT
ATOM      1  C   UNL     1      46.882   4.513  13.826  0.00  0.00    +0.000 A 
ATOM      2  C   UNL     1      47.400   5.755  14.208  0.00  0.00    +0.000 A 
ATOM      3  N   UNL     1      47.077   6.930  13.631  0.00  0.00    +0.000 NA
ATOM      4  C   UNL     1      46.171   6.792  12.631  0.00  0.00    +0.000 A 
ATOM      5  C   UNL     1      45.583   7.780  11.815  0.00  0.00    +0.000 A 
ATOM      6  C   UNL     1      44.703   7.140  10.967  0.00  0.00    +0.000 A 
ATOM      7  N   UNL     1      44.734   5.790  11.253  0.00  0.00    +0.000 N 
ATOM      8  C   UNL     1      45.650   5.552  12.255  0.00  0.00    +0.000 A 
ATOM      9  N   UNL     1      45.978   4.361  12.815  0.00  0.00    +0.000 NA
ENDROOT
BRANCH   1  10
ATOM     10  C   UNL     1      47.296   3.273  14.587  0.00  0.00    +0.000 C 
BRANCH  10  11
ATOM     11  C   UNL     1      47.843   3.623  15.977  0.00  0.00    +0.000 C 
BRANCH  11  12
ATOM     12  N   UNL     1      46.770   3.677  16.973  0.00  0.00    +0.000 NA
ATOM     13  H   UNL     1      45.920   4.039  16.539  0.00  0.00    +0.000 HD
BRANCH  12  14
ATOM     14  C   UNL     1      47.152   4.548  18.093  0.00  0.00    +0.000 C 
BRANCH  14  15
ATOM     15  C   UNL     1      48.399   5.371  17.756  0.00  0.00    +0.000 C 
BRANCH  15  17
ATOM     16  C   UNL     1      48.819   4.960  20.034  0.00  0.00    +0.000 C 
ATOM     17  O   UNL     1      49.399   5.134  18.748  0.00  0.00    +0.000 OA
ENDBRANCH  15  17
ENDBRANCH  14  15
ENDBRANCH  12  14
ENDBRANCH  11  12
ENDBRANCH  10  11
ENDBRANCH   1  10
BRANCH   7  18
ATOM     18  C   UNL     1      43.890   4.802  10.588  0.00  0.00    +0.000 C 
BRANCH  18  19
ATOM     19  C   UNL     1      44.680   4.022   9.570  0.00  0.00    +0.000 A 
ATOM     20  C   UNL     1      45.490   4.688   8.644  0.00  0.00    +0.000 A 
ATOM     21  C   UNL     1      46.351   3.967   7.809  0.00  0.00    +0.000 A 
ATOM     22  C   UNL     1      46.395   2.568   7.871  0.00  0.00    +0.000 A 
ATOM     23  C   UNL     1      45.547   1.897   8.757  0.00  0.00    +0.000 A 
ATOM     24  C   UNL     1      44.701   2.625   9.589  0.00  0.00    +0.000 A 
ATOM     25  F   UNL     1      43.903   1.959  10.438  0.00  0.00    +0.000 F 
BRANCH  22  26
ATOM     26  C   UNL     1      47.318   1.747   7.034  0.00  0.00    +0.000 C 
ATOM     27  N   UNL     1      48.376   2.366   6.429  0.00  0.00    +0.000 N 
ATOM     28  O   UNL     1      47.147   0.548   6.887  0.00  0.00    +0.000 OA
ATOM     29  H   UNL     1      48.624   3.339   6.529  0.00  0.00    +0.000 HD
ATOM     30  H   UNL     1      48.992   1.781   5.884  0.00  0.00    +0.000 HD
ENDBRANCH  22  26
ENDBRANCH  18  19
ENDBRANCH   7  18
TORSDOF 9
ENDMDL
MODEL 5
REMARK VINA RESULT:    -7.021      4.163      5.713
REMARK INTER + INTRA:         -11.746
REMARK INTER:                 -10.783
REMARK INTRA:                  -0.963
REMARK UNBOUND:                -1.030
REMARK  Name = 
REMARK  10 active torsions:
REMARK  status: ('A' for Active; 'I' for Inactive)
REMARK    1  A    between atoms: C_1  and  O_2
REMARK    2  A    between atoms: O_2  and  C_3
REMARK    3  A    between atoms: C_3  and  C_4
REMARK    4  A    between atoms: C_4  and  N_5
REMARK    5  A    between atoms: N_5  and  C_6
REMARK    6  A    between atoms: C_6  and  C_7
REMARK    7  A    between atoms: C_7  and  C_8
REMARK    8  A    between atoms: N_14  and  C_15
REMARK    9  A    between atoms: C_15  and  C_16
REMARK   10  A    between atoms: C_19  and  C_20
REMARK                            x       y       z     vdW  Elec       q    Type
REMARK                         _______ _______ _______ _____ _____    ______ ____
ROOT
ATOM      1  C   UNL     1      47.935   7.057  12.108  0.00  0.00    +0.000 A 
ATOM      2  C   UNL     1      48.306   6.574  13.367  0.00  0.00    +0.000 A 
ATOM      3  N   UNL     1      47.642   5.619  14.048  0.00  0.00    +0.000 NA
ATOM      4  C   UNL     1      46.561   5.151  13.376  0.00  0.00    +0.000 A 
ATOM      5  C   UNL     1      45.639   4.151  13.750  0.00  0.00    +0.000 A 
ATOM      6  C   UNL     1      44.736   4.019  12.716  0.00  0.00    +0.000 A 
ATOM      7  N   UNL     1      45.090   4.907  11.719  0.00  0.00    +0.000 N 
ATOM      8  C   UNL     1      46.194   5.631  12.117  0.00  0.00    +0.000 A 
ATOM      9  N   UNL     1      46.843   6.602  11.427  0.00  0.00    +0.000 NA
ENDROOT
BRANCH   1  10
ATOM     10  C   UNL     1      48.794   8.101  11.432  0.00  0.00    +0.000 C 
BRANCH  10  11
ATOM     11  C   UNL     1      49.871   8.644  12.382  0.00  0.00    +0.000 C 
BRANCH  11  12
ATOM     12  N   UNL     1      51.187   8.079  12.072  0.00  0.00    +0.000 NA
ATOM     13  H   UNL     1      51.113   7.063  12.000  0.00  0.00    +0.000 HD
BRANCH  12  14
ATOM     14  C   UNL     1      52.153   8.421  13.125  0.00  0.00    +0.000 C 
BRANCH  14  15
ATOM     15  C   UNL     1      51.445   8.909  14.392  0.00  0.00    +0.000 C 
BRANCH  15  17
ATOM     16  C   UNL     1      51.084   7.094  15.845  0.00  0.00    +0.000 C 
ATOM     17  O   UNL     1      51.940   8.181  15.517  0.00  0.00    +0.000 OA
ENDBRANCH  15  17
ENDBRANCH  14  15
ENDBRANCH  12  14
ENDBRANCH  11  12
ENDBRANCH  10  11
ENDBRANCH   1  10
BRANCH   7  18
ATOM     18  C   UNL     1      44.390   5.012  10.443  0.00  0.00    +0.000 C 
BRANCH  18  19
ATOM     19  C   UNL     1      45.074   4.184   9.388  0.00  0.00    +0.000 A 
ATOM     20  C   UNL     1      45.916   4.791   8.450  0.00  0.00    +0.000 A 
ATOM     21  C   UNL     1      46.683   4.011   7.577  0.00  0.00    +0.000 A 
ATOM     22  C   UNL     1      46.597   2.613   7.611  0.00  0.00    +0.000 A 
ATOM     23  C   UNL     1      45.715   2.005   8.510  0.00  0.00    +0.000 A 
ATOM     24  C   UNL     1      44.965   2.790   9.380  0.00  0.00    +0.000 A 
ATOM     25  F   UNL     1      44.132   2.184  10.240  0.00  0.00    +0.000 F 
BRANCH  22  26
ATOM     26  C   UNL     1      47.415   1.728   6.731  0.00  0.00    +0.000 C 
ATOM     27  N   UNL     1      48.510   2.258   6.108  0.00  0.00    +0.000 N 
ATOM     28  O   UNL     1      47.128   0.554   6.566  0.00  0.00    +0.000 OA
ATOM     29  H   UNL     1      48.852   3.202   6.220  0.00  0.00    +0.000 HD
ATOM     30  H   UNL     1      49.053   1.631   5.534  0.00  0.00    +0.000 HD
ENDBRANCH  22  26
ENDBRANCH  18  19
ENDBRANCH   7  18
TORSDOF 9
ENDMDL
MODEL 6
REMARK VINA RESULT:    -6.674      3.359      5.810
REMARK INTER + INTRA:         -11.216
REMARK INTER:                 -10.470
REMARK INTRA:                  -0.745
REMARK UNBOUND:                -1.030
REMARK  Name = 
REMARK  10 active torsions:
REMARK  status: ('A' for Active; 'I' for Inactive)
REMARK    1  A    between atoms: C_1  and  O_2
REMARK    2  A    between atoms: O_2  and  C_3
REMARK    3  A    between atoms: C_3  and  C_4
REMARK    4  A    between atoms: C_4  and  N_5
REMARK    5  A    between atoms: N_5  and  C_6
REMARK    6  A    between atoms: C_6  and  C_7
REMARK    7  A    between atoms: C_7  and  C_8
REMARK    8  A    between atoms: N_14  and  C_15
REMARK    9  A    between atoms: C_15  and  C_16
REMARK   10  A    between atoms: C_19  and  C_20
REMARK                            x       y       z     vdW  Elec       q    Type
REMARK                         _______ _______ _______ _____ _____    ______ ____
ROOT
ATOM      1  C   UNL     1      46.975   6.553  12.872  0.00  0.00    +0.000 A 
ATOM      2  C   UNL     1      46.421   7.827  13.034  0.00  0.00    +0.000 A 
ATOM      3  N   UNL     1      45.203   8.195  12.591  0.00  0.00    +0.000 NA
ATOM      4  C   UNL     1      44.543   7.186  11.969  0.00  0.00    +0.000 A 
ATOM      5  C   UNL     1      43.255   7.180  11.395  0.00  0.00    +0.000 A 
ATOM      6  C   UNL     1      43.028   5.908  10.913  0.00  0.00    +0.000 A 
ATOM      7  N   UNL     1      44.141   5.139  11.187  0.00  0.00    +0.000 N 
ATOM      8  C   UNL     1      45.095   5.913  11.813  0.00  0.00    +0.000 A 
ATOM      9  N   UNL     1      46.325   5.533  12.239  0.00  0.00    +0.000 NA
ENDROOT
BRANCH   1  10
ATOM     10  C   UNL     1      48.337   6.257  13.458  0.00  0.00    +0.000 C 
BRANCH  10  11
ATOM     11  C   UNL     1      48.251   5.963  14.961  0.00  0.00    +0.000 C 
BRANCH  11  12
ATOM     12  N   UNL     1      47.064   5.164  15.280  0.00  0.00    +0.000 NA
ATOM     13  H   UNL     1      46.275   5.785  15.463  0.00  0.00    +0.000 HD
BRANCH  12  14
ATOM     14  C   UNL     1      47.310   4.329  16.463  0.00  0.00    +0.000 C 
BRANCH  14  15
ATOM     15  C   UNL     1      48.127   3.084  16.106  0.00  0.00    +0.000 C 
BRANCH  15  17
ATOM     16  C   UNL     1      50.040   2.409  17.296  0.00  0.00    +0.000 C 
ATOM     17  O   UNL     1      48.621   2.486  17.305  0.00  0.00    +0.000 OA
ENDBRANCH  15  17
ENDBRANCH  14  15
ENDBRANCH  12  14
ENDBRANCH  11  12
ENDBRANCH  10  11
ENDBRANCH   1  10
BRANCH   7  18
ATOM     18  C   UNL     1      44.241   3.718  10.869  0.00  0.00    +0.000 C 
BRANCH  18  19
ATOM     19  C   UNL     1      44.947   3.513   9.554  0.00  0.00    +0.000 A 
ATOM     20  C   UNL     1      45.581   4.585   8.918  0.00  0.00    +0.000 A 
ATOM     21  C   UNL     1      46.376   4.368   7.788  0.00  0.00    +0.000 A 
ATOM     22  C   UNL     1      46.527   3.079   7.261  0.00  0.00    +0.000 A 
ATOM     23  C   UNL     1      45.849   2.013   7.862  0.00  0.00    +0.000 A 
ATOM     24  C   UNL     1      45.068   2.239   8.992  0.00  0.00    +0.000 A 
ATOM     25  F   UNL     1      44.435   1.199   9.556  0.00  0.00    +0.000 F 
BRANCH  22  26
ATOM     26  C   UNL     1      47.389   2.779   6.081  0.00  0.00    +0.000 C 
ATOM     27  N   UNL     1      48.686   2.404   6.299  0.00  0.00    +0.000 N 
ATOM     28  O   UNL     1      46.961   2.858   4.942  0.00  0.00    +0.000 OA
ATOM     29  H   UNL     1      49.115   2.265   7.202  0.00  0.00    +0.000 HD
ATOM     30  H   UNL     1      49.239   2.190   5.482  0.00  0.00    +0.000 HD
ENDBRANCH  22  26
ENDBRANCH  18  19
ENDBRANCH   7  18
TORSDOF 9
ENDMDL
MODEL 7
REMARK VINA RESULT:    -6.498      4.168      8.222
REMARK INTER + INTRA:         -10.947
REMARK INTER:                  -9.805
REMARK INTRA:                  -1.143
REMARK UNBOUND:                -1.030
REMARK  Name = 
REMARK  10 active torsions:
REMARK  status: ('A' for Active; 'I' for Inactive)
REMARK    1  A    between atoms: C_1  and  O_2
REMARK    2  A    between atoms: O_2  and  C_3
REMARK    3  A    between atoms: C_3  and  C_4
REMARK    4  A    between atoms: C_4  and  N_5
REMARK    5  A    between atoms: N_5  and  C_6
REMARK    6  A    between atoms: C_6  and  C_7
REMARK    7  A    between atoms: C_7  and  C_8
REMARK    8  A    between atoms: N_14  and  C_15
REMARK    9  A    between atoms: C_15  and  C_16
REMARK   10  A    between atoms: C_19  and  C_20
REMARK                            x       y       z     vdW  Elec       q    Type
REMARK                         _______ _______ _______ _____ _____    ______ ____
ROOT
ATOM      1  C   UNL     1      44.117   4.352  11.299  0.00  0.00    +0.000 A 
ATOM      2  C   UNL     1      43.189   5.365  11.035  0.00  0.00    +0.000 A 
ATOM      3  N   UNL     1      43.361   6.663  11.352  0.00  0.00    +0.000 NA
ATOM      4  C   UNL     1      44.552   6.904  11.953  0.00  0.00    +0.000 A 
ATOM      5  C   UNL     1      45.094   8.124  12.409  0.00  0.00    +0.000 A 
ATOM      6  C   UNL     1      46.345   7.850  12.921  0.00  0.00    +0.000 A 
ATOM      7  N   UNL     1      46.582   6.498  12.779  0.00  0.00    +0.000 N 
ATOM      8  C   UNL     1      45.481   5.893  12.210  0.00  0.00    +0.000 A 
ATOM      9  N   UNL     1      45.315   4.581  11.912  0.00  0.00    +0.000 NA
ENDROOT
BRANCH   1  10
ATOM     10  C   UNL     1      43.819   2.939  10.851  0.00  0.00    +0.000 C 
BRANCH  10  11
ATOM     11  C   UNL     1      44.742   2.507   9.703  0.00  0.00    +0.000 C 
BRANCH  11  12
ATOM     12  N   UNL     1      45.209   3.663   8.932  0.00  0.00    +0.000 NA
ATOM     13  H   UNL     1      44.512   4.407   8.979  0.00  0.00    +0.000 HD
BRANCH  12  14
ATOM     14  C   UNL     1      45.426   3.289   7.528  0.00  0.00    +0.000 C 
BRANCH  14  15
ATOM     15  C   UNL     1      46.822   3.703   7.052  0.00  0.00    +0.000 C 
BRANCH  15  17
ATOM     16  C   UNL     1      47.131   1.376   6.892  0.00  0.00    +0.000 C 
ATOM     17  O   UNL     1      47.727   2.615   7.251  0.00  0.00    +0.000 OA
ENDBRANCH  15  17
ENDBRANCH  14  15
ENDBRANCH  12  14
ENDBRANCH  11  12
ENDBRANCH  10  11
ENDBRANCH   1  10
BRANCH   7  18
ATOM     18  C   UNL     1      47.832   5.850  13.163  0.00  0.00    +0.000 C 
BRANCH  18  19
ATOM     19  C   UNL     1      47.853   5.561  14.642  0.00  0.00    +0.000 A 
ATOM     20  C   UNL     1      47.207   4.428  15.148  0.00  0.00    +0.000 A 
ATOM     21  C   UNL     1      47.363   4.065  16.490  0.00  0.00    +0.000 A 
ATOM     22  C   UNL     1      48.145   4.846  17.352  0.00  0.00    +0.000 A 
ATOM     23  C   UNL     1      48.747   6.009  16.861  0.00  0.00    +0.000 A 
ATOM     24  C   UNL     1      48.592   6.355  15.522  0.00  0.00    +0.000 A 
ATOM     25  F   UNL     1      49.187   7.471  15.073  0.00  0.00    +0.000 F 
BRANCH  22  26
ATOM     26  C   UNL     1      48.379   4.491  18.782  0.00  0.00    +0.000 C 
ATOM     27  N   UNL     1      48.255   3.183  19.159  0.00  0.00    +0.000 N 
ATOM     28  O   UNL     1      48.679   5.338  19.607  0.00  0.00    +0.000 OA
ATOM     29  H   UNL     1      48.058   2.409  18.541  0.00  0.00    +0.000 HD
ATOM     30  H   UNL     1      48.436   2.971  20.129  0.00  0.00    +0.000 HD
ENDBRANCH  22  26
ENDBRANCH  18  19
ENDBRANCH   7  18
TORSDOF 9
ENDMDL
MODEL 8
REMARK VINA RESULT:    -6.337      4.667      8.137
REMARK INTER + INTRA:         -10.701
REMARK INTER:                  -9.567
REMARK INTRA:                  -1.134
REMARK UNBOUND:                -1.030
REMARK  Name = 
REMARK  10 active torsions:
REMARK  status: ('A' for Active; 'I' for Inactive)
REMARK    1  A    between atoms: C_1  and  O_2
REMARK    2  A    between atoms: O_2  and  C_3
REMARK    3  A    between atoms: C_3  and  C_4
REMARK    4  A    between atoms: C_4  and  N_5
REMARK    5  A    between atoms: N_5  and  C_6
REMARK    6  A    between atoms: C_6  and  C_7
REMARK    7  A    between atoms: C_7  and  C_8
REMARK    8  A    between atoms: N_14  and  C_15
REMARK    9  A    between atoms: C_15  and  C_16
REMARK   10  A    between atoms: C_19  and  C_20
REMARK                            x       y       z     vdW  Elec       q    Type
REMARK                         _______ _______ _______ _____ _____    ______ ____
ROOT
ATOM      1  C   UNL     1      48.666   7.152  17.384  0.00  0.00    +0.000 A 
ATOM      2  C   UNL     1      48.755   8.513  17.692  0.00  0.00    +0.000 A 
ATOM      3  N   UNL     1      48.838   9.502  16.779  0.00  0.00    +0.000 NA
ATOM      4  C   UNL     1      48.813   9.042  15.504  0.00  0.00    +0.000 A 
ATOM      5  C   UNL     1      48.861   9.763  14.292  0.00  0.00    +0.000 A 
ATOM      6  C   UNL     1      48.778   8.844  13.266  0.00  0.00    +0.000 A 
ATOM      7  N   UNL     1      48.672   7.586  13.822  0.00  0.00    +0.000 N 
ATOM      8  C   UNL     1      48.718   7.683  15.197  0.00  0.00    +0.000 A 
ATOM      9  N   UNL     1      48.650   6.677  16.104  0.00  0.00    +0.000 NA
ENDROOT
BRANCH   1  10
ATOM     10  C   UNL     1      48.533   6.146  18.505  0.00  0.00    +0.000 C 
BRANCH  10  11
ATOM     11  C   UNL     1      47.460   5.094  18.193  0.00  0.00    +0.000 C 
BRANCH  11  12
ATOM     12  N   UNL     1      47.814   3.790  18.760  0.00  0.00    +0.000 NA
ATOM     13  H   UNL     1      48.060   3.902  19.744  0.00  0.00    +0.000 HD
BRANCH  12  14
ATOM     14  C   UNL     1      48.953   3.209  18.038  0.00  0.00    +0.000 C 
BRANCH  14  15
ATOM     15  C   UNL     1      48.519   2.623  16.691  0.00  0.00    +0.000 C 
BRANCH  15  17
ATOM     16  C   UNL     1      50.688   1.787  17.050  0.00  0.00    +0.000 C 
ATOM     17  O   UNL     1      49.578   1.824  16.163  0.00  0.00    +0.000 OA
ENDBRANCH  15  17
ENDBRANCH  14  15
ENDBRANCH  12  14
ENDBRANCH  11  12
ENDBRANCH  10  11
ENDBRANCH   1  10
BRANCH   7  18
ATOM     18  C   UNL     1      48.510   6.366  13.039  0.00  0.00    +0.000 C 
BRANCH  18  19
ATOM     19  C   UNL     1      47.059   6.125  12.715  0.00  0.00    +0.000 A 
ATOM     20  C   UNL     1      46.508   6.623  11.529  0.00  0.00    +0.000 A 
ATOM     21  C   UNL     1      45.212   6.262  11.145  0.00  0.00    +0.000 A 
ATOM     22  C   UNL     1      44.438   5.421  11.955  0.00  0.00    +0.000 A 
ATOM     23  C   UNL     1      44.966   4.966  13.168  0.00  0.00    +0.000 A 
ATOM     24  C   UNL     1      46.260   5.324  13.535  0.00  0.00    +0.000 A 
ATOM     25  F   UNL     1      46.748   4.868  14.699  0.00  0.00    +0.000 F 
BRANCH  22  26
ATOM     26  C   UNL     1      43.065   4.973  11.581  0.00  0.00    +0.000 C 
ATOM     27  N   UNL     1      42.031   5.856  11.714  0.00  0.00    +0.000 N 
ATOM     28  O   UNL     1      42.855   3.846  11.161  0.00  0.00    +0.000 OA
ATOM     29  H   UNL     1      42.113   6.819  12.007  0.00  0.00    +0.000 HD
ATOM     30  H   UNL     1      41.117   5.530  11.437  0.00  0.00    +0.000 HD
ENDBRANCH  22  26
ENDBRANCH  18  19
ENDBRANCH   7  18
TORSDOF 9
ENDMDL
MODEL 9
REMARK VINA RESULT:    -6.219      5.230      8.406
REMARK INTER + INTRA:         -10.521
REMARK INTER:                  -8.661
REMARK INTRA:                  -1.860
REMARK UNBOUND:                -1.030
REMARK  Name = 
REMARK  10 active torsions:
REMARK  status: ('A' for Active; 'I' for Inactive)
REMARK    1  A    between atoms: C_1  and  O_2
REMARK    2  A    between atoms: O_2  and  C_3
REMARK    3  A    between atoms: C_3  and  C_4
REMARK    4  A    between atoms: C_4  and  N_5
REMARK    5  A    between atoms: N_5  and  C_6
REMARK    6  A    between atoms: C_6  and  C_7
REMARK    7  A    between atoms: C_7  and  C_8
REMARK    8  A    between atoms: N_14  and  C_15
REMARK    9  A    between atoms: C_15  and  C_16
REMARK   10  A    between atoms: C_19  and  C_20
REMARK                            x       y       z     vdW  Elec       q    Type
REMARK                         _______ _______ _______ _____ _____    ______ ____
ROOT
ATOM      1  C   UNL     1      50.922   6.072  17.155  0.00  0.00    +0.000 A 
ATOM      2  C   UNL     1      50.614   6.909  18.233  0.00  0.00    +0.000 A 
ATOM      3  N   UNL     1      49.818   7.993  18.158  0.00  0.00    +0.000 NA
ATOM      4  C   UNL     1      49.320   8.194  16.912  0.00  0.00    +0.000 A 
ATOM      5  C   UNL     1      48.448   9.201  16.449  0.00  0.00    +0.000 A 
ATOM      6  C   UNL     1      48.215   8.957  15.112  0.00  0.00    +0.000 A 
ATOM      7  N   UNL     1      48.916   7.825  14.752  0.00  0.00    +0.000 N 
ATOM      8  C   UNL     1      49.624   7.355  15.839  0.00  0.00    +0.000 A 
ATOM      9  N   UNL     1      50.436   6.270  15.896  0.00  0.00    +0.000 NA
ENDROOT
BRANCH   1  10
ATOM     10  C   UNL     1      51.795   4.859  17.385  0.00  0.00    +0.000 C 
BRANCH  10  11
ATOM     11  C   UNL     1      50.983   3.675  17.925  0.00  0.00    +0.000 C 
BRANCH  11  12
ATOM     12  N   UNL     1      49.820   3.398  17.077  0.00  0.00    +0.000 NA
ATOM     13  H   UNL     1      49.639   4.201  16.474  0.00  0.00    +0.000 HD
BRANCH  12  14
ATOM     14  C   UNL     1      48.634   3.134  17.903  0.00  0.00    +0.000 C 
BRANCH  14  15
ATOM     15  C   UNL     1      47.378   3.759  17.288  0.00  0.00    +0.000 C 
BRANCH  15  17
ATOM     16  C   UNL     1      47.200   5.561  18.789  0.00  0.00    +0.000 C 
ATOM     17  O   UNL     1      47.436   5.178  17.441  0.00  0.00    +0.000 OA
ENDBRANCH  15  17
ENDBRANCH  14  15
ENDBRANCH  12  14
ENDBRANCH  11  12
ENDBRANCH  10  11
ENDBRANCH   1  10
BRANCH   7  18
ATOM     18  C   UNL     1      48.868   7.232  13.419  0.00  0.00    +0.000 C 
BRANCH  18  19
ATOM     19  C   UNL     1      47.582   6.475  13.217  0.00  0.00    +0.000 A 
ATOM     20  C   UNL     1      47.398   5.223  13.814  0.00  0.00    +0.000 A 
ATOM     21  C   UNL     1      46.149   4.594  13.768  0.00  0.00    +0.000 A 
ATOM     22  C   UNL     1      45.074   5.194  13.100  0.00  0.00    +0.000 A 
ATOM     23  C   UNL     1      45.270   6.420  12.455  0.00  0.00    +0.000 A 
ATOM     24  C   UNL     1      46.514   7.041  12.516  0.00  0.00    +0.000 A 
ATOM     25  F   UNL     1      46.675   8.221  11.896  0.00  0.00    +0.000 F 
BRANCH  22  26
ATOM     26  C   UNL     1      43.711   4.590  13.048  0.00  0.00    +0.000 C 
ATOM     27  N   UNL     1      42.629   5.424  12.994  0.00  0.00    +0.000 N 
ATOM     28  O   UNL     1      43.550   3.381  13.049  0.00  0.00    +0.000 OA
ATOM     29  H   UNL     1      42.664   6.431  12.942  0.00  0.00    +0.000 HD
ATOM     30  H   UNL     1      41.721   4.986  12.942  0.00  0.00    +0.000 HD
ENDBRANCH  22  26
ENDBRANCH  18  19
ENDBRANCH   7  18
TORSDOF 9
ENDMDL
