MODEL 1
REMARK VINA RESULT:    -9.302      0.000      0.000
REMARK INTER + INTRA:         -11.442
REMARK INTER:                 -12.021
REMARK INTRA:                   0.578
REMARK UNBOUND:                 0.578
REMARK  Name = 
REMARK  5 active torsions:
REMARK  status: ('A' for Active; 'I' for Inactive)
REMARK    1  A    between atoms: C_2  and  C_4
REMARK    2  A    between atoms: C_7  and  O_8
REMARK    3  A    between atoms: O_8  and  C_9
REMARK    4  A    between atoms: C_9  and  C_10
REMARK    5  A    between atoms: C_15  and  C_16
REMARK                            x       y       z     vdW  Elec       q    Type
REMARK                         _______ _______ _______ _____ _____    ______ ____
ROOT
ATOM      1  C   UNL     1      43.888   4.855  11.295  0.00  0.00    +0.000 C 
ATOM      2  C   UNL     1      43.326   3.586  11.932  0.00  0.00    +0.000 C 
ATOM      3  C   UNL     1      42.641   4.895  12.151  0.00  0.00    +0.000 C 
ENDROOT
BRANCH   1   4
ATOM      4  C   UNL     1      45.211   5.389  11.830  0.00  0.00    +0.000 A 
ATOM      5  C   UNL     1      45.910   6.388  11.148  0.00  0.00    +0.000 A 
ATOM      6  C   UNL     1      47.128   6.868  11.627  0.00  0.00    +0.000 A 
ATOM      7  C   UNL     1      47.688   6.351  12.803  0.00  0.00    +0.000 A 
ATOM      8 CL   UNL     1      49.260   6.957  13.208  0.00  0.00    +0.000 Cl
ATOM      9  C   UNL     1      47.015   5.368  13.559  0.00  0.00    +0.000 A 
ATOM     10  C   UNL     1      45.776   4.917  13.037  0.00  0.00    +0.000 A 
BRANCH   9  11
ATOM     11  C   UNL     1      47.516   4.793  14.832  0.00  0.00    +0.000 A 
ATOM     12  C   UNL     1      48.011   5.539  15.893  0.00  0.00    +0.000 A 
ATOM     13  N   UNL     1      48.473   5.031  17.061  0.00  0.00    +0.000 NA
ATOM     14  C   UNL     1      48.413   3.701  17.179  0.00  0.00    +0.000 A 
ATOM     15  N   UNL     1      47.942   2.858  16.254  0.00  0.00    +0.000 NA
ATOM     16  C   UNL     1      47.507   3.430  15.106  0.00  0.00    +0.000 A 
ENDBRANCH   9  11
ENDBRANCH   1   4
BRANCH   1  17
ATOM     17  O   UNL     1      43.735   4.790   9.859  0.00  0.00    +0.000 OA
BRANCH  17  21
ATOM     18  C   UNL     1      46.447   2.487   7.791  0.00  0.00    +0.000 A 
ATOM     19  C   UNL     1      45.564   1.893   8.693  0.00  0.00    +0.000 A 
ATOM     20  C   UNL     1      44.662   2.698   9.379  0.00  0.00    +0.000 A 
ATOM     21  C   UNL     1      44.675   4.067   9.146  0.00  0.00    +0.000 A 
ATOM     22  N   UNL     1      45.511   4.676   8.281  0.00  0.00    +0.000 NA
ATOM     23  C   UNL     1      46.392   3.869   7.633  0.00  0.00    +0.000 A 
BRANCH  18  25
ATOM     24  N   UNL     1      48.493   2.404   6.476  0.00  0.00    +0.000 N 
ATOM     25  C   UNL     1      47.451   1.713   7.032  0.00  0.00    +0.000 C 
ATOM     26  O   UNL     1      47.371   0.496   6.925  0.00  0.00    +0.000 OA
ATOM     27  H   UNL     1      49.213   1.850   6.028  0.00  0.00    +0.000 HD
ATOM     28  H   UNL     1      48.729   3.350   6.737  0.00  0.00    +0.000 HD
ENDBRANCH  18  25
ENDBRANCH  17  21
ENDBRANCH   1  17
TORSDOF 5
ENDMDL
MODEL 2
REMARK VINA RESULT:    -9.147      2.464      3.606
REMARK INTER + INTRA:         -11.243
REMARK INTER:                 -10.544
REMARK INTRA:                  -0.699
REMARK UNBOUND:                 0.578
REMARK  Name = 
REMARK  5 active torsions:
REMARK  status: ('A' for Active; 'I' for Inactive)
REMARK    1  A    between atoms: C_2  and  C_4
REMARK    2  A    between atoms: C_7  and  O_8
REMARK    3  A    between atoms: O_8  and  C_9
REMARK    4  A    between atoms: C_9  and  C_10
REMARK    5  A    between atoms: C_15  and  C_16
REMARK                            x       y       z     vdW  Elec       q    Type
REMARK                         _______ _______ _______ _____ _____    ______ ____
ROOT
ATOM      1  C   UNL     1      43.940   4.881  11.436  0.00  0.00    +0.000 C 
ATOM      2  C   UNL     1      42.593   5.175  12.092  0.00  0.00    +0.000 C 
ATOM      3  C   UNL     1      43.026   5.962  10.899  0.00  0.00    +0.000 C 
ENDROOT
BRANCH   1   4
ATOM      4  C   UNL     1      45.200   5.249  12.211  0.00  0.00    +0.000 A 
ATOM      5  C   UNL     1      45.650   4.452  13.267  0.00  0.00    +0.000 A 
ATOM      6  C   UNL     1      46.794   4.794  13.988  0.00  0.00    +0.000 A 
ATOM      7  C   UNL     1      47.515   5.954  13.677  0.00  0.00    +0.000 A 
ATOM      8 CL   UNL     1      48.840   6.312  14.734  0.00  0.00    +0.000 Cl
ATOM      9  C   UNL     1      47.135   6.781  12.599  0.00  0.00    +0.000 A 
ATOM     10  C   UNL     1      45.971   6.389  11.890  0.00  0.00    +0.000 A 
BRANCH   9  11
ATOM     11  C   UNL     1      47.861   8.006  12.178  0.00  0.00    +0.000 A 
ATOM     12  C   UNL     1      49.166   8.025  11.707  0.00  0.00    +0.000 A 
ATOM     13  N   UNL     1      49.844   9.132  11.319  0.00  0.00    +0.000 NA
ATOM     14  C   UNL     1      49.164  10.281  11.386  0.00  0.00    +0.000 A 
ATOM     15  N   UNL     1      47.898  10.414  11.796  0.00  0.00    +0.000 NA
ATOM     16  C   UNL     1      47.283   9.270  12.180  0.00  0.00    +0.000 A 
ENDBRANCH   9  11
ENDBRANCH   1   4
BRANCH   1  17
ATOM     17  O   UNL     1      43.906   3.578  10.811  0.00  0.00    +0.000 OA
BRANCH  17  21
ATOM     18  C   UNL     1      46.416   2.734   7.662  0.00  0.00    +0.000 A 
ATOM     19  C   UNL     1      45.872   1.700   8.424  0.00  0.00    +0.000 A 
ATOM     20  C   UNL     1      45.032   2.017   9.484  0.00  0.00    +0.000 A 
ATOM     21  C   UNL     1      44.765   3.354   9.750  0.00  0.00    +0.000 A 
ATOM     22  N   UNL     1      45.269   4.380   9.035  0.00  0.00    +0.000 NA
ATOM     23  C   UNL     1      46.099   4.044   8.013  0.00  0.00    +0.000 A 
BRANCH  18  25
ATOM     24  N   UNL     1      47.132   3.217   5.386  0.00  0.00    +0.000 N 
ATOM     25  C   UNL     1      47.334   2.492   6.529  0.00  0.00    +0.000 C 
ATOM     26  O   UNL     1      48.258   1.692   6.616  0.00  0.00    +0.000 OA
ATOM     27  H   UNL     1      47.817   3.096   4.650  0.00  0.00    +0.000 HD
ATOM     28  H   UNL     1      46.552   4.042   5.352  0.00  0.00    +0.000 HD
ENDBRANCH  18  25
ENDBRANCH  17  21
ENDBRANCH   1  17
TORSDOF 5
ENDMDL
MODEL 3
REMARK VINA RESULT:    -8.541      2.180      2.884
REMARK INTER + INTRA:         -10.459
REMARK INTER:                 -10.868
REMARK INTRA:                   0.408
REMARK UNBOUND:                 0.578
REMARK  Name = 
REMARK  5 active torsions:
REMARK  status: ('A' for Active; 'I' for Inactive)
REMARK    1  A    between atoms: C_2  and  C_4
REMARK    2  A    between atoms: C_7  and  O_8
REMARK    3  A    between atoms: O_8  and  C_9
REMARK    4  A    between atoms: C_9  and  C_10
REMARK    5  A    between atoms: C_15  and  C_16
REMARK                            x       y       z     vdW  Elec       q    Type
REMARK                         _______ _______ _______ _____ _____    ______ ____
ROOT
ATOM      1  C   UNL     1      44.172   4.234  11.466  0.00  0.00    +0.000 C 
ATOM      2  C   UNL     1      44.963   3.093  12.100  0.00  0.00    +0.000 C 
ATOM      3  C   UNL     1      43.629   3.470  12.654  0.00  0.00    +0.000 C 
ENDROOT
BRANCH   1   4
ATOM      4  C   UNL     1      44.710   5.649  11.636  0.00  0.00    +0.000 A 
ATOM      5  C   UNL     1      43.938   6.759  11.282  0.00  0.00    +0.000 A 
ATOM      6  C   UNL     1      44.435   8.054  11.422  0.00  0.00    +0.000 A 
ATOM      7  C   UNL     1      45.728   8.275  11.914  0.00  0.00    +0.000 A 
ATOM      8 CL   UNL     1      46.250   9.927  11.919  0.00  0.00    +0.000 Cl
ATOM      9  C   UNL     1      46.544   7.200  12.326  0.00  0.00    +0.000 A 
ATOM     10  C   UNL     1      45.994   5.902  12.172  0.00  0.00    +0.000 A 
BRANCH   9  11
ATOM     11  C   UNL     1      47.910   7.345  12.891  0.00  0.00    +0.000 A 
ATOM     12  C   UNL     1      48.296   6.887  14.143  0.00  0.00    +0.000 A 
ATOM     13  N   UNL     1      49.535   7.012  14.675  0.00  0.00    +0.000 NA
ATOM     14  C   UNL     1      50.444   7.607  13.896  0.00  0.00    +0.000 A 
ATOM     15  N   UNL     1      50.225   8.077  12.663  0.00  0.00    +0.000 NA
ATOM     16  C   UNL     1      48.961   7.931  12.197  0.00  0.00    +0.000 A 
ENDBRANCH   9  11
ENDBRANCH   1   4
BRANCH   1  17
ATOM     17  O   UNL     1      43.734   3.849  10.142  0.00  0.00    +0.000 OA
BRANCH  17  21
ATOM     18  C   UNL     1      46.659   2.744   7.467  0.00  0.00    +0.000 A 
ATOM     19  C   UNL     1      46.351   4.091   7.654  0.00  0.00    +0.000 A 
ATOM     20  C   UNL     1      45.354   4.433   8.561  0.00  0.00    +0.000 A 
ATOM     21  C   UNL     1      44.699   3.419   9.248  0.00  0.00    +0.000 A 
ATOM     22  N   UNL     1      44.971   2.107   9.097  0.00  0.00    +0.000 NA
ATOM     23  C   UNL     1      45.939   1.799   8.193  0.00  0.00    +0.000 A 
BRANCH  18  25
ATOM     24  N   UNL     1      47.834   2.999   5.351  0.00  0.00    +0.000 N 
ATOM     25  C   UNL     1      47.689   2.287   6.511  0.00  0.00    +0.000 C 
ATOM     26  O   UNL     1      48.404   1.324   6.755  0.00  0.00    +0.000 OA
ATOM     27  H   UNL     1      48.596   2.720   4.744  0.00  0.00    +0.000 HD
ATOM     28  H   UNL     1      47.446   3.921   5.217  0.00  0.00    +0.000 HD
ENDBRANCH  18  25
ENDBRANCH  17  21
ENDBRANCH   1  17
TORSDOF 5
ENDMDL
MODEL 4
REMARK VINA RESULT:    -8.266      3.196      5.276
REMARK INTER + INTRA:         -10.103
REMARK INTER:                 -10.721
REMARK INTRA:                   0.618
REMARK UNBOUND:                 0.578
REMARK  Name = 
REMARK  5 active torsions:
REMARK  status: ('A' for Active; 'I' for Inactive)
REMARK    1  A    between atoms: C_2  and  C_4
REMARK    2  A    between atoms: C_7  and  O_8
REMARK    3  A    between atoms: O_8  and  C_9
REMARK    4  A    between atoms: C_9  and  C_10
REMARK    5  A    between atoms: C_15  and  C_16
REMARK                            x       y       z     vdW  Elec       q    Type
REMARK                         _______ _______ _______ _____ _____    ______ ____
ROOT
ATOM      1  C   UNL     1      44.082   4.435  11.565  0.00  0.00    +0.000 C 
ATOM      2  C   UNL     1      44.874   3.318  12.240  0.00  0.00    +0.000 C 
ATOM      3  C   UNL     1      43.553   3.735  12.798  0.00  0.00    +0.000 C 
ENDROOT
BRANCH   1   4
ATOM      4  C   UNL     1      44.637   5.852  11.659  0.00  0.00    +0.000 A 
ATOM      5  C   UNL     1      45.896   6.094  12.214  0.00  0.00    +0.000 A 
ATOM      6  C   UNL     1      46.399   7.391  12.315  0.00  0.00    +0.000 A 
ATOM      7  C   UNL     1      45.647   8.486  11.870  0.00  0.00    +0.000 A 
ATOM      8 CL   UNL     1      46.349  10.042  12.170  0.00  0.00    +0.000 Cl
ATOM      9  C   UNL     1      44.386   8.307  11.265  0.00  0.00    +0.000 A 
ATOM     10  C   UNL     1      43.919   6.970  11.176  0.00  0.00    +0.000 A 
BRANCH   9  11
ATOM     11  C   UNL     1      43.540   9.405  10.734  0.00  0.00    +0.000 A 
ATOM     12  C   UNL     1      44.003  10.434   9.926  0.00  0.00    +0.000 A 
ATOM     13  N   UNL     1      43.247  11.445   9.433  0.00  0.00    +0.000 NA
ATOM     14  C   UNL     1      41.949  11.405   9.750  0.00  0.00    +0.000 A 
ATOM     15  N   UNL     1      41.357  10.467  10.497  0.00  0.00    +0.000 NA
ATOM     16  C   UNL     1      42.173   9.493  10.967  0.00  0.00    +0.000 A 
ENDBRANCH   9  11
ENDBRANCH   1   4
BRANCH   1  17
ATOM     17  O   UNL     1      43.618   3.993  10.269  0.00  0.00    +0.000 OA
BRANCH  17  21
ATOM     18  C   UNL     1      46.454   2.527   7.672  0.00  0.00    +0.000 A 
ATOM     19  C   UNL     1      46.189   3.896   7.724  0.00  0.00    +0.000 A 
ATOM     20  C   UNL     1      45.222   4.359   8.609  0.00  0.00    +0.000 A 
ATOM     21  C   UNL     1      44.551   3.443   9.408  0.00  0.00    +0.000 A 
ATOM     22  N   UNL     1      44.781   2.115   9.388  0.00  0.00    +0.000 NA
ATOM     23  C   UNL     1      45.720   1.685   8.504  0.00  0.00    +0.000 A 
BRANCH  18  25
ATOM     24  N   UNL     1      48.554   2.694   6.455  0.00  0.00    +0.000 N 
ATOM     25  C   UNL     1      47.450   1.942   6.750  0.00  0.00    +0.000 C 
ATOM     26  O   UNL     1      47.307   0.818   6.287  0.00  0.00    +0.000 OA
ATOM     27  H   UNL     1      49.264   2.247   5.886  0.00  0.00    +0.000 HD
ATOM     28  H   UNL     1      48.830   3.504   6.989  0.00  0.00    +0.000 HD
ENDBRANCH  18  25
ENDBRANCH  17  21
ENDBRANCH   1  17
TORSDOF 5
ENDMDL
MODEL 5
REMARK VINA RESULT:    -8.000      3.129      7.443
REMARK INTER + INTRA:          -9.760
REMARK INTER:                  -9.116
REMARK INTRA:                  -0.644
REMARK UNBOUND:                 0.578
REMARK  Name = 
REMARK  5 active torsions:
REMARK  status: ('A' for Active; 'I' for Inactive)
REMARK    1  A    between atoms: C_2  and  C_4
REMARK    2  A    between atoms: C_7  and  O_8
REMARK    3  A    between atoms: O_8  and  C_9
REMARK    4  A    between atoms: C_9  and  C_10
REMARK    5  A    between atoms: C_15  and  C_16
REMARK                            x       y       z     vdW  Elec       q    Type
REMARK                         _______ _______ _______ _____ _____    ______ ____
ROOT
ATOM      1  C   UNL     1      48.353   7.885  12.609  0.00  0.00    +0.000 C 
ATOM      2  C   UNL     1      49.160   8.682  11.587  0.00  0.00    +0.000 C 
ATOM      3  C   UNL     1      48.682   9.345  12.838  0.00  0.00    +0.000 C 
ENDROOT
BRANCH   1   4
ATOM      4  C   UNL     1      46.941   7.462  12.220  0.00  0.00    +0.000 A 
ATOM      5  C   UNL     1      45.825   8.131  12.731  0.00  0.00    +0.000 A 
ATOM      6  C   UNL     1      44.533   7.736  12.388  0.00  0.00    +0.000 A 
ATOM      7  C   UNL     1      44.320   6.650  11.530  0.00  0.00    +0.000 A 
ATOM      8 CL   UNL     1      42.663   6.202  11.293  0.00  0.00    +0.000 Cl
ATOM      9  C   UNL     1      45.403   5.957  10.950  0.00  0.00    +0.000 A 
ATOM     10  C   UNL     1      46.699   6.399  11.320  0.00  0.00    +0.000 A 
BRANCH   9  11
ATOM     11  C   UNL     1      45.269   4.821  10.003  0.00  0.00    +0.000 A 
ATOM     12  C   UNL     1      45.676   4.849   8.677  0.00  0.00    +0.000 A 
ATOM     13  N   UNL     1      45.561   3.824   7.799  0.00  0.00    +0.000 NA
ATOM     14  C   UNL     1      45.030   2.699   8.289  0.00  0.00    +0.000 A 
ATOM     15  N   UNL     1      44.615   2.516   9.547  0.00  0.00    +0.000 NA
ATOM     16  C   UNL     1      44.748   3.585  10.368  0.00  0.00    +0.000 A 
ENDBRANCH   9  11
ENDBRANCH   1   4
BRANCH   1  17
ATOM     17  O   UNL     1      49.195   6.885  13.225  0.00  0.00    +0.000 OA
BRANCH  17  21
ATOM     18  C   UNL     1      47.694   4.909  16.509  0.00  0.00    +0.000 A 
ATOM     19  C   UNL     1      48.535   6.010  16.675  0.00  0.00    +0.000 A 
ATOM     20  C   UNL     1      49.030   6.653  15.546  0.00  0.00    +0.000 A 
ATOM     21  C   UNL     1      48.671   6.176  14.292  0.00  0.00    +0.000 A 
ATOM     22  N   UNL     1      47.860   5.117  14.092  0.00  0.00    +0.000 NA
ATOM     23  C   UNL     1      47.401   4.497  15.212  0.00  0.00    +0.000 A 
BRANCH  18  25
ATOM     24  N   UNL     1      47.126   4.769  18.871  0.00  0.00    +0.000 N 
ATOM     25  C   UNL     1      47.138   4.153  17.650  0.00  0.00    +0.000 C 
ATOM     26  O   UNL     1      46.679   3.026  17.506  0.00  0.00    +0.000 OA
ATOM     27  H   UNL     1      46.669   4.268  19.624  0.00  0.00    +0.000 HD
ATOM     28  H   UNL     1      47.263   5.762  18.990  0.00  0.00    +0.000 HD
ENDBRANCH  18  25
ENDBRANCH  17  21
ENDBRANCH   1  17
TORSDOF 5
ENDMDL
MODEL 6
REMARK VINA RESULT:    -7.745      2.164      3.059
REMARK INTER + INTRA:          -9.430
REMARK INTER:                  -8.980
REMARK INTRA:                  -0.450
REMARK UNBOUND:                 0.578
REMARK  Name = 
REMARK  5 active torsions:
REMARK  status: ('A' for Active; 'I' for Inactive)
REMARK    1  A    between atoms: C_2  and  C_4
REMARK    2  A    between atoms: C_7  and  O_8
REMARK    3  A    between atoms: O_8  and  C_9
REMARK    4  A    between atoms: C_9  and  C_10
REMARK    5  A    between atoms: C_15  and  C_16
REMARK                            x       y       z     vdW  Elec       q    Type
REMARK                         _______ _______ _______ _____ _____    ______ ____
ROOT
ATOM      1  C   UNL     1      44.458   5.365  11.114  0.00  0.00    +0.000 C 
ATOM      2  C   UNL     1      43.237   6.254  11.335  0.00  0.00    +0.000 C 
ATOM      3  C   UNL     1      44.305   6.683  10.384  0.00  0.00    +0.000 C 
ENDROOT
BRANCH   1   4
ATOM      4  C   UNL     1      45.451   5.229  12.261  0.00  0.00    +0.000 A 
ATOM      5  C   UNL     1      45.392   4.141  13.136  0.00  0.00    +0.000 A 
ATOM      6  C   UNL     1      46.290   4.021  14.196  0.00  0.00    +0.000 A 
ATOM      7  C   UNL     1      47.269   4.998  14.417  0.00  0.00    +0.000 A 
ATOM      8 CL   UNL     1      48.233   4.777  15.841  0.00  0.00    +0.000 Cl
ATOM      9  C   UNL     1      47.408   6.101  13.549  0.00  0.00    +0.000 A 
ATOM     10  C   UNL     1      46.478   6.176  12.480  0.00  0.00    +0.000 A 
BRANCH   9  11
ATOM     11  C   UNL     1      48.438   7.161  13.687  0.00  0.00    +0.000 A 
ATOM     12  C   UNL     1      48.497   8.069  14.735  0.00  0.00    +0.000 A 
ATOM     13  N   UNL     1      49.428   9.043  14.877  0.00  0.00    +0.000 NA
ATOM     14  C   UNL     1      50.367   9.091  13.926  0.00  0.00    +0.000 A 
ATOM     15  N   UNL     1      50.452   8.270  12.874  0.00  0.00    +0.000 NA
ATOM     16  C   UNL     1      49.483   7.328  12.786  0.00  0.00    +0.000 A 
ENDBRANCH   9  11
ENDBRANCH   1   4
BRANCH   1  17
ATOM     17  O   UNL     1      44.064   4.152  10.434  0.00  0.00    +0.000 OA
BRANCH  17  21
ATOM     18  C   UNL     1      46.686   2.805   7.562  0.00  0.00    +0.000 A 
ATOM     19  C   UNL     1      46.399   4.166   7.669  0.00  0.00    +0.000 A 
ATOM     20  C   UNL     1      45.505   4.589   8.646  0.00  0.00    +0.000 A 
ATOM     21  C   UNL     1      44.928   3.642   9.480  0.00  0.00    +0.000 A 
ATOM     22  N   UNL     1      45.183   2.320   9.410  0.00  0.00    +0.000 NA
ATOM     23  C   UNL     1      46.048   1.930   8.437  0.00  0.00    +0.000 A 
BRANCH  18  25
ATOM     24  N   UNL     1      47.834   3.023   5.427  0.00  0.00    +0.000 N 
ATOM     25  C   UNL     1      47.608   2.263   6.542  0.00  0.00    +0.000 C 
ATOM     26  O   UNL     1      48.169   1.186   6.698  0.00  0.00    +0.000 OA
ATOM     27  H   UNL     1      48.528   2.673   4.777  0.00  0.00    +0.000 HD
ATOM     28  H   UNL     1      47.593   4.001   5.367  0.00  0.00    +0.000 HD
ENDBRANCH  18  25
ENDBRANCH  17  21
ENDBRANCH   1  17
TORSDOF 5
ENDMDL
MODEL 7
REMARK VINA RESULT:    -7.480      3.168      4.772
REMARK INTER + INTRA:          -9.088
REMARK INTER:                  -8.365
REMARK INTRA:                  -0.723
REMARK UNBOUND:                 0.578
REMARK  Name = 
REMARK  5 active torsions:
REMARK  status: ('A' for Active; 'I' for Inactive)
REMARK    1  A    between atoms: C_2  and  C_4
REMARK    2  A    between atoms: C_7  and  O_8
REMARK    3  A    between atoms: O_8  and  C_9
REMARK    4  A    between atoms: C_9  and  C_10
REMARK    5  A    between atoms: C_15  and  C_16
REMARK                            x       y       z     vdW  Elec       q    Type
REMARK                         _______ _______ _______ _____ _____    ______ ____
ROOT
ATOM      1  C   UNL     1      47.965   8.119  12.561  0.00  0.00    +0.000 C 
ATOM      2  C   UNL     1      48.767   9.136  11.753  0.00  0.00    +0.000 C 
ATOM      3  C   UNL     1      49.032   7.675  11.583  0.00  0.00    +0.000 C 
ENDROOT
BRANCH   1   4
ATOM      4  C   UNL     1      48.217   8.051  14.063  0.00  0.00    +0.000 A 
ATOM      5  C   UNL     1      48.133   9.198  14.857  0.00  0.00    +0.000 A 
ATOM      6  C   UNL     1      48.378   9.142  16.228  0.00  0.00    +0.000 A 
ATOM      7  C   UNL     1      48.727   7.932  16.843  0.00  0.00    +0.000 A 
ATOM      8 CL   UNL     1      49.120   8.041  18.528  0.00  0.00    +0.000 Cl
ATOM      9  C   UNL     1      48.792   6.732  16.106  0.00  0.00    +0.000 A 
ATOM     10  C   UNL     1      48.527   6.836  14.716  0.00  0.00    +0.000 A 
BRANCH   9  11
ATOM     11  C   UNL     1      49.118   5.403  16.682  0.00  0.00    +0.000 A 
ATOM     12  C   UNL     1      50.374   5.029  17.137  0.00  0.00    +0.000 A 
ATOM     13  N   UNL     1      50.690   3.822  17.664  0.00  0.00    +0.000 NA
ATOM     14  C   UNL     1      49.681   2.951  17.764  0.00  0.00    +0.000 A 
ATOM     15  N   UNL     1      48.417   3.177  17.391  0.00  0.00    +0.000 NA
ATOM     16  C   UNL     1      48.173   4.400  16.860  0.00  0.00    +0.000 A 
ENDBRANCH   9  11
ENDBRANCH   1   4
BRANCH   1  17
ATOM     17  O   UNL     1      46.588   8.122  12.123  0.00  0.00    +0.000 OA
BRANCH  17  21
ATOM     18  C   UNL     1      44.758   4.473  11.601  0.00  0.00    +0.000 A 
ATOM     19  C   UNL     1      45.324   5.138  10.513  0.00  0.00    +0.000 A 
ATOM     20  C   UNL     1      45.930   6.371  10.720  0.00  0.00    +0.000 A 
ATOM     21  C   UNL     1      45.950   6.900  12.004  0.00  0.00    +0.000 A 
ATOM     22  N   UNL     1      45.417   6.286  13.081  0.00  0.00    +0.000 NA
ATOM     23  C   UNL     1      44.817   5.089  12.849  0.00  0.00    +0.000 A 
BRANCH  18  25
ATOM     24  N   UNL     1      43.755   2.507  12.625  0.00  0.00    +0.000 N 
ATOM     25  C   UNL     1      44.076   3.168  11.472  0.00  0.00    +0.000 C 
ATOM     26  O   UNL     1      43.786   2.706  10.375  0.00  0.00    +0.000 OA
ATOM     27  H   UNL     1      43.218   1.654  12.520  0.00  0.00    +0.000 HD
ATOM     28  H   UNL     1      43.753   2.948  13.533  0.00  0.00    +0.000 HD
ENDBRANCH  18  25
ENDBRANCH  17  21
ENDBRANCH   1  17
TORSDOF 5
ENDMDL
MODEL 8
REMARK VINA RESULT:    -7.450      4.238      8.141
REMARK INTER + INTRA:          -9.049
REMARK INTER:                  -8.898
REMARK INTRA:                  -0.151
REMARK UNBOUND:                 0.578
REMARK  Name = 
REMARK  5 active torsions:
REMARK  status: ('A' for Active; 'I' for Inactive)
REMARK    1  A    between atoms: C_2  and  C_4
REMARK    2  A    between atoms: C_7  and  O_8
REMARK    3  A    between atoms: O_8  and  C_9
REMARK    4  A    between atoms: C_9  and  C_10
REMARK    5  A    between atoms: C_15  and  C_16
REMARK                            x       y       z     vdW  Elec       q    Type
REMARK                         _______ _______ _______ _____ _____    ______ ____
ROOT
ATOM      1  C   UNL     1      48.195   4.719  17.055  0.00  0.00    +0.000 C 
ATOM      2  C   UNL     1      47.148   4.939  18.144  0.00  0.00    +0.000 C 
ATOM      3  C   UNL     1      47.399   3.563  17.621  0.00  0.00    +0.000 C 
ENDROOT
BRANCH   1   4
ATOM      4  C   UNL     1      47.891   5.259  15.662  0.00  0.00    +0.000 A 
ATOM      5  C   UNL     1      48.682   6.261  15.093  0.00  0.00    +0.000 A 
ATOM      6  C   UNL     1      48.396   6.767  13.825  0.00  0.00    +0.000 A 
ATOM      7  C   UNL     1      47.301   6.290  13.094  0.00  0.00    +0.000 A 
ATOM      8 CL   UNL     1      47.001   7.097  11.591  0.00  0.00    +0.000 Cl
ATOM      9  C   UNL     1      46.486   5.253  13.596  0.00  0.00    +0.000 A 
ATOM     10  C   UNL     1      46.819   4.763  14.885  0.00  0.00    +0.000 A 
BRANCH   9  11
ATOM     11  C   UNL     1      45.330   4.663  12.874  0.00  0.00    +0.000 A 
ATOM     12  C   UNL     1      45.368   3.466  12.174  0.00  0.00    +0.000 A 
ATOM     13  N   UNL     1      44.324   2.913  11.510  0.00  0.00    +0.000 NA
ATOM     14  C   UNL     1      43.173   3.590  11.573  0.00  0.00    +0.000 A 
ATOM     15  N   UNL     1      42.981   4.740  12.227  0.00  0.00    +0.000 NA
ATOM     16  C   UNL     1      44.068   5.243  12.859  0.00  0.00    +0.000 A 
ENDBRANCH   9  11
ENDBRANCH   1   4
BRANCH   1  17
ATOM     17  O   UNL     1      49.515   4.971  17.587  0.00  0.00    +0.000 OA
BRANCH  17  21
ATOM     18  C   UNL     1      52.278   1.927  17.772  0.00  0.00    +0.000 A 
ATOM     19  C   UNL     1      52.574   3.178  18.313  0.00  0.00    +0.000 A 
ATOM     20  C   UNL     1      51.622   4.188  18.231  0.00  0.00    +0.000 A 
ATOM     21  C   UNL     1      50.410   3.916  17.610  0.00  0.00    +0.000 A 
ATOM     22  N   UNL     1      50.086   2.719  17.079  0.00  0.00    +0.000 NA
ATOM     23  C   UNL     1      51.039   1.753  17.159  0.00  0.00    +0.000 A 
BRANCH  18  25
ATOM     24  N   UNL     1      54.391   0.940  17.079  0.00  0.00    +0.000 N 
ATOM     25  C   UNL     1      53.235   0.801  17.797  0.00  0.00    +0.000 C 
ATOM     26  O   UNL     1      53.016  -0.208  18.455  0.00  0.00    +0.000 OA
ATOM     27  H   UNL     1      55.070   0.193  17.171  0.00  0.00    +0.000 HD
ATOM     28  H   UNL     1      54.720   1.827  16.728  0.00  0.00    +0.000 HD
ENDBRANCH  18  25
ENDBRANCH  17  21
ENDBRANCH   1  17
TORSDOF 5
ENDMDL
MODEL 9
REMARK VINA RESULT:    -6.975      3.913      6.610
REMARK INTER + INTRA:          -8.435
REMARK INTER:                  -8.416
REMARK INTRA:                  -0.019
REMARK UNBOUND:                 0.578
REMARK  Name = 
REMARK  5 active torsions:
REMARK  status: ('A' for Active; 'I' for Inactive)
REMARK    1  A    between atoms: C_2  and  C_4
REMARK    2  A    between atoms: C_7  and  O_8
REMARK    3  A    between atoms: O_8  and  C_9
REMARK    4  A    between atoms: C_9  and  C_10
REMARK    5  A    between atoms: C_15  and  C_16
REMARK                            x       y       z     vdW  Elec       q    Type
REMARK                         _______ _______ _______ _____ _____    ______ ____
ROOT
ATOM      1  C   UNL     1      47.988   3.632  16.566  0.00  0.00    +0.000 C 
ATOM      2  C   UNL     1      47.163   2.841  17.579  0.00  0.00    +0.000 C 
ATOM      3  C   UNL     1      46.776   4.243  17.237  0.00  0.00    +0.000 C 
ENDROOT
BRANCH   1   4
ATOM      4  C   UNL     1      49.394   4.055  16.974  0.00  0.00    +0.000 A 
ATOM      5  C   UNL     1      49.769   5.401  16.966  0.00  0.00    +0.000 A 
ATOM      6  C   UNL     1      51.059   5.789  17.325  0.00  0.00    +0.000 A 
ATOM      7  C   UNL     1      52.017   4.835  17.692  0.00  0.00    +0.000 A 
ATOM      8 CL   UNL     1      53.607   5.455  17.993  0.00  0.00    +0.000 Cl
ATOM      9  C   UNL     1      51.692   3.464  17.758  0.00  0.00    +0.000 A 
ATOM     10  C   UNL     1      50.366   3.118  17.392  0.00  0.00    +0.000 A 
BRANCH   9  11
ATOM     11  C   UNL     1      52.632   2.392  18.171  0.00  0.00    +0.000 A 
ATOM     12  C   UNL     1      53.679   2.565  19.066  0.00  0.00    +0.000 A 
ATOM     13  N   UNL     1      54.547   1.600  19.454  0.00  0.00    +0.000 NA
ATOM     14  C   UNL     1      54.336   0.387  18.932  0.00  0.00    +0.000 A 
ATOM     15  N   UNL     1      53.358   0.066  18.079  0.00  0.00    +0.000 NA
ATOM     16  C   UNL     1      52.533   1.080  17.723  0.00  0.00    +0.000 A 
ENDBRANCH   9  11
ENDBRANCH   1   4
BRANCH   1  17
ATOM     17  O   UNL     1      47.828   3.057  15.249  0.00  0.00    +0.000 OA
BRANCH  17  21
ATOM     18  C   UNL     1      45.917   5.409  12.465  0.00  0.00    +0.000 A 
ATOM     19  C   UNL     1      46.865   5.965  13.323  0.00  0.00    +0.000 A 
ATOM     20  C   UNL     1      47.490   5.146  14.256  0.00  0.00    +0.000 A 
ATOM     21  C   UNL     1      47.146   3.802  14.303  0.00  0.00    +0.000 A 
ATOM     22  N   UNL     1      46.237   3.227  13.489  0.00  0.00    +0.000 NA
ATOM     23  C   UNL     1      45.630   4.052  12.596  0.00  0.00    +0.000 A 
BRANCH  18  25
ATOM     24  N   UNL     1      44.808   5.572  10.304  0.00  0.00    +0.000 N 
ATOM     25  C   UNL     1      45.189   6.206  11.456  0.00  0.00    +0.000 C 
ATOM     26  O   UNL     1      44.913   7.383  11.651  0.00  0.00    +0.000 OA
ATOM     27  H   UNL     1      44.241   6.111   9.660  0.00  0.00    +0.000 HD
ATOM     28  H   UNL     1      44.796   4.568  10.205  0.00  0.00    +0.000 HD
ENDBRANCH  18  25
ENDBRANCH  17  21
ENDBRANCH   1  17
TORSDOF 5
ENDMDL
