MODEL 1
REMARK VINA RESULT:    -8.408      0.000      0.000
REMARK INTER + INTRA:          -9.386
REMARK INTER:                  -9.883
REMARK INTRA:                   0.497
REMARK UNBOUND:                 0.497
REMARK  Name = 
REMARK  3 active torsions:
REMARK  status: ('A' for Active; 'I' for Inactive)
REMARK    1  A    between atoms: C_2  and  C_4
REMARK    2  A    between atoms: N_8  and  C_9
REMARK    3  A    between atoms: C_9  and  C_10
REMARK                            x       y       z     vdW  Elec       q    Type
REMARK                         _______ _______ _______ _____ _____    ______ ____
ROOT
ATOM      1  C   UNL     1      46.351   2.077   7.942  0.00  0.00    +0.000 A 
ATOM      2  C   UNL     1      46.368   3.343   7.389  0.00  0.00    +0.000 A 
ATOM      3  C   UNL     1      45.633   4.343   8.024  0.00  0.00    +0.000 A 
ATOM      4  C   UNL     1      44.930   4.064   9.195  0.00  0.00    +0.000 A 
ATOM      5  N   UNL     1      44.284   5.151   9.825  0.00  0.00    +0.000 N 
ATOM      6  N   UNL     1      44.957   2.814   9.707  0.00  0.00    +0.000 NA
ATOM      7  N   UNL     1      45.655   1.800   9.068  0.00  0.00    +0.000 NA
ATOM      8  H   UNL     1      43.692   5.649   9.170  0.00  0.00    +0.000 HD
ENDROOT
BRANCH   1  10
ATOM      9  N   UNL     1      46.785  -0.305   7.688  0.00  0.00    +0.000 N 
ATOM     10  C   UNL     1      47.117   0.971   7.306  0.00  0.00    +0.000 C 
ATOM     11  O   UNL     1      47.990   1.176   6.473  0.00  0.00    +0.000 OA
ATOM     12  H   UNL     1      47.280  -1.082   7.274  0.00  0.00    +0.000 HD
ATOM     13  H   UNL     1      46.042  -0.474   8.354  0.00  0.00    +0.000 HD
ENDBRANCH   1  10
BRANCH   5  14
ATOM     14  C   UNL     1      43.886   5.167  11.249  0.00  0.00    +0.000 C 
ATOM     15  C   UNL     1      42.940   4.024  11.604  0.00  0.00    +0.000 C 
ATOM     16  C   UNL     1      42.466   5.435  11.704  0.00  0.00    +0.000 C 
BRANCH  14  17
ATOM     17  C   UNL     1      44.978   5.540  12.262  0.00  0.00    +0.000 C 
ATOM     18  C   UNL     1      45.954   6.573  11.678  0.00  0.00    +0.000 C 
ATOM     19  C   UNL     1      47.010   6.983  12.702  0.00  0.00    +0.000 C 
ATOM     20  C   UNL     1      47.760   5.771  13.247  0.00  0.00    +0.000 C 
ATOM     21  C   UNL     1      46.804   4.726  13.816  0.00  0.00    +0.000 C 
ATOM     22  C   UNL     1      45.738   4.317  12.798  0.00  0.00    +0.000 C 
ENDBRANCH  14  17
ENDBRANCH   5  14
TORSDOF 3
ENDMDL
MODEL 2
REMARK VINA RESULT:    -8.305      3.593      6.102
REMARK INTER + INTRA:          -9.264
REMARK INTER:                  -8.679
REMARK INTRA:                  -0.585
REMARK UNBOUND:                 0.497
REMARK  Name = 
REMARK  3 active torsions:
REMARK  status: ('A' for Active; 'I' for Inactive)
REMARK    1  A    between atoms: C_2  and  C_4
REMARK    2  A    between atoms: N_8  and  C_9
REMARK    3  A    between atoms: C_9  and  C_10
REMARK                            x       y       z     vdW  Elec       q    Type
REMARK                         _______ _______ _______ _____ _____    ______ ____
ROOT
ATOM      1  C   UNL     1      47.337   4.489  15.086  0.00  0.00    +0.000 A 
ATOM      2  C   UNL     1      47.518   5.774  14.611  0.00  0.00    +0.000 A 
ATOM      3  C   UNL     1      46.905   6.117  13.406  0.00  0.00    +0.000 A 
ATOM      4  C   UNL     1      46.116   5.189  12.729  0.00  0.00    +0.000 A 
ATOM      5  N   UNL     1      45.459   5.642  11.564  0.00  0.00    +0.000 N 
ATOM      6  N   UNL     1      45.955   3.950  13.241  0.00  0.00    +0.000 NA
ATOM      7  N   UNL     1      46.587   3.582  14.420  0.00  0.00    +0.000 NA
ATOM      8  H   UNL     1      46.114   6.079  10.925  0.00  0.00    +0.000 HD
ENDROOT
BRANCH   1  10
ATOM      9  N   UNL     1      47.217   3.263  17.185  0.00  0.00    +0.000 N 
ATOM     10  C   UNL     1      47.969   4.068  16.366  0.00  0.00    +0.000 C 
ATOM     11  O   UNL     1      49.103   4.404  16.676  0.00  0.00    +0.000 OA
ATOM     12  H   UNL     1      47.614   2.952  18.061  0.00  0.00    +0.000 HD
ATOM     13  H   UNL     1      46.290   2.960  16.913  0.00  0.00    +0.000 HD
ENDBRANCH   1  10
BRANCH   5  14
ATOM     14  C   UNL     1      44.269   4.989  10.976  0.00  0.00    +0.000 C 
ATOM     15  C   UNL     1      43.037   5.889  11.001  0.00  0.00    +0.000 C 
ATOM     16  C   UNL     1      43.044   4.623  11.791  0.00  0.00    +0.000 C 
BRANCH  14  17
ATOM     17  C   UNL     1      44.506   4.125   9.730  0.00  0.00    +0.000 C 
ATOM     18  C   UNL     1      44.712   2.649  10.103  0.00  0.00    +0.000 C 
ATOM     19  C   UNL     1      44.898   1.781   8.860  0.00  0.00    +0.000 C 
ATOM     20  C   UNL     1      46.043   2.288   7.989  0.00  0.00    +0.000 C 
ATOM     21  C   UNL     1      45.864   3.760   7.624  0.00  0.00    +0.000 C 
ATOM     22  C   UNL     1      45.669   4.634   8.864  0.00  0.00    +0.000 C 
ENDBRANCH  14  17
ENDBRANCH   5  14
TORSDOF 3
ENDMDL
MODEL 3
REMARK VINA RESULT:    -7.353      3.837      6.351
REMARK INTER + INTRA:          -8.145
REMARK INTER:                  -7.805
REMARK INTRA:                  -0.340
REMARK UNBOUND:                 0.497
REMARK  Name = 
REMARK  3 active torsions:
REMARK  status: ('A' for Active; 'I' for Inactive)
REMARK    1  A    between atoms: C_2  and  C_4
REMARK    2  A    between atoms: N_8  and  C_9
REMARK    3  A    between atoms: C_9  and  C_10
REMARK                            x       y       z     vdW  Elec       q    Type
REMARK                         _______ _______ _______ _____ _____    ______ ____
ROOT
ATOM      1  C   UNL     1      47.602   7.646  13.635  0.00  0.00    +0.000 A 
ATOM      2  C   UNL     1      46.837   8.622  13.028  0.00  0.00    +0.000 A 
ATOM      3  C   UNL     1      45.837   8.214  12.146  0.00  0.00    +0.000 A 
ATOM      4  C   UNL     1      45.612   6.858  11.916  0.00  0.00    +0.000 A 
ATOM      5  N   UNL     1      44.524   6.526  11.079  0.00  0.00    +0.000 N 
ATOM      6  N   UNL     1      46.376   5.939  12.546  0.00  0.00    +0.000 NA
ATOM      7  N   UNL     1      47.397   6.329  13.400  0.00  0.00    +0.000 NA
ATOM      8  H   UNL     1      44.578   7.027  10.199  0.00  0.00    +0.000 HD
ENDROOT
BRANCH   1  10
ATOM      9  N   UNL     1      49.971   7.768  14.184  0.00  0.00    +0.000 N 
ATOM     10  C   UNL     1      48.683   8.024  14.586  0.00  0.00    +0.000 C 
ATOM     11  O   UNL     1      48.449   8.548  15.666  0.00  0.00    +0.000 OA
ATOM     12  H   UNL     1      50.732   8.016  14.800  0.00  0.00    +0.000 HD
ATOM     13  H   UNL     1      50.164   7.363  13.277  0.00  0.00    +0.000 HD
ENDBRANCH   1  10
BRANCH   5  14
ATOM     14  C   UNL     1      43.858   5.205  11.069  0.00  0.00    +0.000 C 
ATOM     15  C   UNL     1      42.419   5.273  11.568  0.00  0.00    +0.000 C 
ATOM     16  C   UNL     1      43.430   4.490  12.335  0.00  0.00    +0.000 C 
BRANCH  14  17
ATOM     17  C   UNL     1      44.165   4.291   9.874  0.00  0.00    +0.000 C 
ATOM     18  C   UNL     1      44.335   2.829  10.317  0.00  0.00    +0.000 C 
ATOM     19  C   UNL     1      44.589   1.912   9.122  0.00  0.00    +0.000 C 
ATOM     20  C   UNL     1      45.792   2.377   8.307  0.00  0.00    +0.000 C 
ATOM     21  C   UNL     1      45.649   3.834   7.874  0.00  0.00    +0.000 C 
ATOM     22  C   UNL     1      45.385   4.758   9.064  0.00  0.00    +0.000 C 
ENDBRANCH  14  17
ENDBRANCH   5  14
TORSDOF 3
ENDMDL
MODEL 4
REMARK VINA RESULT:    -6.454      3.345      6.260
REMARK INTER + INTRA:          -7.089
REMARK INTER:                  -7.646
REMARK INTRA:                   0.558
REMARK UNBOUND:                 0.497
REMARK  Name = 
REMARK  3 active torsions:
REMARK  status: ('A' for Active; 'I' for Inactive)
REMARK    1  A    between atoms: C_2  and  C_4
REMARK    2  A    between atoms: N_8  and  C_9
REMARK    3  A    between atoms: C_9  and  C_10
REMARK                            x       y       z     vdW  Elec       q    Type
REMARK                         _______ _______ _______ _____ _____    ______ ____
ROOT
ATOM      1  C   UNL     1      47.540   7.304  13.451  0.00  0.00    +0.000 A 
ATOM      2  C   UNL     1      47.828   6.181  14.203  0.00  0.00    +0.000 A 
ATOM      3  C   UNL     1      47.041   5.047  14.010  0.00  0.00    +0.000 A 
ATOM      4  C   UNL     1      46.016   5.054  13.066  0.00  0.00    +0.000 A 
ATOM      5  N   UNL     1      45.323   3.839  12.868  0.00  0.00    +0.000 N 
ATOM      6  N   UNL     1      45.782   6.170  12.343  0.00  0.00    +0.000 NA
ATOM      7  N   UNL     1      46.534   7.318  12.547  0.00  0.00    +0.000 NA
ATOM      8  H   UNL     1      44.986   3.467  13.750  0.00  0.00    +0.000 HD
ENDROOT
BRANCH   1  10
ATOM      9  N   UNL     1      47.770   9.562  14.330  0.00  0.00    +0.000 N 
ATOM     10  C   UNL     1      48.348   8.543  13.615  0.00  0.00    +0.000 C 
ATOM     11  O   UNL     1      49.475   8.654  13.152  0.00  0.00    +0.000 OA
ATOM     12  H   UNL     1      48.291  10.418  14.467  0.00  0.00    +0.000 HD
ATOM     13  H   UNL     1      46.850   9.458  14.739  0.00  0.00    +0.000 HD
ENDBRANCH   1  10
BRANCH   5  14
ATOM     14  C   UNL     1      44.546   3.515  11.653  0.00  0.00    +0.000 C 
ATOM     15  C   UNL     1      43.189   4.210  11.624  0.00  0.00    +0.000 C 
ATOM     16  C   UNL     1      43.255   2.721  11.688  0.00  0.00    +0.000 C 
BRANCH  14  17
ATOM     17  C   UNL     1      45.335   3.420  10.339  0.00  0.00    +0.000 C 
ATOM     18  C   UNL     1      45.149   4.681   9.481  0.00  0.00    +0.000 C 
ATOM     19  C   UNL     1      45.974   4.609   8.199  0.00  0.00    +0.000 C 
ATOM     20  C   UNL     1      45.652   3.352   7.396  0.00  0.00    +0.000 C 
ATOM     21  C   UNL     1      45.815   2.089   8.239  0.00  0.00    +0.000 C 
ATOM     22  C   UNL     1      44.997   2.158   9.530  0.00  0.00    +0.000 C 
ENDBRANCH  14  17
ENDBRANCH   5  14
TORSDOF 3
ENDMDL
MODEL 5
REMARK VINA RESULT:    -6.319      3.657      5.585
REMARK INTER + INTRA:          -6.930
REMARK INTER:                  -6.252
REMARK INTRA:                  -0.678
REMARK UNBOUND:                 0.497
REMARK  Name = 
REMARK  3 active torsions:
REMARK  status: ('A' for Active; 'I' for Inactive)
REMARK    1  A    between atoms: C_2  and  C_4
REMARK    2  A    between atoms: N_8  and  C_9
REMARK    3  A    between atoms: C_9  and  C_10
REMARK                            x       y       z     vdW  Elec       q    Type
REMARK                         _______ _______ _______ _____ _____    ______ ____
ROOT
ATOM      1  C   UNL     1      44.733   4.858  11.981  0.00  0.00    +0.000 A 
ATOM      2  C   UNL     1      44.223   6.062  11.535  0.00  0.00    +0.000 A 
ATOM      3  C   UNL     1      44.989   7.210  11.739  0.00  0.00    +0.000 A 
ATOM      4  C   UNL     1      46.238   7.123  12.350  0.00  0.00    +0.000 A 
ATOM      5  N   UNL     1      46.988   8.317  12.439  0.00  0.00    +0.000 N 
ATOM      6  N   UNL     1      46.701   5.921  12.754  0.00  0.00    +0.000 NA
ATOM      7  N   UNL     1      45.937   4.774  12.590  0.00  0.00    +0.000 NA
ATOM      8  H   UNL     1      46.441   9.058  12.863  0.00  0.00    +0.000 HD
ENDROOT
BRANCH   1  10
ATOM      9  N   UNL     1      44.344   2.522  12.546  0.00  0.00    +0.000 N 
ATOM     10  C   UNL     1      43.958   3.601  11.790  0.00  0.00    +0.000 C 
ATOM     11  O   UNL     1      43.016   3.526  11.013  0.00  0.00    +0.000 OA
ATOM     12  H   UNL     1      43.839   1.652  12.448  0.00  0.00    +0.000 HD
ATOM     13  H   UNL     1      45.104   2.595  13.211  0.00  0.00    +0.000 HD
ENDBRANCH   1  10
BRANCH   5  14
ATOM     14  C   UNL     1      48.454   8.363  12.627  0.00  0.00    +0.000 C 
ATOM     15  C   UNL     1      49.150   9.227  11.580  0.00  0.00    +0.000 C 
ATOM     16  C   UNL     1      49.431   7.763  11.634  0.00  0.00    +0.000 C 
BRANCH  14  17
ATOM     17  C   UNL     1      48.959   8.438  14.075  0.00  0.00    +0.000 C 
ATOM     18  C   UNL     1      49.461   7.071  14.564  0.00  0.00    +0.000 C 
ATOM     19  C   UNL     1      50.010   7.156  15.987  0.00  0.00    +0.000 C 
ATOM     20  C   UNL     1      48.978   7.734  16.951  0.00  0.00    +0.000 C 
ATOM     21  C   UNL     1      48.454   9.085  16.470  0.00  0.00    +0.000 C 
ATOM     22  C   UNL     1      47.911   9.009  15.042  0.00  0.00    +0.000 C 
ENDBRANCH  14  17
ENDBRANCH   5  14
TORSDOF 3
ENDMDL
MODEL 6
REMARK VINA RESULT:    -6.266      5.588      7.906
REMARK INTER + INTRA:          -6.867
REMARK INTER:                  -6.255
REMARK INTRA:                  -0.612
REMARK UNBOUND:                 0.497
REMARK  Name = 
REMARK  3 active torsions:
REMARK  status: ('A' for Active; 'I' for Inactive)
REMARK    1  A    between atoms: C_2  and  C_4
REMARK    2  A    between atoms: N_8  and  C_9
REMARK    3  A    between atoms: C_9  and  C_10
REMARK                            x       y       z     vdW  Elec       q    Type
REMARK                         _______ _______ _______ _____ _____    ______ ____
ROOT
ATOM      1  C   UNL     1      46.638   4.777  13.885  0.00  0.00    +0.000 A 
ATOM      2  C   UNL     1      47.333   5.919  13.536  0.00  0.00    +0.000 A 
ATOM      3  C   UNL     1      48.243   6.436  14.457  0.00  0.00    +0.000 A 
ATOM      4  C   UNL     1      48.452   5.794  15.676  0.00  0.00    +0.000 A 
ATOM      5  N   UNL     1      49.454   6.330  16.515  0.00  0.00    +0.000 N 
ATOM      6  N   UNL     1      47.761   4.670  15.966  0.00  0.00    +0.000 NA
ATOM      7  N   UNL     1      46.826   4.162  15.074  0.00  0.00    +0.000 NA
ATOM      8  H   UNL     1      49.310   7.323  16.662  0.00  0.00    +0.000 HD
ENDROOT
BRANCH   1  10
ATOM      9  N   UNL     1      45.705   2.820  12.778  0.00  0.00    +0.000 N 
ATOM     10  C   UNL     1      45.654   4.182  12.940  0.00  0.00    +0.000 C 
ATOM     11  O   UNL     1      44.827   4.860  12.344  0.00  0.00    +0.000 OA
ATOM     12  H   UNL     1      45.049   2.378  12.149  0.00  0.00    +0.000 HD
ATOM     13  H   UNL     1      46.369   2.256  13.295  0.00  0.00    +0.000 HD
ENDBRANCH   1  10
BRANCH   5  14
ATOM     14  C   UNL     1      50.124   5.573  17.595  0.00  0.00    +0.000 C 
ATOM     15  C   UNL     1      51.633   5.483  17.396  0.00  0.00    +0.000 C 
ATOM     16  C   UNL     1      50.808   4.240  17.365  0.00  0.00    +0.000 C 
BRANCH  14  17
ATOM     17  C   UNL     1      49.597   5.799  19.019  0.00  0.00    +0.000 C 
ATOM     18  C   UNL     1      49.014   4.506  19.612  0.00  0.00    +0.000 C 
ATOM     19  C   UNL     1      48.536   4.718  21.047  0.00  0.00    +0.000 C 
ATOM     20  C   UNL     1      47.530   5.862  21.139  0.00  0.00    +0.000 C 
ATOM     21  C   UNL     1      48.087   7.150  20.538  0.00  0.00    +0.000 C 
ATOM     22  C   UNL     1      48.575   6.944  19.103  0.00  0.00    +0.000 C 
ENDBRANCH  14  17
ENDBRANCH   5  14
TORSDOF 3
ENDMDL
MODEL 7
REMARK VINA RESULT:    -6.122      2.348      3.912
REMARK INTER + INTRA:          -6.698
REMARK INTER:                  -6.135
REMARK INTRA:                  -0.563
REMARK UNBOUND:                 0.497
REMARK  Name = 
REMARK  3 active torsions:
REMARK  status: ('A' for Active; 'I' for Inactive)
REMARK    1  A    between atoms: C_2  and  C_4
REMARK    2  A    between atoms: N_8  and  C_9
REMARK    3  A    between atoms: C_9  and  C_10
REMARK                            x       y       z     vdW  Elec       q    Type
REMARK                         _______ _______ _______ _____ _____    ______ ____
ROOT
ATOM      1  C   UNL     1      44.630   4.250   9.860  0.00  0.00    +0.000 A 
ATOM      2  C   UNL     1      43.603   4.409  10.770  0.00  0.00    +0.000 A 
ATOM      3  C   UNL     1      43.675   5.483  11.655  0.00  0.00    +0.000 A 
ATOM      4  C   UNL     1      44.745   6.375  11.593  0.00  0.00    +0.000 A 
ATOM      5  N   UNL     1      44.699   7.486  12.464  0.00  0.00    +0.000 N 
ATOM      6  N   UNL     1      45.717   6.187  10.675  0.00  0.00    +0.000 NA
ATOM      7  N   UNL     1      45.678   5.104   9.810  0.00  0.00    +0.000 NA
ATOM      8  H   UNL     1      44.544   7.189  13.421  0.00  0.00    +0.000 HD
ENDROOT
BRANCH   1  10
ATOM      9  N   UNL     1      44.517   1.857   9.422  0.00  0.00    +0.000 N 
ATOM     10  C   UNL     1      44.604   3.120   8.891  0.00  0.00    +0.000 C 
ATOM     11  O   UNL     1      44.645   3.296   7.681  0.00  0.00    +0.000 OA
ATOM     12  H   UNL     1      44.492   1.065   8.796  0.00  0.00    +0.000 HD
ATOM     13  H   UNL     1      44.452   1.714  10.423  0.00  0.00    +0.000 HD
ENDBRANCH   1  10
BRANCH   5  14
ATOM     14  C   UNL     1      45.461   8.736  12.255  0.00  0.00    +0.000 C 
ATOM     15  C   UNL     1      44.583   9.979  12.352  0.00  0.00    +0.000 C 
ATOM     16  C   UNL     1      45.245   9.642  11.058  0.00  0.00    +0.000 C 
BRANCH  14  17
ATOM     17  C   UNL     1      46.865   8.795  12.873  0.00  0.00    +0.000 C 
ATOM     18  C   UNL     1      47.936   9.070  11.805  0.00  0.00    +0.000 C 
ATOM     19  C   UNL     1      49.326   9.179  12.427  0.00  0.00    +0.000 C 
ATOM     20  C   UNL     1      49.674   7.936  13.241  0.00  0.00    +0.000 C 
ATOM     21  C   UNL     1      48.611   7.637  14.295  0.00  0.00    +0.000 C 
ATOM     22  C   UNL     1      47.214   7.535  13.680  0.00  0.00    +0.000 C 
ENDBRANCH  14  17
ENDBRANCH   5  14
TORSDOF 3
ENDMDL
MODEL 8
REMARK VINA RESULT:    -6.025      3.263      5.240
REMARK INTER + INTRA:          -6.585
REMARK INTER:                  -6.671
REMARK INTRA:                   0.086
REMARK UNBOUND:                 0.497
REMARK  Name = 
REMARK  3 active torsions:
REMARK  status: ('A' for Active; 'I' for Inactive)
REMARK    1  A    between atoms: C_2  and  C_4
REMARK    2  A    between atoms: N_8  and  C_9
REMARK    3  A    between atoms: C_9  and  C_10
REMARK                            x       y       z     vdW  Elec       q    Type
REMARK                         _______ _______ _______ _____ _____    ______ ____
ROOT
ATOM      1  C   UNL     1      44.922   3.934  11.307  0.00  0.00    +0.000 A 
ATOM      2  C   UNL     1      45.428   3.636  12.557  0.00  0.00    +0.000 A 
ATOM      3  C   UNL     1      46.315   4.543  13.136  0.00  0.00    +0.000 A 
ATOM      4  C   UNL     1      46.650   5.721  12.472  0.00  0.00    +0.000 A 
ATOM      5  N   UNL     1      47.484   6.627  13.163  0.00  0.00    +0.000 N 
ATOM      6  N   UNL     1      46.117   5.977  11.257  0.00  0.00    +0.000 NA
ATOM      7  N   UNL     1      45.260   5.069  10.653  0.00  0.00    +0.000 NA
ATOM      8  H   UNL     1      48.321   6.164  13.500  0.00  0.00    +0.000 HD
ENDROOT
BRANCH   1  10
ATOM      9  N   UNL     1      44.182   2.760   9.306  0.00  0.00    +0.000 N 
ATOM     10  C   UNL     1      43.971   3.002  10.641  0.00  0.00    +0.000 C 
ATOM     11  O   UNL     1      43.055   2.463  11.246  0.00  0.00    +0.000 OA
ATOM     12  H   UNL     1      43.560   2.129   8.821  0.00  0.00    +0.000 HD
ATOM     13  H   UNL     1      44.960   3.183   8.815  0.00  0.00    +0.000 HD
ENDBRANCH   1  10
BRANCH   5  14
ATOM     14  C   UNL     1      47.585   8.068  12.847  0.00  0.00    +0.000 C 
ATOM     15  C   UNL     1      47.366   8.952  14.070  0.00  0.00    +0.000 C 
ATOM     16  C   UNL     1      46.404   9.015  12.931  0.00  0.00    +0.000 C 
BRANCH  14  17
ATOM     17  C   UNL     1      48.680   8.476  11.850  0.00  0.00    +0.000 C 
ATOM     18  C   UNL     1      49.970   7.672  12.074  0.00  0.00    +0.000 C 
ATOM     19  C   UNL     1      51.041   8.041  11.050  0.00  0.00    +0.000 C 
ATOM     20  C   UNL     1      51.325   9.540  11.054  0.00  0.00    +0.000 C 
ATOM     21  C   UNL     1      50.051  10.355  10.850  0.00  0.00    +0.000 C 
ATOM     22  C   UNL     1      48.970   9.985  11.867  0.00  0.00    +0.000 C 
ENDBRANCH  14  17
ENDBRANCH   5  14
TORSDOF 3
ENDMDL
MODEL 9
REMARK VINA RESULT:    -5.757      4.251      6.288
REMARK INTER + INTRA:          -6.270
REMARK INTER:                  -5.693
REMARK INTRA:                  -0.577
REMARK UNBOUND:                 0.497
REMARK  Name = 
REMARK  3 active torsions:
REMARK  status: ('A' for Active; 'I' for Inactive)
REMARK    1  A    between atoms: C_2  and  C_4
REMARK    2  A    between atoms: N_8  and  C_9
REMARK    3  A    between atoms: C_9  and  C_10
REMARK                            x       y       z     vdW  Elec       q    Type
REMARK                         _______ _______ _______ _____ _____    ______ ____
ROOT
ATOM      1  C   UNL     1      44.609   5.895  11.980  0.00  0.00    +0.000 A 
ATOM      2  C   UNL     1      45.184   4.853  12.681  0.00  0.00    +0.000 A 
ATOM      3  C   UNL     1      46.404   5.088  13.315  0.00  0.00    +0.000 A 
ATOM      4  C   UNL     1      46.997   6.348  13.254  0.00  0.00    +0.000 A 
ATOM      5  N   UNL     1      48.186   6.528  13.996  0.00  0.00    +0.000 N 
ATOM      6  N   UNL     1      46.388   7.340  12.569  0.00  0.00    +0.000 NA
ATOM      7  N   UNL     1      45.192   7.113  11.905  0.00  0.00    +0.000 NA
ATOM      8  H   UNL     1      48.865   5.809  13.772  0.00  0.00    +0.000 HD
ENDROOT
BRANCH   1  10
ATOM      9  N   UNL     1      42.227   6.369  11.805  0.00  0.00    +0.000 N 
ATOM     10  C   UNL     1      43.307   5.701  11.284  0.00  0.00    +0.000 C 
ATOM     11  O   UNL     1      43.197   4.996  10.290  0.00  0.00    +0.000 OA
ATOM     12  H   UNL     1      41.327   6.266  11.356  0.00  0.00    +0.000 HD
ATOM     13  H   UNL     1      42.326   6.976  12.609  0.00  0.00    +0.000 HD
ENDBRANCH   1  10
BRANCH   5  14
ATOM     14  C   UNL     1      48.706   7.846  14.421  0.00  0.00    +0.000 C 
ATOM     15  C   UNL     1      48.987   7.908  15.918  0.00  0.00    +0.000 C 
ATOM     16  C   UNL     1      47.933   8.783  15.327  0.00  0.00    +0.000 C 
BRANCH  14  17
ATOM     17  C   UNL     1      49.701   8.529  13.471  0.00  0.00    +0.000 C 
ATOM     18  C   UNL     1      49.202   9.917  13.041  0.00  0.00    +0.000 C 
ATOM     19  C   UNL     1      50.215  10.617  12.138  0.00  0.00    +0.000 C 
ATOM     20  C   UNL     1      50.565   9.764  10.923  0.00  0.00    +0.000 C 
ATOM     21  C   UNL     1      51.046   8.374  11.331  0.00  0.00    +0.000 C 
ATOM     22  C   UNL     1      50.040   7.669  12.244  0.00  0.00    +0.000 C 
ENDBRANCH  14  17
ENDBRANCH   5  14
TORSDOF 3
ENDMDL
