MODEL 1
REMARK VINA RESULT:    -8.240      0.000      0.000
REMARK INTER + INTRA:         -12.132
REMARK INTER:                 -10.889
REMARK INTRA:                  -1.243
REMARK UNBOUND:                -1.243
REMARK  Name = 
REMARK  9 active torsions:
REMARK  status: ('A' for Active; 'I' for Inactive)
REMARK    1  A    between atoms: C_1  and  C_2
REMARK    2  A    between atoms: C_2  and  N_3
REMARK    3  A    between atoms: C_2  and  C_17
REMARK    4  A    between atoms: C_4  and  C_6
REMARK    5  A    between atoms: N_12  and  C_13
REMARK    6  A    between atoms: C_20  and  C_21
REMARK    7  A    between atoms: C_21  and  C_22
REMARK    8  A    between atoms: C_21  and  O_23
REMARK    9  A    between atoms: C_21  and  C_24
REMARK                            x       y       z     vdW  Elec       q    Type
REMARK                         _______ _______ _______ _____ _____    ______ ____
ROOT
ATOM      1  C   UNL     1      49.539   7.563  13.151  0.00  0.00    +0.000 C 
ATOM      2  C   UNL     1      48.121   7.751  13.699  0.00  0.00    +0.000 C 
ENDROOT
BRANCH   2   3
ATOM      3  C   UNL     1      47.074   6.902  12.989  0.00  0.00    +0.000 A 
ATOM      4  C   UNL     1      46.231   7.501  12.043  0.00  0.00    +0.000 A 
ATOM      5  C   UNL     1      45.286   6.747  11.335  0.00  0.00    +0.000 A 
ATOM      6  C   UNL     1      45.146   5.367  11.550  0.00  0.00    +0.000 A 
ATOM      7  C   UNL     1      45.921   4.795  12.575  0.00  0.00    +0.000 A 
ATOM      8  C   UNL     1      46.869   5.547  13.279  0.00  0.00    +0.000 A 
BRANCH   6   9
ATOM      9  C   UNL     1      44.208   4.489  10.707  0.00  0.00    +0.000 C 
ATOM     10  C   UNL     1      43.392   3.492  11.553  0.00  0.00    +0.000 C 
BRANCH   9  11
ATOM     11  C   UNL     1      44.929   3.742   9.584  0.00  0.00    +0.000 A 
ATOM     12  C   UNL     1      45.600   4.436   8.567  0.00  0.00    +0.000 A 
ATOM     13  C   UNL     1      46.282   3.722   7.591  0.00  0.00    +0.000 A 
ATOM     14  N   UNL     1      46.345   2.375   7.549  0.00  0.00    +0.000 NA
ATOM     15  C   UNL     1      45.698   1.716   8.532  0.00  0.00    +0.000 A 
ATOM     16  C   UNL     1      44.991   2.342   9.549  0.00  0.00    +0.000 A 
ENDBRANCH   9  11
BRANCH   9  17
ATOM     17  O   UNL     1      43.205   5.352  10.134  0.00  0.00    +0.000 OA
ATOM     18  H   UNL     1      42.343   4.952  10.343  0.00  0.00    +0.000 HD
ENDBRANCH   9  17
ENDBRANCH   6   9
ENDBRANCH   2   3
BRANCH   2  19
ATOM     19  N   UNL     1      48.082   7.472  15.117  0.00  0.00    +0.000 N 
ATOM     20  C   UNL     1      48.561   8.333  16.070  0.00  0.00    +0.000 C 
ATOM     21  O   UNL     1      49.097   9.400  15.782  0.00  0.00    +0.000 OA
ATOM     22  H   UNL     1      47.540   6.663  15.402  0.00  0.00    +0.000 HD
BRANCH  20  23
ATOM     23  C   UNL     1      48.439   7.888  17.465  0.00  0.00    +0.000 A 
ATOM     24  C   UNL     1      48.043   8.788  18.444  0.00  0.00    +0.000 A 
ATOM     25  S   UNL     1      47.955   8.103  20.003  0.00  0.00    +0.000 S 
ATOM     26  C   UNL     1      48.404   6.571  19.417  0.00  0.00    +0.000 A 
ATOM     27  N   UNL     1      48.482   5.500  20.247  0.00  0.00    +0.000 NA
ATOM     28  C   UNL     1      48.810   4.392  19.667  0.00  0.00    +0.000 A 
ATOM     29  N   UNL     1      49.082   4.245  18.326  0.00  0.00    +0.000 N 
ATOM     30  C   UNL     1      49.463   2.958  17.776  0.00  0.00    +0.000 C 
ATOM     31  C   UNL     1      49.050   5.326  17.455  0.00  0.00    +0.000 A 
ATOM     32  O   UNL     1      49.362   5.228  16.271  0.00  0.00    +0.000 OA
ATOM     33  C   UNL     1      48.652   6.587  18.058  0.00  0.00    +0.000 A 
ENDBRANCH  20  23
ENDBRANCH   2  19
TORSDOF 6
ENDMDL
MODEL 2
REMARK VINA RESULT:    -8.050      1.735      1.921
REMARK INTER + INTRA:         -11.881
REMARK INTER:                 -10.314
REMARK INTRA:                  -1.567
REMARK UNBOUND:                -1.243
REMARK  Name = 
REMARK  9 active torsions:
REMARK  status: ('A' for Active; 'I' for Inactive)
REMARK    1  A    between atoms: C_1  and  C_2
REMARK    2  A    between atoms: C_2  and  N_3
REMARK    3  A    between atoms: C_2  and  C_17
REMARK    4  A    between atoms: C_4  and  C_6
REMARK    5  A    between atoms: N_12  and  C_13
REMARK    6  A    between atoms: C_20  and  C_21
REMARK    7  A    between atoms: C_21  and  C_22
REMARK    8  A    between atoms: C_21  and  O_23
REMARK    9  A    between atoms: C_21  and  C_24
REMARK                            x       y       z     vdW  Elec       q    Type
REMARK                         _______ _______ _______ _____ _____    ______ ____
ROOT
ATOM      1  C   UNL     1      48.690   9.054  12.467  0.00  0.00    +0.000 C 
ATOM      2  C   UNL     1      47.930   8.191  13.479  0.00  0.00    +0.000 C 
ENDROOT
BRANCH   2   3
ATOM      3  C   UNL     1      46.904   7.263  12.841  0.00  0.00    +0.000 A 
ATOM      4  C   UNL     1      45.917   7.803  12.004  0.00  0.00    +0.000 A 
ATOM      5  C   UNL     1      44.983   6.981  11.362  0.00  0.00    +0.000 A 
ATOM      6  C   UNL     1      44.997   5.588  11.536  0.00  0.00    +0.000 A 
ATOM      7  C   UNL     1      45.921   5.066  12.458  0.00  0.00    +0.000 A 
ATOM      8  C   UNL     1      46.858   5.887  13.097  0.00  0.00    +0.000 A 
BRANCH   6   9
ATOM      9  C   UNL     1      44.068   4.646  10.753  0.00  0.00    +0.000 C 
ATOM     10  C   UNL     1      43.265   3.697  11.664  0.00  0.00    +0.000 C 
BRANCH   9  11
ATOM     11  C   UNL     1      44.796   3.836   9.679  0.00  0.00    +0.000 A 
ATOM     12  C   UNL     1      45.547   4.470   8.679  0.00  0.00    +0.000 A 
ATOM     13  C   UNL     1      46.231   3.698   7.750  0.00  0.00    +0.000 A 
ATOM     14  N   UNL     1      46.224   2.350   7.739  0.00  0.00    +0.000 NA
ATOM     15  C   UNL     1      45.499   1.749   8.706  0.00  0.00    +0.000 A 
ATOM     16  C   UNL     1      44.784   2.434   9.676  0.00  0.00    +0.000 A 
ENDBRANCH   9  11
BRANCH   9  17
ATOM     17  O   UNL     1      43.054   5.459  10.127  0.00  0.00    +0.000 OA
ATOM     18  H   UNL     1      43.149   6.354  10.496  0.00  0.00    +0.000 HD
ENDBRANCH   9  17
ENDBRANCH   6   9
ENDBRANCH   2   3
BRANCH   2  19
ATOM     19  N   UNL     1      48.851   7.410  14.275  0.00  0.00    +0.000 N 
ATOM     20  C   UNL     1      49.352   7.829  15.480  0.00  0.00    +0.000 C 
ATOM     21  O   UNL     1      49.080   8.928  15.958  0.00  0.00    +0.000 OA
ATOM     22  H   UNL     1      49.003   6.452  13.977  0.00  0.00    +0.000 HD
BRANCH  20  23
ATOM     23  C   UNL     1      50.276   6.907  16.154  0.00  0.00    +0.000 A 
ATOM     24  C   UNL     1      51.606   7.263  16.321  0.00  0.00    +0.000 A 
ATOM     25  S   UNL     1      52.532   6.076  17.122  0.00  0.00    +0.000 S 
ATOM     26  C   UNL     1      51.178   5.064  17.309  0.00  0.00    +0.000 A 
ATOM     27  N   UNL     1      51.277   3.877  17.960  0.00  0.00    +0.000 NA
ATOM     28  C   UNL     1      50.167   3.220  18.051  0.00  0.00    +0.000 A 
ATOM     29  N   UNL     1      48.956   3.627  17.542  0.00  0.00    +0.000 N 
ATOM     30  C   UNL     1      47.770   2.803  17.680  0.00  0.00    +0.000 C 
ATOM     31  C   UNL     1      48.827   4.815  16.835  0.00  0.00    +0.000 A 
ATOM     32  O   UNL     1      47.771   5.159  16.310  0.00  0.00    +0.000 OA
ATOM     33  C   UNL     1      50.043   5.605  16.738  0.00  0.00    +0.000 A 
ENDBRANCH  20  23
ENDBRANCH   2  19
TORSDOF 6
ENDMDL
MODEL 3
REMARK VINA RESULT:    -7.327      4.759      8.379
REMARK INTER + INTRA:         -10.925
REMARK INTER:                  -9.593
REMARK INTRA:                  -1.333
REMARK UNBOUND:                -1.243
REMARK  Name = 
REMARK  9 active torsions:
REMARK  status: ('A' for Active; 'I' for Inactive)
REMARK    1  A    between atoms: C_1  and  C_2
REMARK    2  A    between atoms: C_2  and  N_3
REMARK    3  A    between atoms: C_2  and  C_17
REMARK    4  A    between atoms: C_4  and  C_6
REMARK    5  A    between atoms: N_12  and  C_13
REMARK    6  A    between atoms: C_20  and  C_21
REMARK    7  A    between atoms: C_21  and  C_22
REMARK    8  A    between atoms: C_21  and  O_23
REMARK    9  A    between atoms: C_21  and  C_24
REMARK                            x       y       z     vdW  Elec       q    Type
REMARK                         _______ _______ _______ _____ _____    ______ ____
ROOT
ATOM      1  C   UNL     1      45.667   8.884  13.236  0.00  0.00    +0.000 C 
ATOM      2  C   UNL     1      46.226   8.367  11.907  0.00  0.00    +0.000 C 
ENDROOT
BRANCH   2   3
ATOM      3  C   UNL     1      47.741   8.482  11.795  0.00  0.00    +0.000 A 
ATOM      4  C   UNL     1      48.528   7.330  11.923  0.00  0.00    +0.000 A 
ATOM      5  C   UNL     1      49.921   7.384  11.782  0.00  0.00    +0.000 A 
ATOM      6  C   UNL     1      50.579   8.595  11.512  0.00  0.00    +0.000 A 
ATOM      7  C   UNL     1      49.794   9.760  11.490  0.00  0.00    +0.000 A 
ATOM      8  C   UNL     1      48.401   9.706  11.627  0.00  0.00    +0.000 A 
BRANCH   6   9
ATOM      9  C   UNL     1      52.088   8.672  11.229  0.00  0.00    +0.000 C 
ATOM     10  C   UNL     1      52.713  10.014  11.656  0.00  0.00    +0.000 C 
BRANCH   9  11
ATOM     11  C   UNL     1      52.444   8.377   9.771  0.00  0.00    +0.000 A 
ATOM     12  C   UNL     1      52.813   9.407   8.894  0.00  0.00    +0.000 A 
ATOM     13  C   UNL     1      53.174   9.093   7.591  0.00  0.00    +0.000 A 
ATOM     14  N   UNL     1      53.193   7.839   7.095  0.00  0.00    +0.000 NA
ATOM     15  C   UNL     1      52.837   6.855   7.947  0.00  0.00    +0.000 A 
ATOM     16  C   UNL     1      52.462   7.070   9.265  0.00  0.00    +0.000 A 
ENDBRANCH   9  11
BRANCH   9  17
ATOM     17  O   UNL     1      52.738   7.705  12.080  0.00  0.00    +0.000 OA
ATOM     18  H   UNL     1      52.934   8.161  12.917  0.00  0.00    +0.000 HD
ENDBRANCH   9  17
ENDBRANCH   6   9
ENDBRANCH   2   3
BRANCH   2  19
ATOM     19  N   UNL     1      45.835   6.991  11.691  0.00  0.00    +0.000 N 
ATOM     20  C   UNL     1      44.560   6.612  11.358  0.00  0.00    +0.000 C 
ATOM     21  O   UNL     1      43.640   7.420  11.254  0.00  0.00    +0.000 OA
ATOM     22  H   UNL     1      46.586   6.311  11.647  0.00  0.00    +0.000 HD
BRANCH  20  23
ATOM     23  C   UNL     1      44.340   5.171  11.175  0.00  0.00    +0.000 A 
ATOM     24  C   UNL     1      43.547   4.474  12.076  0.00  0.00    +0.000 A 
ATOM     25  S   UNL     1      43.400   2.815  11.711  0.00  0.00    +0.000 S 
ATOM     26  C   UNL     1      44.358   2.979  10.315  0.00  0.00    +0.000 A 
ATOM     27  N   UNL     1      44.599   1.917   9.505  0.00  0.00    +0.000 NA
ATOM     28  C   UNL     1      45.321   2.187   8.466  0.00  0.00    +0.000 A 
ATOM     29  N   UNL     1      45.842   3.422   8.157  0.00  0.00    +0.000 N 
ATOM     30  C   UNL     1      46.660   3.615   6.975  0.00  0.00    +0.000 C 
ATOM     31  C   UNL     1      45.649   4.520   8.984  0.00  0.00    +0.000 A 
ATOM     32  O   UNL     1      46.168   5.612   8.763  0.00  0.00    +0.000 OA
ATOM     33  C   UNL     1      44.813   4.272  10.147  0.00  0.00    +0.000 A 
ENDBRANCH  20  23
ENDBRANCH   2  19
TORSDOF 6
ENDMDL
MODEL 4
REMARK VINA RESULT:    -7.133      1.863      3.852
REMARK INTER + INTRA:         -10.670
REMARK INTER:                  -9.297
REMARK INTRA:                  -1.373
REMARK UNBOUND:                -1.243
REMARK  Name = 
REMARK  9 active torsions:
REMARK  status: ('A' for Active; 'I' for Inactive)
REMARK    1  A    between atoms: C_1  and  C_2
REMARK    2  A    between atoms: C_2  and  N_3
REMARK    3  A    between atoms: C_2  and  C_17
REMARK    4  A    between atoms: C_4  and  C_6
REMARK    5  A    between atoms: N_12  and  C_13
REMARK    6  A    between atoms: C_20  and  C_21
REMARK    7  A    between atoms: C_21  and  C_22
REMARK    8  A    between atoms: C_21  and  O_23
REMARK    9  A    between atoms: C_21  and  C_24
REMARK                            x       y       z     vdW  Elec       q    Type
REMARK                         _______ _______ _______ _____ _____    ______ ____
ROOT
ATOM      1  C   UNL     1      47.224   3.765  16.899  0.00  0.00    +0.000 C 
ATOM      2  C   UNL     1      47.878   4.559  15.764  0.00  0.00    +0.000 C 
ENDROOT
BRANCH   2   3
ATOM      3  C   UNL     1      47.053   4.584  14.483  0.00  0.00    +0.000 A 
ATOM      4  C   UNL     1      46.754   3.377  13.836  0.00  0.00    +0.000 A 
ATOM      5  C   UNL     1      45.961   3.351  12.682  0.00  0.00    +0.000 A 
ATOM      6  C   UNL     1      45.442   4.532  12.128  0.00  0.00    +0.000 A 
ATOM      7  C   UNL     1      45.834   5.745  12.721  0.00  0.00    +0.000 A 
ATOM      8  C   UNL     1      46.623   5.771  13.877  0.00  0.00    +0.000 A 
BRANCH   6   9
ATOM      9  C   UNL     1      44.470   4.530  10.937  0.00  0.00    +0.000 C 
ATOM     10  C   UNL     1      43.100   3.909  11.278  0.00  0.00    +0.000 C 
BRANCH   9  11
ATOM     11  C   UNL     1      45.045   3.857   9.690  0.00  0.00    +0.000 A 
ATOM     12  C   UNL     1      45.697   4.605   8.699  0.00  0.00    +0.000 A 
ATOM     13  C   UNL     1      46.246   3.951   7.605  0.00  0.00    +0.000 A 
ATOM     14  N   UNL     1      46.195   2.616   7.421  0.00  0.00    +0.000 NA
ATOM     15  C   UNL     1      45.566   1.905   8.380  0.00  0.00    +0.000 A 
ATOM     16  C   UNL     1      44.988   2.468   9.508  0.00  0.00    +0.000 A 
ENDBRANCH   9  11
BRANCH   9  17
ATOM     17  O   UNL     1      44.155   5.904  10.632  0.00  0.00    +0.000 OA
ATOM     18  H   UNL     1      44.606   6.447  11.302  0.00  0.00    +0.000 HD
ENDBRANCH   9  17
ENDBRANCH   6   9
ENDBRANCH   2   3
BRANCH   2  19
ATOM     19  N   UNL     1      48.151   5.916  16.182  0.00  0.00    +0.000 N 
ATOM     20  C   UNL     1      49.394   6.354  16.561  0.00  0.00    +0.000 C 
ATOM     21  O   UNL     1      50.368   5.607  16.607  0.00  0.00    +0.000 OA
ATOM     22  H   UNL     1      47.405   6.589  16.042  0.00  0.00    +0.000 HD
BRANCH  20  23
ATOM     23  C   UNL     1      49.491   7.766  16.956  0.00  0.00    +0.000 A 
ATOM     24  C   UNL     1      49.769   8.096  18.274  0.00  0.00    +0.000 A 
ATOM     25  S   UNL     1      49.844   9.777  18.553  0.00  0.00    +0.000 S 
ATOM     26  C   UNL     1      49.547  10.120  16.914  0.00  0.00    +0.000 A 
ATOM     27  N   UNL     1      49.519  11.399  16.462  0.00  0.00    +0.000 NA
ATOM     28  C   UNL     1      49.308  11.516  15.192  0.00  0.00    +0.000 A 
ATOM     29  N   UNL     1      49.107  10.472  14.318  0.00  0.00    +0.000 N 
ATOM     30  C   UNL     1      48.857  10.712  12.910  0.00  0.00    +0.000 C 
ATOM     31  C   UNL     1      49.089   9.154  14.753  0.00  0.00    +0.000 A 
ATOM     32  O   UNL     1      48.839   8.215  14.002  0.00  0.00    +0.000 OA
ATOM     33  C   UNL     1      49.358   8.972  16.170  0.00  0.00    +0.000 A 
ENDBRANCH  20  23
ENDBRANCH   2  19
TORSDOF 6
ENDMDL
MODEL 5
REMARK VINA RESULT:    -7.025      2.106      3.450
REMARK INTER + INTRA:         -10.527
REMARK INTER:                  -9.102
REMARK INTRA:                  -1.424
REMARK UNBOUND:                -1.243
REMARK  Name = 
REMARK  9 active torsions:
REMARK  status: ('A' for Active; 'I' for Inactive)
REMARK    1  A    between atoms: C_1  and  C_2
REMARK    2  A    between atoms: C_2  and  N_3
REMARK    3  A    between atoms: C_2  and  C_17
REMARK    4  A    between atoms: C_4  and  C_6
REMARK    5  A    between atoms: N_12  and  C_13
REMARK    6  A    between atoms: C_20  and  C_21
REMARK    7  A    between atoms: C_21  and  C_22
REMARK    8  A    between atoms: C_21  and  O_23
REMARK    9  A    between atoms: C_21  and  C_24
REMARK                            x       y       z     vdW  Elec       q    Type
REMARK                         _______ _______ _______ _____ _____    ______ ____
ROOT
ATOM      1  C   UNL     1      47.347   4.242  16.574  0.00  0.00    +0.000 C 
ATOM      2  C   UNL     1      47.882   5.005  15.359  0.00  0.00    +0.000 C 
ENDROOT
BRANCH   2   3
ATOM      3  C   UNL     1      47.065   4.786  14.091  0.00  0.00    +0.000 A 
ATOM      4  C   UNL     1      46.742   3.479  13.702  0.00  0.00    +0.000 A 
ATOM      5  C   UNL     1      45.955   3.235  12.569  0.00  0.00    +0.000 A 
ATOM      6  C   UNL     1      45.465   4.290  11.781  0.00  0.00    +0.000 A 
ATOM      7  C   UNL     1      45.882   5.589  12.118  0.00  0.00    +0.000 A 
ATOM      8  C   UNL     1      46.666   5.834  13.253  0.00  0.00    +0.000 A 
BRANCH   6   9
ATOM      9  C   UNL     1      44.500   4.066  10.606  0.00  0.00    +0.000 C 
ATOM     10  C   UNL     1      43.281   3.202  10.984  0.00  0.00    +0.000 C 
BRANCH   9  11
ATOM     11  C   UNL     1      45.182   3.482   9.368  0.00  0.00    +0.000 A 
ATOM     12  C   UNL     1      45.748   4.315   8.392  0.00  0.00    +0.000 A 
ATOM     13  C   UNL     1      46.398   3.746   7.306  0.00  0.00    +0.000 A 
ATOM     14  N   UNL     1      46.527   2.417   7.117  0.00  0.00    +0.000 NA
ATOM     15  C   UNL     1      45.981   1.623   8.062  0.00  0.00    +0.000 A 
ATOM     16  C   UNL     1      45.312   2.099   9.180  0.00  0.00    +0.000 A 
ENDBRANCH   9  11
BRANCH   9  17
ATOM     17  O   UNL     1      43.922   5.344  10.270  0.00  0.00    +0.000 OA
ATOM     18  H   UNL     1      44.282   5.591   9.401  0.00  0.00    +0.000 HD
ENDBRANCH   9  17
ENDBRANCH   6   9
ENDBRANCH   2   3
BRANCH   2  19
ATOM     19  N   UNL     1      47.957   6.422  15.640  0.00  0.00    +0.000 N 
ATOM     20  C   UNL     1      49.125   7.139  15.602  0.00  0.00    +0.000 C 
ATOM     21  O   UNL     1      50.209   6.616  15.358  0.00  0.00    +0.000 OA
ATOM     22  H   UNL     1      47.073   6.911  15.725  0.00  0.00    +0.000 HD
BRANCH  20  23
ATOM     23  C   UNL     1      49.017   8.570  15.914  0.00  0.00    +0.000 A 
ATOM     24  C   UNL     1      49.368   9.513  14.959  0.00  0.00    +0.000 A 
ATOM     25  S   UNL     1      49.181  11.123  15.491  0.00  0.00    +0.000 S 
ATOM     26  C   UNL     1      48.586  10.614  17.001  0.00  0.00    +0.000 A 
ATOM     27  N   UNL     1      48.194  11.516  17.937  0.00  0.00    +0.000 NA
ATOM     28  C   UNL     1      47.740  10.994  19.029  0.00  0.00    +0.000 A 
ATOM     29  N   UNL     1      47.648   9.646  19.290  0.00  0.00    +0.000 N 
ATOM     30  C   UNL     1      47.142   9.162  20.560  0.00  0.00    +0.000 C 
ATOM     31  C   UNL     1      48.077   8.697  18.372  0.00  0.00    +0.000 A 
ATOM     32  O   UNL     1      48.072   7.493  18.616  0.00  0.00    +0.000 OA
ATOM     33  C   UNL     1      48.564   9.238  17.113  0.00  0.00    +0.000 A 
ENDBRANCH  20  23
ENDBRANCH   2  19
TORSDOF 6
ENDMDL
MODEL 6
REMARK VINA RESULT:    -6.666      4.779      8.836
REMARK INTER + INTRA:         -10.053
REMARK INTER:                  -8.754
REMARK INTRA:                  -1.298
REMARK UNBOUND:                -1.243
REMARK  Name = 
REMARK  9 active torsions:
REMARK  status: ('A' for Active; 'I' for Inactive)
REMARK    1  A    between atoms: C_1  and  C_2
REMARK    2  A    between atoms: C_2  and  N_3
REMARK    3  A    between atoms: C_2  and  C_17
REMARK    4  A    between atoms: C_4  and  C_6
REMARK    5  A    between atoms: N_12  and  C_13
REMARK    6  A    between atoms: C_20  and  C_21
REMARK    7  A    between atoms: C_21  and  C_22
REMARK    8  A    between atoms: C_21  and  O_23
REMARK    9  A    between atoms: C_21  and  C_24
REMARK                            x       y       z     vdW  Elec       q    Type
REMARK                         _______ _______ _______ _____ _____    ______ ____
ROOT
ATOM      1  C   UNL     1      45.452   8.821  13.188  0.00  0.00    +0.000 C 
ATOM      2  C   UNL     1      46.044   8.325  11.865  0.00  0.00    +0.000 C 
ENDROOT
BRANCH   2   3
ATOM      3  C   UNL     1      47.556   8.489  11.772  0.00  0.00    +0.000 A 
ATOM      4  C   UNL     1      48.373   7.351  11.800  0.00  0.00    +0.000 A 
ATOM      5  C   UNL     1      49.764   7.454  11.673  0.00  0.00    +0.000 A 
ATOM      6  C   UNL     1      50.390   8.701  11.517  0.00  0.00    +0.000 A 
ATOM      7  C   UNL     1      49.575   9.843  11.597  0.00  0.00    +0.000 A 
ATOM      8  C   UNL     1      48.184   9.740  11.720  0.00  0.00    +0.000 A 
BRANCH   6   9
ATOM      9  C   UNL     1      51.898   8.842  11.251  0.00  0.00    +0.000 C 
ATOM     10  C   UNL     1      52.373   8.033  10.028  0.00  0.00    +0.000 C 
BRANCH   9  11
ATOM     11  C   UNL     1      52.759   8.495  12.466  0.00  0.00    +0.000 A 
ATOM     12  C   UNL     1      54.003   7.864  12.316  0.00  0.00    +0.000 A 
ATOM     13  C   UNL     1      54.775   7.608  13.441  0.00  0.00    +0.000 A 
ATOM     14  N   UNL     1      54.406   7.927  14.697  0.00  0.00    +0.000 NA
ATOM     15  C   UNL     1      53.209   8.534  14.832  0.00  0.00    +0.000 A 
ATOM     16  C   UNL     1      52.368   8.832  13.770  0.00  0.00    +0.000 A 
ENDBRANCH   9  11
BRANCH   9  17
ATOM     17  O   UNL     1      52.144  10.212  10.872  0.00  0.00    +0.000 OA
ATOM     18  H   UNL     1      53.075  10.396  11.087  0.00  0.00    +0.000 HD
ENDBRANCH   9  17
ENDBRANCH   6   9
ENDBRANCH   2   3
BRANCH   2  19
ATOM     19  N   UNL     1      45.700   6.938  11.641  0.00  0.00    +0.000 N 
ATOM     20  C   UNL     1      44.439   6.517  11.306  0.00  0.00    +0.000 C 
ATOM     21  O   UNL     1      43.492   7.293  11.207  0.00  0.00    +0.000 OA
ATOM     22  H   UNL     1      46.474   6.284  11.593  0.00  0.00    +0.000 HD
BRANCH  20  23
ATOM     23  C   UNL     1      44.268   5.070  11.115  0.00  0.00    +0.000 A 
ATOM     24  C   UNL     1      43.482   4.345  11.999  0.00  0.00    +0.000 A 
ATOM     25  S   UNL     1      43.395   2.684  11.627  0.00  0.00    +0.000 S 
ATOM     26  C   UNL     1      44.372   2.883  10.249  0.00  0.00    +0.000 A 
ATOM     27  N   UNL     1      44.662   1.832   9.440  0.00  0.00    +0.000 NA
ATOM     28  C   UNL     1      45.394   2.128   8.416  0.00  0.00    +0.000 A 
ATOM     29  N   UNL     1      45.881   3.381   8.119  0.00  0.00    +0.000 N 
ATOM     30  C   UNL     1      46.713   3.604   6.953  0.00  0.00    +0.000 C 
ATOM     31  C   UNL     1      45.637   4.469   8.946  0.00  0.00    +0.000 A 
ATOM     32  O   UNL     1      46.125   5.578   8.738  0.00  0.00    +0.000 OA
ATOM     33  C   UNL     1      44.789   4.190  10.093  0.00  0.00    +0.000 A 
ENDBRANCH  20  23
ENDBRANCH   2  19
TORSDOF 6
ENDMDL
MODEL 7
REMARK VINA RESULT:    -6.585      3.192      7.641
REMARK INTER + INTRA:          -9.946
REMARK INTER:                  -8.351
REMARK INTRA:                  -1.595
REMARK UNBOUND:                -1.243
REMARK  Name = 
REMARK  9 active torsions:
REMARK  status: ('A' for Active; 'I' for Inactive)
REMARK    1  A    between atoms: C_1  and  C_2
REMARK    2  A    between atoms: C_2  and  N_3
REMARK    3  A    between atoms: C_2  and  C_17
REMARK    4  A    between atoms: C_4  and  C_6
REMARK    5  A    between atoms: N_12  and  C_13
REMARK    6  A    between atoms: C_20  and  C_21
REMARK    7  A    between atoms: C_21  and  C_22
REMARK    8  A    between atoms: C_21  and  O_23
REMARK    9  A    between atoms: C_21  and  C_24
REMARK                            x       y       z     vdW  Elec       q    Type
REMARK                         _______ _______ _______ _____ _____    ______ ____
ROOT
ATOM      1  C   UNL     1      48.087  10.838  17.002  0.00  0.00    +0.000 C 
ATOM      2  C   UNL     1      48.554   9.680  16.114  0.00  0.00    +0.000 C 
ENDROOT
BRANCH   2   3
ATOM      3  C   UNL     1      48.975   8.442  16.897  0.00  0.00    +0.000 A 
ATOM      4  C   UNL     1      48.271   8.091  18.056  0.00  0.00    +0.000 A 
ATOM      5  C   UNL     1      48.597   6.937  18.780  0.00  0.00    +0.000 A 
ATOM      6  C   UNL     1      49.643   6.093  18.372  0.00  0.00    +0.000 A 
ATOM      7  C   UNL     1      50.410   6.508  17.271  0.00  0.00    +0.000 A 
ATOM      8  C   UNL     1      50.082   7.660  16.545  0.00  0.00    +0.000 A 
BRANCH   6   9
ATOM      9  C   UNL     1      49.947   4.757  19.069  0.00  0.00    +0.000 C 
ATOM     10  C   UNL     1      51.266   4.780  19.867  0.00  0.00    +0.000 C 
BRANCH   9  11
ATOM     11  C   UNL     1      49.944   3.564  18.112  0.00  0.00    +0.000 A 
ATOM     12  C   UNL     1      48.795   3.220  17.387  0.00  0.00    +0.000 A 
ATOM     13  C   UNL     1      48.847   2.158  16.494  0.00  0.00    +0.000 A 
ATOM     14  N   UNL     1      49.949   1.414  16.271  0.00  0.00    +0.000 NA
ATOM     15  C   UNL     1      51.050   1.753  16.972  0.00  0.00    +0.000 A 
ATOM     16  C   UNL     1      51.096   2.797  17.886  0.00  0.00    +0.000 A 
ENDBRANCH   9  11
BRANCH   9  17
ATOM     17  O   UNL     1      48.939   4.555  20.081  0.00  0.00    +0.000 OA
ATOM     18  H   UNL     1      48.966   3.612  20.315  0.00  0.00    +0.000 HD
ENDBRANCH   9  17
ENDBRANCH   6   9
ENDBRANCH   2   3
BRANCH   2  19
ATOM     19  N   UNL     1      47.523   9.318  15.166  0.00  0.00    +0.000 N 
ATOM     20  C   UNL     1      47.787   8.872  13.897  0.00  0.00    +0.000 C 
ATOM     21  O   UNL     1      48.930   8.781  13.458  0.00  0.00    +0.000 OA
ATOM     22  H   UNL     1      46.577   9.263  15.529  0.00  0.00    +0.000 HD
BRANCH  20  23
ATOM     23  C   UNL     1      46.618   8.548  13.068  0.00  0.00    +0.000 A 
ATOM     24  C   UNL     1      45.911   9.565  12.444  0.00  0.00    +0.000 A 
ATOM     25  S   UNL     1      44.587   9.010  11.525  0.00  0.00    +0.000 S 
ATOM     26  C   UNL     1      44.937   7.388  11.897  0.00  0.00    +0.000 A 
ATOM     27  N   UNL     1      44.190   6.377  11.384  0.00  0.00    +0.000 NA
ATOM     28  C   UNL     1      44.580   5.193  11.728  0.00  0.00    +0.000 A 
ATOM     29  N   UNL     1      45.646   4.912  12.551  0.00  0.00    +0.000 N 
ATOM     30  C   UNL     1      45.989   3.546  12.894  0.00  0.00    +0.000 C 
ATOM     31  C   UNL     1      46.406   5.923  13.125  0.00  0.00    +0.000 A 
ATOM     32  O   UNL     1      47.314   5.694  13.921  0.00  0.00    +0.000 OA
ATOM     33  C   UNL     1      46.026   7.271  12.739  0.00  0.00    +0.000 A 
ENDBRANCH  20  23
ENDBRANCH   2  19
TORSDOF 6
ENDMDL
MODEL 8
REMARK VINA RESULT:    -6.546      4.209      9.149
REMARK INTER + INTRA:          -9.894
REMARK INTER:                  -8.661
REMARK INTRA:                  -1.232
REMARK UNBOUND:                -1.243
REMARK  Name = 
REMARK  9 active torsions:
REMARK  status: ('A' for Active; 'I' for Inactive)
REMARK    1  A    between atoms: C_1  and  C_2
REMARK    2  A    between atoms: C_2  and  N_3
REMARK    3  A    between atoms: C_2  and  C_17
REMARK    4  A    between atoms: C_4  and  C_6
REMARK    5  A    between atoms: N_12  and  C_13
REMARK    6  A    between atoms: C_20  and  C_21
REMARK    7  A    between atoms: C_21  and  C_22
REMARK    8  A    between atoms: C_21  and  O_23
REMARK    9  A    between atoms: C_21  and  C_24
REMARK                            x       y       z     vdW  Elec       q    Type
REMARK                         _______ _______ _______ _____ _____    ______ ____
ROOT
ATOM      1  C   UNL     1      47.539   2.708  17.613  0.00  0.00    +0.000 C 
ATOM      2  C   UNL     1      48.603   3.803  17.484  0.00  0.00    +0.000 C 
ENDROOT
BRANCH   2   3
ATOM      3  C   UNL     1      50.030   3.288  17.630  0.00  0.00    +0.000 A 
ATOM      4  C   UNL     1      51.035   4.165  18.061  0.00  0.00    +0.000 A 
ATOM      5  C   UNL     1      52.350   3.722  18.252  0.00  0.00    +0.000 A 
ATOM      6  C   UNL     1      52.710   2.386  18.015  0.00  0.00    +0.000 A 
ATOM      7  C   UNL     1      51.722   1.540  17.482  0.00  0.00    +0.000 A 
ATOM      8  C   UNL     1      50.406   1.981  17.295  0.00  0.00    +0.000 A 
BRANCH   6   9
ATOM      9  C   UNL     1      54.111   1.837  18.331  0.00  0.00    +0.000 C 
ATOM     10  C   UNL     1      55.243   2.791  17.899  0.00  0.00    +0.000 C 
BRANCH   9  11
ATOM     11  C   UNL     1      54.358   0.445  17.749  0.00  0.00    +0.000 A 
ATOM     12  C   UNL     1      54.765   0.279  16.417  0.00  0.00    +0.000 A 
ATOM     13  C   UNL     1      55.025  -0.999  15.940  0.00  0.00    +0.000 A 
ATOM     14  N   UNL     1      54.909  -2.118  16.683  0.00  0.00    +0.000 NA
ATOM     15  C   UNL     1      54.518  -1.948  17.963  0.00  0.00    +0.000 A 
ATOM     16  C   UNL     1      54.237  -0.714  18.529  0.00  0.00    +0.000 A 
ENDBRANCH   9  11
BRANCH   9  17
ATOM     17  O   UNL     1      54.240   1.781  19.766  0.00  0.00    +0.000 OA
ATOM     18  H   UNL     1      53.342   1.866  20.130  0.00  0.00    +0.000 HD
ENDBRANCH   9  17
ENDBRANCH   6   9
ENDBRANCH   2   3
BRANCH   2  19
ATOM     19  N   UNL     1      48.472   4.495  16.221  0.00  0.00    +0.000 N 
ATOM     20  C   UNL     1      48.480   5.860  16.103  0.00  0.00    +0.000 C 
ATOM     21  O   UNL     1      48.565   6.603  17.077  0.00  0.00    +0.000 OA
ATOM     22  H   UNL     1      48.523   3.921  15.386  0.00  0.00    +0.000 HD
BRANCH  20  23
ATOM     23  C   UNL     1      48.337   6.394  14.742  0.00  0.00    +0.000 A 
ATOM     24  C   UNL     1      49.180   7.404  14.304  0.00  0.00    +0.000 A 
ATOM     25  S   UNL     1      48.873   7.902  12.703  0.00  0.00    +0.000 S 
ATOM     26  C   UNL     1      47.628   6.757  12.526  0.00  0.00    +0.000 A 
ATOM     27  N   UNL     1      46.960   6.627  11.351  0.00  0.00    +0.000 NA
ATOM     28  C   UNL     1      46.056   5.703  11.347  0.00  0.00    +0.000 A 
ATOM     29  N   UNL     1      45.740   4.892  12.412  0.00  0.00    +0.000 N 
ATOM     30  C   UNL     1      44.691   3.895  12.310  0.00  0.00    +0.000 C 
ATOM     31  C   UNL     1      46.375   5.024  13.639  0.00  0.00    +0.000 A 
ATOM     32  O   UNL     1      46.056   4.360  14.623  0.00  0.00    +0.000 OA
ATOM     33  C   UNL     1      47.425   6.029  13.681  0.00  0.00    +0.000 A 
ENDBRANCH  20  23
ENDBRANCH   2  19
TORSDOF 6
ENDMDL
MODEL 9
REMARK VINA RESULT:    -6.474      4.079      6.214
REMARK INTER + INTRA:          -9.799
REMARK INTER:                  -8.521
REMARK INTRA:                  -1.278
REMARK UNBOUND:                -1.243
REMARK  Name = 
REMARK  9 active torsions:
REMARK  status: ('A' for Active; 'I' for Inactive)
REMARK    1  A    between atoms: C_1  and  C_2
REMARK    2  A    between atoms: C_2  and  N_3
REMARK    3  A    between atoms: C_2  and  C_17
REMARK    4  A    between atoms: C_4  and  C_6
REMARK    5  A    between atoms: N_12  and  C_13
REMARK    6  A    between atoms: C_20  and  C_21
REMARK    7  A    between atoms: C_21  and  C_22
REMARK    8  A    between atoms: C_21  and  O_23
REMARK    9  A    between atoms: C_21  and  C_24
REMARK                            x       y       z     vdW  Elec       q    Type
REMARK                         _______ _______ _______ _____ _____    ______ ____
ROOT
ATOM      1  C   UNL     1      48.359   8.848  14.899  0.00  0.00    +0.000 C 
ATOM      2  C   UNL     1      48.715   7.880  13.766  0.00  0.00    +0.000 C 
ENDROOT
BRANCH   2   3
ATOM      3  C   UNL     1      47.509   7.154  13.182  0.00  0.00    +0.000 A 
ATOM      4  C   UNL     1      46.451   7.901  12.647  0.00  0.00    +0.000 A 
ATOM      5  C   UNL     1      45.345   7.273  12.060  0.00  0.00    +0.000 A 
ATOM      6  C   UNL     1      45.254   5.874  11.991  0.00  0.00    +0.000 A 
ATOM      7  C   UNL     1      46.267   5.133  12.624  0.00  0.00    +0.000 A 
ATOM      8  C   UNL     1      47.375   5.760  13.207  0.00  0.00    +0.000 A 
BRANCH   6   9
ATOM      9  C   UNL     1      44.118   5.154  11.247  0.00  0.00    +0.000 C 
ATOM     10  C   UNL     1      43.192   4.356  12.186  0.00  0.00    +0.000 C 
BRANCH   9  11
ATOM     11  C   UNL     1      44.615   4.247  10.120  0.00  0.00    +0.000 A 
ATOM     12  C   UNL     1      45.312   4.771   9.022  0.00  0.00    +0.000 A 
ATOM     13  C   UNL     1      45.787   3.908   8.044  0.00  0.00    +0.000 A 
ATOM     14  N   UNL     1      45.620   2.570   8.073  0.00  0.00    +0.000 NA
ATOM     15  C   UNL     1      44.949   2.075   9.134  0.00  0.00    +0.000 A 
ATOM     16  C   UNL     1      44.438   2.856  10.160  0.00  0.00    +0.000 A 
ENDBRANCH   9  11
BRANCH   9  17
ATOM     17  O   UNL     1      43.253   6.166  10.693  0.00  0.00    +0.000 OA
ATOM     18  H   UNL     1      42.497   5.699  10.297  0.00  0.00    +0.000 HD
ENDBRANCH   9  17
ENDBRANCH   6   9
ENDBRANCH   2   3
BRANCH   2  19
ATOM     19  N   UNL     1      49.415   8.572  12.706  0.00  0.00    +0.000 N 
ATOM     20  C   UNL     1      50.777   8.722  12.672  0.00  0.00    +0.000 C 
ATOM     21  O   UNL     1      51.506   8.305  13.569  0.00  0.00    +0.000 OA
ATOM     22  H   UNL     1      48.864   8.822  11.892  0.00  0.00    +0.000 HD
BRANCH  20  23
ATOM     23  C   UNL     1      51.320   9.453  11.519  0.00  0.00    +0.000 A 
ATOM     24  C   UNL     1      51.209  10.834  11.464  0.00  0.00    +0.000 A 
ATOM     25  S   UNL     1      51.892  11.516  10.058  0.00  0.00    +0.000 S 
ATOM     26  C   UNL     1      52.395   9.992   9.495  0.00  0.00    +0.000 A 
ATOM     27  N   UNL     1      53.089   9.870   8.335  0.00  0.00    +0.000 NA
ATOM     28  C   UNL     1      53.430   8.659   8.037  0.00  0.00    +0.000 A 
ATOM     29  N   UNL     1      53.135   7.541   8.784  0.00  0.00    +0.000 N 
ATOM     30  C   UNL     1      53.547   6.220   8.351  0.00  0.00    +0.000 C 
ATOM     31  C   UNL     1      52.393   7.625   9.955  0.00  0.00    +0.000 A 
ATOM     32  O   UNL     1      52.057   6.632  10.595  0.00  0.00    +0.000 OA
ATOM     33  C   UNL     1      52.017   8.973  10.347  0.00  0.00    +0.000 A 
ENDBRANCH  20  23
ENDBRANCH   2  19
TORSDOF 6
ENDMDL
