MODEL 1
REMARK VINA RESULT:    -7.437      0.000      0.000
REMARK INTER + INTRA:         -11.691
REMARK INTER:                 -10.698
REMARK INTRA:                  -0.993
REMARK UNBOUND:                -0.993
REMARK  Name = 
REMARK  8 active torsions:
REMARK  status: ('A' for Active; 'I' for Inactive)
REMARK    1  A    between atoms: N_1  and  C_2
REMARK    2  A    between atoms: C_2  and  C_3
REMARK    3  A    between atoms: C_2  and  C_18
REMARK    4  A    between atoms: C_3  and  C_4
REMARK    5  A    between atoms: C_7  and  C_8
REMARK    6  A    between atoms: C_8  and  N_9
REMARK    7  A    between atoms: N_9  and  C_10
REMARK    8  A    between atoms: C_10  and  C_11
REMARK                            x       y       z     vdW  Elec       q    Type
REMARK                         _______ _______ _______ _____ _____    ______ ____
ROOT
ATOM      1  C   UNL     1      47.261   7.190  13.613  0.00  0.00    +0.000 C 
ENDROOT
BRANCH   1   2
ATOM      2  C   UNL     1      46.311   6.478  12.681  0.00  0.00    +0.000 A 
ATOM      3  C   UNL     1      45.233   5.749  13.188  0.00  0.00    +0.000 A 
ATOM      4  C   UNL     1      44.417   5.022  12.326  0.00  0.00    +0.000 A 
ATOM      5  C   UNL     1      44.695   5.032  10.962  0.00  0.00    +0.000 A 
ATOM      6  N   UNL     1      45.728   5.743  10.439  0.00  0.00    +0.000 NA
ATOM      7  C   UNL     1      46.503   6.447  11.303  0.00  0.00    +0.000 A 
BRANCH   5   8
ATOM      8  C   UNL     1      43.833   4.213  10.015  0.00  0.00    +0.000 C 
BRANCH   8   9
ATOM      9  N   UNL     1      44.157   4.364   8.588  0.00  0.00    +0.000 NA
ATOM     10  H   UNL     1      44.900   5.067   8.534  0.00  0.00    +0.000 HD
BRANCH   9  11
ATOM     11  C   UNL     1      44.658   3.124   7.971  0.00  0.00    +0.000 C 
BRANCH  11  12
ATOM     12  C   UNL     1      46.209   3.108   8.021  0.00  0.00    +0.000 C 
ATOM     13  C   UNL     1      46.826   1.765   7.665  0.00  0.00    +0.000 C 
ATOM     14  C   UNL     1      47.026   1.816   6.162  0.00  0.00    +0.000 C 
ATOM     15  C   UNL     1      47.010   3.294   5.801  0.00  0.00    +0.000 C 
ATOM     16  N   UNL     1      46.820   4.031   7.049  0.00  0.00    +0.000 NA
ATOM     17  H   UNL     1      46.177   4.816   6.911  0.00  0.00    +0.000 HD
ENDBRANCH  11  12
ENDBRANCH   9  11
ENDBRANCH   8   9
ENDBRANCH   5   8
ENDBRANCH   1   2
BRANCH   1  18
ATOM     18  C   UNL     1      48.525   6.413  14.044  0.00  0.00    +0.000 C 
BRANCH  18  19
ATOM     19  C   UNL     1      48.592   6.297  15.560  0.00  0.00    +0.000 A 
ATOM     20  C   UNL     1      48.990   7.297  16.436  0.00  0.00    +0.000 A 
ATOM     21  S   UNL     1      48.967   6.816  18.075  0.00  0.00    +0.000 S 
ATOM     22  C   UNL     1      48.381   5.270  17.674  0.00  0.00    +0.000 A 
ATOM     23  N   UNL     1      48.129   4.340  18.634  0.00  0.00    +0.000 NA
ATOM     24  C   UNL     1      47.675   3.220  18.178  0.00  0.00    +0.000 A 
ATOM     25  N   UNL     1      47.444   2.947  16.852  0.00  0.00    +0.000 N 
ATOM     26  C   UNL     1      47.660   3.863  15.849  0.00  0.00    +0.000 A 
ATOM     27  O   UNL     1      47.383   3.620  14.678  0.00  0.00    +0.000 OA
ATOM     28  C   UNL     1      48.204   5.127  16.311  0.00  0.00    +0.000 A 
ATOM     29  H   UNL     1      47.066   2.057  16.565  0.00  0.00    +0.000 HD
ENDBRANCH  18  19
BRANCH  18  30
ATOM     30  N   UNL     1      49.761   7.043  13.568  0.00  0.00    +0.000 NA
ATOM     31  H   UNL     1      50.074   6.575  12.718  0.00  0.00    +0.000 HD
ATOM     32  H   UNL     1      50.499   6.944  14.258  0.00  0.00    +0.000 HD
ENDBRANCH  18  30
ENDBRANCH   1  18
TORSDOF 8
ENDMDL
MODEL 2
REMARK VINA RESULT:    -7.087      2.181      2.872
REMARK INTER + INTRA:         -11.187
REMARK INTER:                 -10.810
REMARK INTRA:                  -0.377
REMARK UNBOUND:                -0.993
REMARK  Name = 
REMARK  8 active torsions:
REMARK  status: ('A' for Active; 'I' for Inactive)
REMARK    1  A    between atoms: N_1  and  C_2
REMARK    2  A    between atoms: C_2  and  C_3
REMARK    3  A    between atoms: C_2  and  C_18
REMARK    4  A    between atoms: C_3  and  C_4
REMARK    5  A    between atoms: C_7  and  C_8
REMARK    6  A    between atoms: C_8  and  N_9
REMARK    7  A    between atoms: N_9  and  C_10
REMARK    8  A    between atoms: C_10  and  C_11
REMARK                            x       y       z     vdW  Elec       q    Type
REMARK                         _______ _______ _______ _____ _____    ______ ____
ROOT
ATOM      1  C   UNL     1      47.870   4.508  14.959  0.00  0.00    +0.000 C 
ENDROOT
BRANCH   1   2
ATOM      2  C   UNL     1      46.694   4.443  14.016  0.00  0.00    +0.000 A 
ATOM      3  C   UNL     1      46.382   3.256  13.351  0.00  0.00    +0.000 A 
ATOM      4  C   UNL     1      45.352   3.231  12.415  0.00  0.00    +0.000 A 
ATOM      5  C   UNL     1      44.647   4.403  12.155  0.00  0.00    +0.000 A 
ATOM      6  N   UNL     1      44.919   5.569  12.797  0.00  0.00    +0.000 NA
ATOM      7  C   UNL     1      45.925   5.561  13.708  0.00  0.00    +0.000 A 
BRANCH   5   8
ATOM      8  C   UNL     1      43.544   4.397  11.109  0.00  0.00    +0.000 C 
BRANCH   8   9
ATOM      9  N   UNL     1      43.888   5.049   9.835  0.00  0.00    +0.000 NA
ATOM     10  H   UNL     1      44.019   6.042  10.045  0.00  0.00    +0.000 HD
BRANCH   9  11
ATOM     11  C   UNL     1      45.138   4.541   9.243  0.00  0.00    +0.000 C 
BRANCH  11  12
ATOM     12  C   UNL     1      44.805   3.571   8.077  0.00  0.00    +0.000 C 
ATOM     13  C   UNL     1      45.908   3.453   7.037  0.00  0.00    +0.000 C 
ATOM     14  C   UNL     1      46.785   2.317   7.529  0.00  0.00    +0.000 C 
ATOM     15  C   UNL     1      45.916   1.524   8.494  0.00  0.00    +0.000 C 
ATOM     16  N   UNL     1      44.613   2.182   8.528  0.00  0.00    +0.000 NA
ATOM     17  H   UNL     1      44.245   2.208   9.483  0.00  0.00    +0.000 HD
ENDBRANCH  11  12
ENDBRANCH   9  11
ENDBRANCH   8   9
ENDBRANCH   5   8
ENDBRANCH   1   2
BRANCH   1  18
ATOM     18  C   UNL     1      47.549   4.543  16.470  0.00  0.00    +0.000 C 
BRANCH  18  19
ATOM     19  C   UNL     1      48.830   4.597  17.290  0.00  0.00    +0.000 A 
ATOM     20  C   UNL     1      49.213   5.630  18.134  0.00  0.00    +0.000 A 
ATOM     21  S   UNL     1      50.726   5.371  18.884  0.00  0.00    +0.000 S 
ATOM     22  C   UNL     1      50.901   3.851  18.141  0.00  0.00    +0.000 A 
ATOM     23  N   UNL     1      51.996   3.076  18.367  0.00  0.00    +0.000 NA
ATOM     24  C   UNL     1      51.979   1.944  17.746  0.00  0.00    +0.000 A 
ATOM     25  N   UNL     1      50.966   1.512  16.926  0.00  0.00    +0.000 N 
ATOM     26  C   UNL     1      49.829   2.248  16.687  0.00  0.00    +0.000 A 
ATOM     27  O   UNL     1      48.906   1.813  16.004  0.00  0.00    +0.000 OA
ATOM     28  C   UNL     1      49.819   3.545  17.337  0.00  0.00    +0.000 A 
ATOM     29  H   UNL     1      51.006   0.604  16.488  0.00  0.00    +0.000 HD
ENDBRANCH  18  19
BRANCH  18  30
ATOM     30  N   UNL     1      46.765   3.382  16.904  0.00  0.00    +0.000 NA
ATOM     31  H   UNL     1      47.124   2.542  16.450  0.00  0.00    +0.000 HD
ATOM     32  H   UNL     1      45.793   3.485  16.627  0.00  0.00    +0.000 HD
ENDBRANCH  18  30
ENDBRANCH   1  18
TORSDOF 8
ENDMDL
MODEL 3
REMARK VINA RESULT:    -6.977      2.216      3.458
REMARK INTER + INTRA:         -11.029
REMARK INTER:                 -10.171
REMARK INTRA:                  -0.858
REMARK UNBOUND:                -0.993
REMARK  Name = 
REMARK  8 active torsions:
REMARK  status: ('A' for Active; 'I' for Inactive)
REMARK    1  A    between atoms: N_1  and  C_2
REMARK    2  A    between atoms: C_2  and  C_3
REMARK    3  A    between atoms: C_2  and  C_18
REMARK    4  A    between atoms: C_3  and  C_4
REMARK    5  A    between atoms: C_7  and  C_8
REMARK    6  A    between atoms: C_8  and  N_9
REMARK    7  A    between atoms: N_9  and  C_10
REMARK    8  A    between atoms: C_10  and  C_11
REMARK                            x       y       z     vdW  Elec       q    Type
REMARK                         _______ _______ _______ _____ _____    ______ ____
ROOT
ATOM      1  C   UNL     1      47.717   3.262  15.495  0.00  0.00    +0.000 C 
ENDROOT
BRANCH   1   2
ATOM      2  C   UNL     1      47.114   3.996  14.323  0.00  0.00    +0.000 A 
ATOM      3  C   UNL     1      47.280   5.376  14.188  0.00  0.00    +0.000 A 
ATOM      4  C   UNL     1      46.644   6.056  13.153  0.00  0.00    +0.000 A 
ATOM      5  C   UNL     1      45.844   5.342  12.266  0.00  0.00    +0.000 A 
ATOM      6  N   UNL     1      45.675   3.997  12.364  0.00  0.00    +0.000 NA
ATOM      7  C   UNL     1      46.312   3.360  13.379  0.00  0.00    +0.000 A 
BRANCH   5   8
ATOM      8  C   UNL     1      45.115   6.079  11.154  0.00  0.00    +0.000 C 
BRANCH   8   9
ATOM      9  N   UNL     1      44.599   5.225  10.072  0.00  0.00    +0.000 NA
ATOM     10  H   UNL     1      43.851   5.755   9.618  0.00  0.00    +0.000 HD
BRANCH   9  11
ATOM     11  C   UNL     1      45.613   4.903   9.053  0.00  0.00    +0.000 C 
BRANCH  11  12
ATOM     12  C   UNL     1      45.014   3.913   8.018  0.00  0.00    +0.000 C 
ATOM     13  C   UNL     1      46.052   3.226   7.146  0.00  0.00    +0.000 C 
ATOM     14  C   UNL     1      46.426   1.967   7.906  0.00  0.00    +0.000 C 
ATOM     15  C   UNL     1      45.275   1.721   8.871  0.00  0.00    +0.000 C 
ATOM     16  N   UNL     1      44.302   2.789   8.649  0.00  0.00    +0.000 NA
ATOM     17  H   UNL     1      43.917   3.118   9.539  0.00  0.00    +0.000 HD
ENDBRANCH  11  12
ENDBRANCH   9  11
ENDBRANCH   8   9
ENDBRANCH   5   8
ENDBRANCH   1   2
BRANCH   1  18
ATOM     18  C   UNL     1      47.392   3.813  16.902  0.00  0.00    +0.000 C 
BRANCH  18  19
ATOM     19  C   UNL     1      48.672   4.111  17.670  0.00  0.00    +0.000 A 
ATOM     20  C   UNL     1      49.937   3.630  17.362  0.00  0.00    +0.000 A 
ATOM     21  S   UNL     1      51.147   4.148  18.451  0.00  0.00    +0.000 S 
ATOM     22  C   UNL     1      50.030   5.069  19.345  0.00  0.00    +0.000 A 
ATOM     23  N   UNL     1      50.418   5.789  20.432  0.00  0.00    +0.000 NA
ATOM     24  C   UNL     1      49.463   6.449  20.998  0.00  0.00    +0.000 A 
ATOM     25  N   UNL     1      48.157   6.460  20.573  0.00  0.00    +0.000 N 
ATOM     26  C   UNL     1      47.722   5.769  19.466  0.00  0.00    +0.000 A 
ATOM     27  O   UNL     1      46.564   5.848  19.066  0.00  0.00    +0.000 OA
ATOM     28  C   UNL     1      48.756   4.984  18.817  0.00  0.00    +0.000 A 
ATOM     29  H   UNL     1      47.464   7.016  21.048  0.00  0.00    +0.000 HD
ENDBRANCH  18  19
BRANCH  18  30
ATOM     30  N   UNL     1      46.577   2.885  17.694  0.00  0.00    +0.000 NA
ATOM     31  H   UNL     1      46.330   3.325  18.580  0.00  0.00    +0.000 HD
ATOM     32  H   UNL     1      47.104   2.044  17.909  0.00  0.00    +0.000 HD
ENDBRANCH  18  30
ENDBRANCH   1  18
TORSDOF 8
ENDMDL
MODEL 4
REMARK VINA RESULT:    -6.667      3.183      7.769
REMARK INTER + INTRA:         -10.582
REMARK INTER:                  -9.590
REMARK INTRA:                  -0.992
REMARK UNBOUND:                -0.993
REMARK  Name = 
REMARK  8 active torsions:
REMARK  status: ('A' for Active; 'I' for Inactive)
REMARK    1  A    between atoms: N_1  and  C_2
REMARK    2  A    between atoms: C_2  and  C_3
REMARK    3  A    between atoms: C_2  and  C_18
REMARK    4  A    between atoms: C_3  and  C_4
REMARK    5  A    between atoms: C_7  and  C_8
REMARK    6  A    between atoms: C_8  and  N_9
REMARK    7  A    between atoms: N_9  and  C_10
REMARK    8  A    between atoms: C_10  and  C_11
REMARK                            x       y       z     vdW  Elec       q    Type
REMARK                         _______ _______ _______ _____ _____    ______ ____
ROOT
ATOM      1  C   UNL     1      47.251   7.287  11.427  0.00  0.00    +0.000 C 
ENDROOT
BRANCH   1   2
ATOM      2  C   UNL     1      48.054   7.238  12.704  0.00  0.00    +0.000 A 
ATOM      3  C   UNL     1      49.182   8.045  12.864  0.00  0.00    +0.000 A 
ATOM      4  C   UNL     1      49.967   7.927  14.007  0.00  0.00    +0.000 A 
ATOM      5  C   UNL     1      49.611   6.994  14.978  0.00  0.00    +0.000 A 
ATOM      6  N   UNL     1      48.511   6.206  14.856  0.00  0.00    +0.000 NA
ATOM      7  C   UNL     1      47.762   6.348  13.733  0.00  0.00    +0.000 A 
BRANCH   5   8
ATOM      8  C   UNL     1      50.481   6.830  16.214  0.00  0.00    +0.000 C 
BRANCH   8   9
ATOM      9  N   UNL     1      50.640   5.445  16.686  0.00  0.00    +0.000 NA
ATOM     10  H   UNL     1      51.622   5.344  16.956  0.00  0.00    +0.000 HD
BRANCH   9  11
ATOM     11  C   UNL     1      49.809   5.134  17.861  0.00  0.00    +0.000 C 
BRANCH  11  12
ATOM     12  C   UNL     1      49.599   3.599  17.958  0.00  0.00    +0.000 C 
ATOM     13  C   UNL     1      48.308   3.194  18.653  0.00  0.00    +0.000 C 
ATOM     14  C   UNL     1      47.278   3.112  17.542  0.00  0.00    +0.000 C 
ATOM     15  C   UNL     1      48.079   2.964  16.258  0.00  0.00    +0.000 C 
ATOM     16  N   UNL     1      49.490   2.954  16.638  0.00  0.00    +0.000 NA
ATOM     17  H   UNL     1      50.048   3.498  15.974  0.00  0.00    +0.000 HD
ENDBRANCH  11  12
ENDBRANCH   9  11
ENDBRANCH   8   9
ENDBRANCH   5   8
ENDBRANCH   1   2
BRANCH   1  18
ATOM     18  C   UNL     1      45.738   6.992  11.546  0.00  0.00    +0.000 C 
BRANCH  18  19
ATOM     19  C   UNL     1      45.372   5.743  10.757  0.00  0.00    +0.000 A 
ATOM     20  C   UNL     1      45.696   5.494   9.431  0.00  0.00    +0.000 A 
ATOM     21  S   UNL     1      45.105   3.998   8.855  0.00  0.00    +0.000 S 
ATOM     22  C   UNL     1      44.436   3.611  10.370  0.00  0.00    +0.000 A 
ATOM     23  N   UNL     1      43.779   2.438  10.573  0.00  0.00    +0.000 NA
ATOM     24  C   UNL     1      43.339   2.280  11.778  0.00  0.00    +0.000 A 
ATOM     25  N   UNL     1      43.503   3.184  12.798  0.00  0.00    +0.000 N 
ATOM     26  C   UNL     1      44.181   4.371  12.648  0.00  0.00    +0.000 A 
ATOM     27  O   UNL     1      44.373   5.132  13.592  0.00  0.00    +0.000 OA
ATOM     28  C   UNL     1      44.663   4.608  11.300  0.00  0.00    +0.000 A 
ATOM     29  H   UNL     1      43.154   2.987  13.724  0.00  0.00    +0.000 HD
ENDBRANCH  18  19
BRANCH  18  30
ATOM     30  N   UNL     1      44.910   8.105  11.070  0.00  0.00    +0.000 NA
ATOM     31  H   UNL     1      44.055   7.737  10.654  0.00  0.00    +0.000 HD
ATOM     32  H   UNL     1      45.397   8.628  10.349  0.00  0.00    +0.000 HD
ENDBRANCH  18  30
ENDBRANCH   1  18
TORSDOF 8
ENDMDL
MODEL 5
REMARK VINA RESULT:    -6.630      2.062      2.805
REMARK INTER + INTRA:         -10.530
REMARK INTER:                  -9.737
REMARK INTRA:                  -0.793
REMARK UNBOUND:                -0.993
REMARK  Name = 
REMARK  8 active torsions:
REMARK  status: ('A' for Active; 'I' for Inactive)
REMARK    1  A    between atoms: N_1  and  C_2
REMARK    2  A    between atoms: C_2  and  C_3
REMARK    3  A    between atoms: C_2  and  C_18
REMARK    4  A    between atoms: C_3  and  C_4
REMARK    5  A    between atoms: C_7  and  C_8
REMARK    6  A    between atoms: C_8  and  N_9
REMARK    7  A    between atoms: N_9  and  C_10
REMARK    8  A    between atoms: C_10  and  C_11
REMARK                            x       y       z     vdW  Elec       q    Type
REMARK                         _______ _______ _______ _____ _____    ______ ____
ROOT
ATOM      1  C   UNL     1      48.757   6.884  14.534  0.00  0.00    +0.000 C 
ENDROOT
BRANCH   1   2
ATOM      2  C   UNL     1      47.569   6.152  13.962  0.00  0.00    +0.000 A 
ATOM      3  C   UNL     1      46.811   6.721  12.936  0.00  0.00    +0.000 A 
ATOM      4  C   UNL     1      45.665   6.079  12.478  0.00  0.00    +0.000 A 
ATOM      5  C   UNL     1      45.289   4.870  13.059  0.00  0.00    +0.000 A 
ATOM      6  N   UNL     1      46.014   4.286  14.047  0.00  0.00    +0.000 NA
ATOM      7  C   UNL     1      47.130   4.932  14.469  0.00  0.00    +0.000 A 
BRANCH   5   8
ATOM      8  C   UNL     1      44.019   4.177  12.591  0.00  0.00    +0.000 C 
BRANCH   8   9
ATOM      9  N   UNL     1      44.228   2.910  11.873  0.00  0.00    +0.000 NA
ATOM     10  H   UNL     1      43.324   2.658  11.464  0.00  0.00    +0.000 HD
BRANCH   9  11
ATOM     11  C   UNL     1      45.208   3.018  10.778  0.00  0.00    +0.000 C 
BRANCH  11  12
ATOM     12  C   UNL     1      44.568   2.519   9.456  0.00  0.00    +0.000 C 
ATOM     13  C   UNL     1      44.643   3.521   8.315  0.00  0.00    +0.000 C 
ATOM     14  C   UNL     1      45.956   3.218   7.617  0.00  0.00    +0.000 C 
ATOM     15  C   UNL     1      46.314   1.798   8.029  0.00  0.00    +0.000 C 
ATOM     16  N   UNL     1      45.244   1.330   8.908  0.00  0.00    +0.000 NA
ATOM     17  H   UNL     1      45.628   0.796   9.693  0.00  0.00    +0.000 HD
ENDBRANCH  11  12
ENDBRANCH   9  11
ENDBRANCH   8   9
ENDBRANCH   5   8
ENDBRANCH   1   2
BRANCH   1  18
ATOM     18  C   UNL     1      49.335   6.342  15.861  0.00  0.00    +0.000 C 
BRANCH  18  19
ATOM     19  C   UNL     1      48.803   7.139  17.043  0.00  0.00    +0.000 A 
ATOM     20  C   UNL     1      48.628   8.516  17.084  0.00  0.00    +0.000 A 
ATOM     21  S   UNL     1      48.029   9.083  18.580  0.00  0.00    +0.000 S 
ATOM     22  C   UNL     1      47.940   7.505  19.210  0.00  0.00    +0.000 A 
ATOM     23  N   UNL     1      47.490   7.272  20.472  0.00  0.00    +0.000 NA
ATOM     24  C   UNL     1      47.465   6.024  20.803  0.00  0.00    +0.000 A 
ATOM     25  N   UNL     1      47.843   4.988  19.986  0.00  0.00    +0.000 N 
ATOM     26  C   UNL     1      48.280   5.170  18.694  0.00  0.00    +0.000 A 
ATOM     27  O   UNL     1      48.547   4.224  17.960  0.00  0.00    +0.000 OA
ATOM     28  C   UNL     1      48.357   6.562  18.290  0.00  0.00    +0.000 A 
ATOM     29  H   UNL     1      47.776   4.031  20.300  0.00  0.00    +0.000 HD
ENDBRANCH  18  19
BRANCH  18  30
ATOM     30  N   UNL     1      50.800   6.380  15.894  0.00  0.00    +0.000 NA
ATOM     31  H   UNL     1      51.106   7.021  16.625  0.00  0.00    +0.000 HD
ATOM     32  H   UNL     1      51.167   6.727  15.012  0.00  0.00    +0.000 HD
ENDBRANCH  18  30
ENDBRANCH   1  18
TORSDOF 8
ENDMDL
MODEL 6
REMARK VINA RESULT:    -6.598      2.769      4.067
REMARK INTER + INTRA:         -10.484
REMARK INTER:                  -9.570
REMARK INTRA:                  -0.914
REMARK UNBOUND:                -0.993
REMARK  Name = 
REMARK  8 active torsions:
REMARK  status: ('A' for Active; 'I' for Inactive)
REMARK    1  A    between atoms: N_1  and  C_2
REMARK    2  A    between atoms: C_2  and  C_3
REMARK    3  A    between atoms: C_2  and  C_18
REMARK    4  A    between atoms: C_3  and  C_4
REMARK    5  A    between atoms: C_7  and  C_8
REMARK    6  A    between atoms: C_8  and  N_9
REMARK    7  A    between atoms: N_9  and  C_10
REMARK    8  A    between atoms: C_10  and  C_11
REMARK                            x       y       z     vdW  Elec       q    Type
REMARK                         _______ _______ _______ _____ _____    ______ ____
ROOT
ATOM      1  C   UNL     1      47.713   6.457  13.999  0.00  0.00    +0.000 C 
ENDROOT
BRANCH   1   2
ATOM      2  C   UNL     1      46.831   5.795  12.970  0.00  0.00    +0.000 A 
ATOM      3  C   UNL     1      46.460   6.476  11.809  0.00  0.00    +0.000 A 
ATOM      4  C   UNL     1      45.573   5.891  10.910  0.00  0.00    +0.000 A 
ATOM      5  C   UNL     1      45.064   4.625  11.190  0.00  0.00    +0.000 A 
ATOM      6  N   UNL     1      45.418   3.933  12.304  0.00  0.00    +0.000 NA
ATOM      7  C   UNL     1      46.289   4.527  13.159  0.00  0.00    +0.000 A 
BRANCH   5   8
ATOM      8  C   UNL     1      44.066   3.990  10.235  0.00  0.00    +0.000 C 
BRANCH   8   9
ATOM      9  N   UNL     1      44.173   4.436   8.836  0.00  0.00    +0.000 NA
ATOM     10  H   UNL     1      44.869   5.186   8.825  0.00  0.00    +0.000 HD
BRANCH   9  11
ATOM     11  C   UNL     1      44.632   3.375   7.923  0.00  0.00    +0.000 C 
BRANCH  11  12
ATOM     12  C   UNL     1      46.180   3.275   7.978  0.00  0.00    +0.000 C 
ATOM     13  C   UNL     1      46.715   1.860   7.824  0.00  0.00    +0.000 C 
ATOM     14  C   UNL     1      46.909   1.678   6.331  0.00  0.00    +0.000 C 
ATOM     15  C   UNL     1      46.977   3.086   5.757  0.00  0.00    +0.000 C 
ATOM     16  N   UNL     1      46.839   4.008   6.882  0.00  0.00    +0.000 NA
ATOM     17  H   UNL     1      46.242   4.800   6.629  0.00  0.00    +0.000 HD
ENDBRANCH  11  12
ENDBRANCH   9  11
ENDBRANCH   8   9
ENDBRANCH   5   8
ENDBRANCH   1   2
BRANCH   1  18
ATOM     18  C   UNL     1      48.067   7.942  13.760  0.00  0.00    +0.000 C 
BRANCH  18  19
ATOM     19  C   UNL     1      49.524   8.209  14.107  0.00  0.00    +0.000 A 
ATOM     20  C   UNL     1      50.022   8.487  15.373  0.00  0.00    +0.000 A 
ATOM     21  S   UNL     1      51.709   8.757  15.398  0.00  0.00    +0.000 S 
ATOM     22  C   UNL     1      51.840   8.466  13.727  0.00  0.00    +0.000 A 
ATOM     23  N   UNL     1      53.041   8.528  13.091  0.00  0.00    +0.000 NA
ATOM     24  C   UNL     1      52.983   8.269  11.827  0.00  0.00    +0.000 A 
ATOM     25  N   UNL     1      51.838   7.947  11.142  0.00  0.00    +0.000 N 
ATOM     26  C   UNL     1      50.606   7.847  11.745  0.00  0.00    +0.000 A 
ATOM     27  O   UNL     1      49.608   7.492  11.126  0.00  0.00    +0.000 OA
ATOM     28  C   UNL     1      50.615   8.165  13.162  0.00  0.00    +0.000 A 
ATOM     29  H   UNL     1      51.867   7.733  10.157  0.00  0.00    +0.000 HD
ENDBRANCH  18  19
BRANCH  18  30
ATOM     30  N   UNL     1      47.226   8.853  14.542  0.00  0.00    +0.000 NA
ATOM     31  H   UNL     1      47.769   9.676  14.801  0.00  0.00    +0.000 HD
ATOM     32  H   UNL     1      46.921   8.406  15.402  0.00  0.00    +0.000 HD
ENDBRANCH  18  30
ENDBRANCH   1  18
TORSDOF 8
ENDMDL
MODEL 7
REMARK VINA RESULT:    -6.297      2.756      8.092
REMARK INTER + INTRA:         -10.051
REMARK INTER:                  -9.443
REMARK INTRA:                  -0.608
REMARK UNBOUND:                -0.993
REMARK  Name = 
REMARK  8 active torsions:
REMARK  status: ('A' for Active; 'I' for Inactive)
REMARK    1  A    between atoms: N_1  and  C_2
REMARK    2  A    between atoms: C_2  and  C_3
REMARK    3  A    between atoms: C_2  and  C_18
REMARK    4  A    between atoms: C_3  and  C_4
REMARK    5  A    between atoms: C_7  and  C_8
REMARK    6  A    between atoms: C_8  and  N_9
REMARK    7  A    between atoms: N_9  and  C_10
REMARK    8  A    between atoms: C_10  and  C_11
REMARK                            x       y       z     vdW  Elec       q    Type
REMARK                         _______ _______ _______ _____ _____    ______ ____
ROOT
ATOM      1  C   UNL     1      46.859   6.596  11.567  0.00  0.00    +0.000 C 
ENDROOT
BRANCH   1   2
ATOM      2  C   UNL     1      47.773   6.642  12.767  0.00  0.00    +0.000 A 
ATOM      3  C   UNL     1      47.446   5.949  13.935  0.00  0.00    +0.000 A 
ATOM      4  C   UNL     1      48.249   6.071  15.065  0.00  0.00    +0.000 A 
ATOM      5  C   UNL     1      49.371   6.893  15.012  0.00  0.00    +0.000 A 
ATOM      6  N   UNL     1      49.721   7.567  13.886  0.00  0.00    +0.000 NA
ATOM      7  C   UNL     1      48.923   7.424  12.797  0.00  0.00    +0.000 A 
BRANCH   5   8
ATOM      8  C   UNL     1      50.236   7.062  16.251  0.00  0.00    +0.000 C 
BRANCH   8   9
ATOM      9  N   UNL     1      49.883   6.188  17.382  0.00  0.00    +0.000 NA
ATOM     10  H   UNL     1      48.960   5.801  17.169  0.00  0.00    +0.000 HD
BRANCH   9  11
ATOM     11  C   UNL     1      50.819   5.065  17.560  0.00  0.00    +0.000 C 
BRANCH  11  12
ATOM     12  C   UNL     1      50.117   3.924  18.346  0.00  0.00    +0.000 C 
ATOM     13  C   UNL     1      48.636   3.780  18.036  0.00  0.00    +0.000 C 
ATOM     14  C   UNL     1      48.575   2.809  16.872  0.00  0.00    +0.000 C 
ATOM     15  C   UNL     1      49.903   2.066  16.896  0.00  0.00    +0.000 C 
ATOM     16  N   UNL     1      50.662   2.593  18.028  0.00  0.00    +0.000 NA
ATOM     17  H   UNL     1      51.649   2.707  17.780  0.00  0.00    +0.000 HD
ENDBRANCH  11  12
ENDBRANCH   9  11
ENDBRANCH   8   9
ENDBRANCH   5   8
ENDBRANCH   1   2
BRANCH   1  18
ATOM     18  C   UNL     1      45.340   6.627  11.848  0.00  0.00    +0.000 C 
BRANCH  18  19
ATOM     19  C   UNL     1      44.739   5.236  11.705  0.00  0.00    +0.000 A 
ATOM     20  C   UNL     1      43.997   4.567  12.668  0.00  0.00    +0.000 A 
ATOM     21  S   UNL     1      43.495   3.008  12.180  0.00  0.00    +0.000 S 
ATOM     22  C   UNL     1      44.213   3.192  10.649  0.00  0.00    +0.000 A 
ATOM     23  N   UNL     1      44.146   2.206   9.714  0.00  0.00    +0.000 NA
ATOM     24  C   UNL     1      44.725   2.497   8.597  0.00  0.00    +0.000 A 
ATOM     25  N   UNL     1      45.358   3.684   8.326  0.00  0.00    +0.000 N 
ATOM     26  C   UNL     1      45.430   4.720   9.229  0.00  0.00    +0.000 A 
ATOM     27  O   UNL     1      45.943   5.797   8.940  0.00  0.00    +0.000 OA
ATOM     28  C   UNL     1      44.823   4.425  10.513  0.00  0.00    +0.000 A 
ATOM     29  H   UNL     1      45.771   3.856   7.422  0.00  0.00    +0.000 HD
ENDBRANCH  18  19
BRANCH  18  30
ATOM     30  N   UNL     1      44.622   7.541  10.954  0.00  0.00    +0.000 NA
ATOM     31  H   UNL     1      43.690   7.170  10.769  0.00  0.00    +0.000 HD
ATOM     32  H   UNL     1      45.101   7.615  10.061  0.00  0.00    +0.000 HD
ENDBRANCH  18  30
ENDBRANCH   1  18
TORSDOF 8
ENDMDL
MODEL 8
REMARK VINA RESULT:    -6.197      2.633      3.618
REMARK INTER + INTRA:          -9.907
REMARK INTER:                  -8.543
REMARK INTRA:                  -1.364
REMARK UNBOUND:                -0.993
REMARK  Name = 
REMARK  8 active torsions:
REMARK  status: ('A' for Active; 'I' for Inactive)
REMARK    1  A    between atoms: N_1  and  C_2
REMARK    2  A    between atoms: C_2  and  C_3
REMARK    3  A    between atoms: C_2  and  C_18
REMARK    4  A    between atoms: C_3  and  C_4
REMARK    5  A    between atoms: C_7  and  C_8
REMARK    6  A    between atoms: C_8  and  N_9
REMARK    7  A    between atoms: N_9  and  C_10
REMARK    8  A    between atoms: C_10  and  C_11
REMARK                            x       y       z     vdW  Elec       q    Type
REMARK                         _______ _______ _______ _____ _____    ______ ____
ROOT
ATOM      1  C   UNL     1      50.022   8.154  13.942  0.00  0.00    +0.000 C 
ENDROOT
BRANCH   1   2
ATOM      2  C   UNL     1      48.606   7.980  13.452  0.00  0.00    +0.000 A 
ATOM      3  C   UNL     1      48.205   6.786  12.849  0.00  0.00    +0.000 A 
ATOM      4  C   UNL     1      46.923   6.669  12.320  0.00  0.00    +0.000 A 
ATOM      5  C   UNL     1      46.057   7.756  12.398  0.00  0.00    +0.000 A 
ATOM      6  N   UNL     1      46.414   8.925  12.991  0.00  0.00    +0.000 NA
ATOM      7  C   UNL     1      47.669   9.008  13.504  0.00  0.00    +0.000 A 
BRANCH   5   8
ATOM      8  C   UNL     1      44.667   7.653  11.792  0.00  0.00    +0.000 C 
BRANCH   8   9
ATOM      9  N   UNL     1      44.502   6.589  10.788  0.00  0.00    +0.000 NA
ATOM     10  H   UNL     1      45.321   5.981  10.875  0.00  0.00    +0.000 HD
BRANCH   9  11
ATOM     11  C   UNL     1      43.299   5.766  11.005  0.00  0.00    +0.000 C 
BRANCH  11  12
ATOM     12  C   UNL     1      43.583   4.305  10.567  0.00  0.00    +0.000 C 
ATOM     13  C   UNL     1      45.036   3.884  10.719  0.00  0.00    +0.000 C 
ATOM     14  C   UNL     1      45.133   3.321  12.125  0.00  0.00    +0.000 C 
ATOM     15  C   UNL     1      43.706   2.971  12.519  0.00  0.00    +0.000 C 
ATOM     16  N   UNL     1      42.857   3.314  11.380  0.00  0.00    +0.000 NA
ATOM     17  H   UNL     1      41.983   3.745  11.697  0.00  0.00    +0.000 HD
ENDBRANCH  11  12
ENDBRANCH   9  11
ENDBRANCH   8   9
ENDBRANCH   5   8
ENDBRANCH   1   2
BRANCH   1  18
ATOM     18  C   UNL     1      50.462   7.265  15.127  0.00  0.00    +0.000 C 
BRANCH  18  19
ATOM     19  C   UNL     1      49.790   7.717  16.415  0.00  0.00    +0.000 A 
ATOM     20  C   UNL     1      49.962   8.946  17.035  0.00  0.00    +0.000 A 
ATOM     21  S   UNL     1      49.068   9.111  18.482  0.00  0.00    +0.000 S 
ATOM     22  C   UNL     1      48.385   7.563  18.306  0.00  0.00    +0.000 A 
ATOM     23  N   UNL     1      47.503   7.072  19.217  0.00  0.00    +0.000 NA
ATOM     24  C   UNL     1      47.059   5.891  18.941  0.00  0.00    +0.000 A 
ATOM     25  N   UNL     1      47.411   5.159  17.834  0.00  0.00    +0.000 N 
ATOM     26  C   UNL     1      48.279   5.622  16.872  0.00  0.00    +0.000 A 
ATOM     27  O   UNL     1      48.526   4.978  15.858  0.00  0.00    +0.000 OA
ATOM     28  C   UNL     1      48.831   6.933  17.159  0.00  0.00    +0.000 A 
ATOM     29  H   UNL     1      47.009   4.249  17.666  0.00  0.00    +0.000 HD
ENDBRANCH  18  19
BRANCH  18  30
ATOM     30  N   UNL     1      51.915   7.276  15.329  0.00  0.00    +0.000 NA
ATOM     31  H   UNL     1      52.378   6.988  14.467  0.00  0.00    +0.000 HD
ATOM     32  H   UNL     1      52.178   6.613  16.052  0.00  0.00    +0.000 HD
ENDBRANCH  18  30
ENDBRANCH   1  18
TORSDOF 8
ENDMDL
MODEL 9
REMARK VINA RESULT:    -6.082      3.387      8.651
REMARK INTER + INTRA:          -9.741
REMARK INTER:                  -8.503
REMARK INTRA:                  -1.238
REMARK UNBOUND:                -0.993
REMARK  Name = 
REMARK  8 active torsions:
REMARK  status: ('A' for Active; 'I' for Inactive)
REMARK    1  A    between atoms: N_1  and  C_2
REMARK    2  A    between atoms: C_2  and  C_3
REMARK    3  A    between atoms: C_2  and  C_18
REMARK    4  A    between atoms: C_3  and  C_4
REMARK    5  A    between atoms: C_7  and  C_8
REMARK    6  A    between atoms: C_8  and  N_9
REMARK    7  A    between atoms: N_9  and  C_10
REMARK    8  A    between atoms: C_10  and  C_11
REMARK                            x       y       z     vdW  Elec       q    Type
REMARK                         _______ _______ _______ _____ _____    ______ ____
ROOT
ATOM      1  C   UNL     1      48.392   7.116  13.887  0.00  0.00    +0.000 C 
ENDROOT
BRANCH   1   2
ATOM      2  C   UNL     1      49.002   7.406  15.236  0.00  0.00    +0.000 A 
ATOM      3  C   UNL     1      50.104   6.677  15.689  0.00  0.00    +0.000 A 
ATOM      4  C   UNL     1      50.602   6.891  16.971  0.00  0.00    +0.000 A 
ATOM      5  C   UNL     1      49.984   7.834  17.788  0.00  0.00    +0.000 A 
ATOM      6  N   UNL     1      48.920   8.568  17.369  0.00  0.00    +0.000 NA
ATOM      7  C   UNL     1      48.460   8.342  16.112  0.00  0.00    +0.000 A 
BRANCH   5   8
ATOM      8  C   UNL     1      50.496   8.051  19.203  0.00  0.00    +0.000 C 
BRANCH   8   9
ATOM      9  N   UNL     1      49.660   7.469  20.265  0.00  0.00    +0.000 NA
ATOM     10  H   UNL     1      48.690   7.565  19.953  0.00  0.00    +0.000 HD
BRANCH   9  11
ATOM     11  C   UNL     1      49.926   6.038  20.494  0.00  0.00    +0.000 C 
BRANCH  11  12
ATOM     12  C   UNL     1      48.581   5.273  20.618  0.00  0.00    +0.000 C 
ATOM     13  C   UNL     1      47.430   5.919  19.863  0.00  0.00    +0.000 C 
ATOM     14  C   UNL     1      47.478   5.302  18.478  0.00  0.00    +0.000 C 
ATOM     15  C   UNL     1      48.274   4.015  18.637  0.00  0.00    +0.000 C 
ATOM     16  N   UNL     1      48.641   3.916  20.047  0.00  0.00    +0.000 NA
ATOM     17  H   UNL     1      49.601   3.574  20.148  0.00  0.00    +0.000 HD
ENDBRANCH  11  12
ENDBRANCH   9  11
ENDBRANCH   8   9
ENDBRANCH   5   8
ENDBRANCH   1   2
BRANCH   1  18
ATOM     18  C   UNL     1      47.590   5.802  13.755  0.00  0.00    +0.000 C 
BRANCH  18  19
ATOM     19  C   UNL     1      46.361   6.009  12.881  0.00  0.00    +0.000 A 
ATOM     20  C   UNL     1      45.943   7.216  12.337  0.00  0.00    +0.000 A 
ATOM     21  S   UNL     1      44.506   7.089  11.422  0.00  0.00    +0.000 S 
ATOM     22  C   UNL     1      44.418   5.411  11.682  0.00  0.00    +0.000 A 
ATOM     23  N   UNL     1      43.410   4.666  11.155  0.00  0.00    +0.000 NA
ATOM     24  C   UNL     1      43.485   3.405  11.427  0.00  0.00    +0.000 A 
ATOM     25  N   UNL     1      44.479   2.821  12.171  0.00  0.00    +0.000 N 
ATOM     26  C   UNL     1      45.533   3.527  12.704  0.00  0.00    +0.000 A 
ATOM     27  O   UNL     1      46.446   2.973  13.309  0.00  0.00    +0.000 OA
ATOM     28  C   UNL     1      45.471   4.955  12.453  0.00  0.00    +0.000 A 
ATOM     29  H   UNL     1      44.491   1.824  12.327  0.00  0.00    +0.000 HD
ENDBRANCH  18  19
BRANCH  18  30
ATOM     30  N   UNL     1      47.156   5.276  15.054  0.00  0.00    +0.000 NA
ATOM     31  H   UNL     1      46.191   5.558  15.228  0.00  0.00    +0.000 HD
ATOM     32  H   UNL     1      47.725   5.661  15.802  0.00  0.00    +0.000 HD
ENDBRANCH  18  30
ENDBRANCH   1  18
TORSDOF 8
ENDMDL
