MODEL 1
REMARK VINA RESULT:    -7.667      0.000      0.000
REMARK INTER + INTRA:         -12.312
REMARK INTER:                 -11.252
REMARK INTRA:                  -1.060
REMARK UNBOUND:                -1.060
REMARK  Name = 
REMARK  9 active torsions:
REMARK  status: ('A' for Active; 'I' for Inactive)
REMARK    1  A    between atoms: C_1  and  O_2
REMARK    2  A    between atoms: O_2  and  C_3
REMARK    3  A    between atoms: C_10  and  C_11
REMARK    4  A    between atoms: N_13  and  C_14
REMARK    5  A    between atoms: C_14  and  C_15
REMARK    6  A    between atoms: C_18  and  N_19
REMARK    7  A    between atoms: N_19  and  C_20
REMARK    8  A    between atoms: C_20  and  C_21
REMARK    9  A    between atoms: C_21  and  N_22
REMARK                            x       y       z     vdW  Elec       q    Type
REMARK                         _______ _______ _______ _____ _____    ______ ____
ROOT
ATOM      1  C   UNL     1      47.565   7.891  13.215  0.00  0.00    +0.000 C 
ENDROOT
BRANCH   1   2
ATOM      2  C   UNL     1      46.499   6.943  12.731  0.00  0.00    +0.000 A 
ATOM      3  C   UNL     1      45.373   7.421  12.051  0.00  0.00    +0.000 A 
ATOM      4  C   UNL     1      44.414   6.534  11.543  0.00  0.00    +0.000 A 
ATOM      5  C   UNL     1      44.563   5.151  11.682  0.00  0.00    +0.000 A 
ATOM      6  C   UNL     1      45.626   4.689  12.467  0.00  0.00    +0.000 A 
ATOM      7  C   UNL     1      46.592   5.569  12.973  0.00  0.00    +0.000 A 
BRANCH   5   8
ATOM      8  N   UNL     1      43.663   4.211  11.169  0.00  0.00    +0.000 N 
ATOM      9  H   UNL     1      42.825   4.655  10.788  0.00  0.00    +0.000 HD
BRANCH   8  10
ATOM     10  C   UNL     1      44.178   3.211  10.226  0.00  0.00    +0.000 C 
BRANCH  10  11
ATOM     11  C   UNL     1      44.559   3.879   8.882  0.00  0.00    +0.000 C 
BRANCH  11  12
ATOM     12  N   UNL     1      45.325   3.002   7.967  0.00  0.00    +0.000 NA
ATOM     13  C   UNL     1      46.421   3.718   7.296  0.00  0.00    +0.000 C 
ATOM     14  C   UNL     1      47.092   2.811   6.267  0.00  0.00    +0.000 C 
ATOM     15  C   UNL     1      47.615   1.531   6.907  0.00  0.00    +0.000 C 
ATOM     16  C   UNL     1      46.526   0.857   7.734  0.00  0.00    +0.000 C 
ATOM     17  C   UNL     1      45.857   1.839   8.698  0.00  0.00    +0.000 C 
ENDBRANCH  11  12
ENDBRANCH  10  11
ENDBRANCH   8  10
ENDBRANCH   5   8
ENDBRANCH   1   2
BRANCH   1  20
ATOM     18  C   UNL     1      48.716   7.226  15.286  0.00  0.00    +0.000 C 
ATOM     19  O   UNL     1      49.609   6.661  14.657  0.00  0.00    +0.000 OA
ATOM     20  N   UNL     1      47.682   7.856  14.648  0.00  0.00    +0.000 N 
ATOM     21  H   UNL     1      46.915   8.237  15.182  0.00  0.00    +0.000 HD
BRANCH  18  29
ATOM     22  C   UNL     1      48.708   4.791  17.712  0.00  0.00    +0.000 A 
ATOM     23  N   UNL     1      48.674   4.058  18.844  0.00  0.00    +0.000 NA
ATOM     24  C   UNL     1      48.640   4.708  20.009  0.00  0.00    +0.000 A 
ATOM     25  N   UNL     1      48.638   6.025  20.195  0.00  0.00    +0.000 NA
ATOM     26  C   UNL     1      48.676   6.718  19.044  0.00  0.00    +0.000 A 
ATOM     27  S   UNL     1      48.688   8.414  19.086  0.00  0.00    +0.000 S 
ATOM     28  C   UNL     1      48.724   8.504  17.389  0.00  0.00    +0.000 A 
ATOM     29  C   UNL     1      48.723   7.267  16.758  0.00  0.00    +0.000 A 
ATOM     30  C   UNL     1      48.709   6.195  17.754  0.00  0.00    +0.000 A 
BRANCH  22  32
ATOM     31  C   UNL     1      47.563   3.675  15.994  0.00  0.00    +0.000 C 
ATOM     32  O   UNL     1      48.813   4.124  16.511  0.00  0.00    +0.000 OA
ENDBRANCH  22  32
ENDBRANCH  18  29
ENDBRANCH   1  20
TORSDOF 8
ENDMDL
MODEL 2
REMARK VINA RESULT:    -7.521      1.637      2.691
REMARK INTER + INTRA:         -12.098
REMARK INTER:                 -10.947
REMARK INTRA:                  -1.150
REMARK UNBOUND:                -1.060
REMARK  Name = 
REMARK  9 active torsions:
REMARK  status: ('A' for Active; 'I' for Inactive)
REMARK    1  A    between atoms: C_1  and  O_2
REMARK    2  A    between atoms: O_2  and  C_3
REMARK    3  A    between atoms: C_10  and  C_11
REMARK    4  A    between atoms: N_13  and  C_14
REMARK    5  A    between atoms: C_14  and  C_15
REMARK    6  A    between atoms: C_18  and  N_19
REMARK    7  A    between atoms: N_19  and  C_20
REMARK    8  A    between atoms: C_20  and  C_21
REMARK    9  A    between atoms: C_21  and  N_22
REMARK                            x       y       z     vdW  Elec       q    Type
REMARK                         _______ _______ _______ _____ _____    ______ ____
ROOT
ATOM      1  C   UNL     1      48.485   6.677  14.025  0.00  0.00    +0.000 C 
ENDROOT
BRANCH   1   2
ATOM      2  C   UNL     1      47.354   6.092  13.219  0.00  0.00    +0.000 A 
ATOM      3  C   UNL     1      46.733   4.903  13.619  0.00  0.00    +0.000 A 
ATOM      4  C   UNL     1      45.638   4.394  12.906  0.00  0.00    +0.000 A 
ATOM      5  C   UNL     1      45.125   5.065  11.793  0.00  0.00    +0.000 A 
ATOM      6  C   UNL     1      45.827   6.184  11.330  0.00  0.00    +0.000 A 
ATOM      7  C   UNL     1      46.919   6.703  12.039  0.00  0.00    +0.000 A 
BRANCH   5   8
ATOM      8  N   UNL     1      44.016   4.631  11.058  0.00  0.00    +0.000 N 
ATOM      9  H   UNL     1      43.551   5.405  10.578  0.00  0.00    +0.000 HD
BRANCH   8  10
ATOM     10  C   UNL     1      44.202   3.504  10.138  0.00  0.00    +0.000 C 
BRANCH  10  11
ATOM     11  C   UNL     1      44.515   4.015   8.710  0.00  0.00    +0.000 C 
BRANCH  11  12
ATOM     12  N   UNL     1      45.296   3.065   7.886  0.00  0.00    +0.000 NA
ATOM     13  C   UNL     1      46.403   3.723   7.174  0.00  0.00    +0.000 C 
ATOM     14  C   UNL     1      47.091   2.732   6.237  0.00  0.00    +0.000 C 
ATOM     15  C   UNL     1      47.604   1.513   6.992  0.00  0.00    +0.000 C 
ATOM     16  C   UNL     1      46.502   0.909   7.856  0.00  0.00    +0.000 C 
ATOM     17  C   UNL     1      45.817   1.969   8.722  0.00  0.00    +0.000 C 
ENDBRANCH  11  12
ENDBRANCH  10  11
ENDBRANCH   8  10
ENDBRANCH   5   8
ENDBRANCH   1   2
BRANCH   1  20
ATOM     18  C   UNL     1      49.061   6.320  16.390  0.00  0.00    +0.000 C 
ATOM     19  O   UNL     1      50.195   5.941  16.099  0.00  0.00    +0.000 OA
ATOM     20  N   UNL     1      48.167   6.702  15.427  0.00  0.00    +0.000 N 
ATOM     21  H   UNL     1      47.216   6.925  15.680  0.00  0.00    +0.000 HD
BRANCH  18  29
ATOM     22  C   UNL     1      47.792   8.863  18.324  0.00  0.00    +0.000 A 
ATOM     23  N   UNL     1      47.317   9.669  19.295  0.00  0.00    +0.000 NA
ATOM     24  C   UNL     1      47.138   9.145  20.510  0.00  0.00    +0.000 A 
ATOM     25  N   UNL     1      47.375   7.892  20.888  0.00  0.00    +0.000 NA
ATOM     26  C   UNL     1      47.843   7.123  19.891  0.00  0.00    +0.000 A 
ATOM     27  S   UNL     1      48.193   5.488  20.186  0.00  0.00    +0.000 S 
ATOM     28  C   UNL     1      48.696   5.256  18.580  0.00  0.00    +0.000 A 
ATOM     29  C   UNL     1      48.615   6.397  17.792  0.00  0.00    +0.000 A 
ATOM     30  C   UNL     1      48.088   7.514  18.577  0.00  0.00    +0.000 A 
BRANCH  22  32
ATOM     31  C   UNL     1      49.146  10.059  16.825  0.00  0.00    +0.000 C 
ATOM     32  O   UNL     1      47.913   9.381  17.052  0.00  0.00    +0.000 OA
ENDBRANCH  22  32
ENDBRANCH  18  29
ENDBRANCH   1  20
TORSDOF 8
ENDMDL
MODEL 3
REMARK VINA RESULT:    -6.952      1.378      2.032
REMARK INTER + INTRA:         -11.262
REMARK INTER:                 -10.229
REMARK INTRA:                  -1.034
REMARK UNBOUND:                -1.060
REMARK  Name = 
REMARK  9 active torsions:
REMARK  status: ('A' for Active; 'I' for Inactive)
REMARK    1  A    between atoms: C_1  and  O_2
REMARK    2  A    between atoms: O_2  and  C_3
REMARK    3  A    between atoms: C_10  and  C_11
REMARK    4  A    between atoms: N_13  and  C_14
REMARK    5  A    between atoms: C_14  and  C_15
REMARK    6  A    between atoms: C_18  and  N_19
REMARK    7  A    between atoms: N_19  and  C_20
REMARK    8  A    between atoms: C_20  and  C_21
REMARK    9  A    between atoms: C_21  and  N_22
REMARK                            x       y       z     vdW  Elec       q    Type
REMARK                         _______ _______ _______ _____ _____    ______ ____
ROOT
ATOM      1  C   UNL     1      48.548   7.863  14.112  0.00  0.00    +0.000 C 
ENDROOT
BRANCH   1   2
ATOM      2  C   UNL     1      47.592   6.998  13.333  0.00  0.00    +0.000 A 
ATOM      3  C   UNL     1      47.169   5.764  13.842  0.00  0.00    +0.000 A 
ATOM      4  C   UNL     1      46.229   4.989  13.149  0.00  0.00    +0.000 A 
ATOM      5  C   UNL     1      45.673   5.432  11.945  0.00  0.00    +0.000 A 
ATOM      6  C   UNL     1      46.191   6.606  11.385  0.00  0.00    +0.000 A 
ATOM      7  C   UNL     1      47.127   7.390  12.074  0.00  0.00    +0.000 A 
BRANCH   5   8
ATOM      8  N   UNL     1      44.706   4.726  11.221  0.00  0.00    +0.000 N 
ATOM      9  H   UNL     1      44.601   5.090  10.272  0.00  0.00    +0.000 HD
BRANCH   8  10
ATOM     10  C   UNL     1      44.805   3.262  11.193  0.00  0.00    +0.000 C 
BRANCH  10  11
ATOM     11  C   UNL     1      44.437   2.720   9.790  0.00  0.00    +0.000 C 
BRANCH  11  12
ATOM     12  N   UNL     1      45.579   2.653   8.849  0.00  0.00    +0.000 NA
ATOM     13  C   UNL     1      45.816   1.288   8.356  0.00  0.00    +0.000 C 
ATOM     14  C   UNL     1      47.081   1.247   7.500  0.00  0.00    +0.000 C 
ATOM     15  C   UNL     1      46.995   2.220   6.332  0.00  0.00    +0.000 C 
ATOM     16  C   UNL     1      46.599   3.612   6.815  0.00  0.00    +0.000 C 
ATOM     17  C   UNL     1      45.362   3.567   7.715  0.00  0.00    +0.000 C 
ENDBRANCH  11  12
ENDBRANCH  10  11
ENDBRANCH   8  10
ENDBRANCH   5   8
ENDBRANCH   1   2
BRANCH   1  20
ATOM     18  C   UNL     1      48.505   8.891  16.347  0.00  0.00    +0.000 C 
ATOM     19  O   UNL     1      48.993   9.936  15.921  0.00  0.00    +0.000 OA
ATOM     20  N   UNL     1      48.253   7.830  15.519  0.00  0.00    +0.000 N 
ATOM     21  H   UNL     1      47.935   6.953  15.903  0.00  0.00    +0.000 HD
BRANCH  18  29
ATOM     22  C   UNL     1      48.400   6.185  18.465  0.00  0.00    +0.000 A 
ATOM     23  N   UNL     1      48.242   5.311  19.480  0.00  0.00    +0.000 NA
ATOM     24  C   UNL     1      47.801   5.783  20.648  0.00  0.00    +0.000 A 
ATOM     25  N   UNL     1      47.493   7.044  20.942  0.00  0.00    +0.000 NA
ATOM     26  C   UNL     1      47.667   7.881  19.905  0.00  0.00    +0.000 A 
ATOM     27  S   UNL     1      47.333   9.534  20.097  0.00  0.00    +0.000 S 
ATOM     28  C   UNL     1      47.755   9.856  18.483  0.00  0.00    +0.000 A 
ATOM     29  C   UNL     1      48.152   8.733  17.768  0.00  0.00    +0.000 A 
ATOM     30  C   UNL     1      48.112   7.550  18.628  0.00  0.00    +0.000 A 
BRANCH  22  32
ATOM     31  C   UNL     1      50.324   5.474  17.325  0.00  0.00    +0.000 C 
ATOM     32  O   UNL     1      48.920   5.714  17.279  0.00  0.00    +0.000 OA
ENDBRANCH  22  32
ENDBRANCH  18  29
ENDBRANCH   1  20
TORSDOF 8
ENDMDL
MODEL 4
REMARK VINA RESULT:    -6.738      2.019      2.540
REMARK INTER + INTRA:         -10.949
REMARK INTER:                  -9.933
REMARK INTRA:                  -1.016
REMARK UNBOUND:                -1.060
REMARK  Name = 
REMARK  9 active torsions:
REMARK  status: ('A' for Active; 'I' for Inactive)
REMARK    1  A    between atoms: C_1  and  O_2
REMARK    2  A    between atoms: O_2  and  C_3
REMARK    3  A    between atoms: C_10  and  C_11
REMARK    4  A    between atoms: N_13  and  C_14
REMARK    5  A    between atoms: C_14  and  C_15
REMARK    6  A    between atoms: C_18  and  N_19
REMARK    7  A    between atoms: N_19  and  C_20
REMARK    8  A    between atoms: C_20  and  C_21
REMARK    9  A    between atoms: C_21  and  N_22
REMARK                            x       y       z     vdW  Elec       q    Type
REMARK                         _______ _______ _______ _____ _____    ______ ____
ROOT
ATOM      1  C   UNL     1      48.626   8.023  13.682  0.00  0.00    +0.000 C 
ENDROOT
BRANCH   1   2
ATOM      2  C   UNL     1      47.613   7.088  13.075  0.00  0.00    +0.000 A 
ATOM      3  C   UNL     1      47.362   5.836  13.650  0.00  0.00    +0.000 A 
ATOM      4  C   UNL     1      46.373   4.993  13.124  0.00  0.00    +0.000 A 
ATOM      5  C   UNL     1      45.598   5.384  12.028  0.00  0.00    +0.000 A 
ATOM      6  C   UNL     1      45.939   6.581  11.387  0.00  0.00    +0.000 A 
ATOM      7  C   UNL     1      46.922   7.432  11.909  0.00  0.00    +0.000 A 
BRANCH   5   8
ATOM      8  N   UNL     1      44.574   4.607  11.476  0.00  0.00    +0.000 N 
ATOM      9  H   UNL     1      44.258   4.977  10.576  0.00  0.00    +0.000 HD
BRANCH   8  10
ATOM     10  C   UNL     1      44.788   3.158  11.379  0.00  0.00    +0.000 C 
BRANCH  10  11
ATOM     11  C   UNL     1      44.456   2.655   9.954  0.00  0.00    +0.000 C 
BRANCH  11  12
ATOM     12  N   UNL     1      45.607   2.670   9.024  0.00  0.00    +0.000 NA
ATOM     13  C   UNL     1      45.834   1.360   8.393  0.00  0.00    +0.000 C 
ATOM     14  C   UNL     1      47.108   1.392   7.552  0.00  0.00    +0.000 C 
ATOM     15  C   UNL     1      47.048   2.482   6.490  0.00  0.00    +0.000 C 
ATOM     16  C   UNL     1      46.663   3.821   7.110  0.00  0.00    +0.000 C 
ATOM     17  C   UNL     1      45.415   3.700   7.988  0.00  0.00    +0.000 C 
ENDBRANCH  11  12
ENDBRANCH  10  11
ENDBRANCH   8  10
ENDBRANCH   5   8
ENDBRANCH   1   2
BRANCH   1  20
ATOM     18  C   UNL     1      49.777   7.382  15.760  0.00  0.00    +0.000 C 
ATOM     19  O   UNL     1      49.026   8.081  16.439  0.00  0.00    +0.000 OA
ATOM     20  N   UNL     1      49.639   7.299  14.401  0.00  0.00    +0.000 N 
ATOM     21  H   UNL     1      50.318   6.791  13.854  0.00  0.00    +0.000 HD
BRANCH  18  29
ATOM     22  C   UNL     1      49.894   4.217  17.096  0.00  0.00    +0.000 A 
ATOM     23  N   UNL     1      50.206   3.051  17.697  0.00  0.00    +0.000 NA
ATOM     24  C   UNL     1      51.452   2.894  18.149  0.00  0.00    +0.000 A 
ATOM     25  N   UNL     1      52.451   3.770  18.073  0.00  0.00    +0.000 NA
ATOM     26  C   UNL     1      52.099   4.915  17.464  0.00  0.00    +0.000 A 
ATOM     27  S   UNL     1      53.249   6.148  17.268  0.00  0.00    +0.000 S 
ATOM     28  C   UNL     1      52.113   7.152  16.500  0.00  0.00    +0.000 A 
ATOM     29  C   UNL     1      50.851   6.585  16.378  0.00  0.00    +0.000 A 
ATOM     30  C   UNL     1      50.848   5.236  16.945  0.00  0.00    +0.000 A 
BRANCH  22  32
ATOM     31  C   UNL     1      47.733   3.313  16.946  0.00  0.00    +0.000 C 
ATOM     32  O   UNL     1      48.629   4.355  16.567  0.00  0.00    +0.000 OA
ENDBRANCH  22  32
ENDBRANCH  18  29
ENDBRANCH   1  20
TORSDOF 8
ENDMDL
MODEL 5
REMARK VINA RESULT:    -6.606      3.280      8.149
REMARK INTER + INTRA:         -10.755
REMARK INTER:                  -9.167
REMARK INTRA:                  -1.588
REMARK UNBOUND:                -1.060
REMARK  Name = 
REMARK  9 active torsions:
REMARK  status: ('A' for Active; 'I' for Inactive)
REMARK    1  A    between atoms: C_1  and  O_2
REMARK    2  A    between atoms: O_2  and  C_3
REMARK    3  A    between atoms: C_10  and  C_11
REMARK    4  A    between atoms: N_13  and  C_14
REMARK    5  A    between atoms: C_14  and  C_15
REMARK    6  A    between atoms: C_18  and  N_19
REMARK    7  A    between atoms: N_19  and  C_20
REMARK    8  A    between atoms: C_20  and  C_21
REMARK    9  A    between atoms: C_21  and  N_22
REMARK                            x       y       z     vdW  Elec       q    Type
REMARK                         _______ _______ _______ _____ _____    ______ ____
ROOT
ATOM      1  C   UNL     1      48.483   7.980  11.844  0.00  0.00    +0.000 C 
ENDROOT
BRANCH   1   2
ATOM      2  C   UNL     1      48.561   7.939  13.348  0.00  0.00    +0.000 A 
ATOM      3  C   UNL     1      49.295   6.941  13.999  0.00  0.00    +0.000 A 
ATOM      4  C   UNL     1      49.422   6.941  15.395  0.00  0.00    +0.000 A 
ATOM      5  C   UNL     1      48.838   7.945  16.173  0.00  0.00    +0.000 A 
ATOM      6  C   UNL     1      48.007   8.866  15.526  0.00  0.00    +0.000 A 
ATOM      7  C   UNL     1      47.879   8.877  14.131  0.00  0.00    +0.000 A 
BRANCH   5   8
ATOM      8  N   UNL     1      48.955   8.023  17.565  0.00  0.00    +0.000 N 
ATOM      9  H   UNL     1      48.046   8.153  18.016  0.00  0.00    +0.000 HD
BRANCH   8  10
ATOM     10  C   UNL     1      49.713   6.970  18.251  0.00  0.00    +0.000 C 
BRANCH  10  11
ATOM     11  C   UNL     1      48.764   6.071  19.081  0.00  0.00    +0.000 C 
BRANCH  11  12
ATOM     12  N   UNL     1      48.667   4.678  18.588  0.00  0.00    +0.000 NA
ATOM     13  C   UNL     1      47.472   4.461  17.759  0.00  0.00    +0.000 C 
ATOM     14  C   UNL     1      47.345   2.984  17.390  0.00  0.00    +0.000 C 
ATOM     15  C   UNL     1      48.586   2.483  16.663  0.00  0.00    +0.000 C 
ATOM     16  C   UNL     1      49.849   2.838  17.441  0.00  0.00    +0.000 C 
ATOM     17  C   UNL     1      49.877   4.318  17.830  0.00  0.00    +0.000 C 
ENDBRANCH  11  12
ENDBRANCH  10  11
ENDBRANCH   8  10
ENDBRANCH   5   8
ENDBRANCH   1   2
BRANCH   1  20
ATOM     18  C   UNL     1      46.340   6.916  11.272  0.00  0.00    +0.000 C 
ATOM     19  O   UNL     1      45.704   7.900  11.649  0.00  0.00    +0.000 OA
ATOM     20  N   UNL     1      47.706   6.883  11.332  0.00  0.00    +0.000 N 
ATOM     21  H   UNL     1      48.203   6.036  11.101  0.00  0.00    +0.000 HD
BRANCH  18  29
ATOM     22  C   UNL     1      44.567   4.339  12.698  0.00  0.00    +0.000 A 
ATOM     23  N   UNL     1      43.874   3.220  12.992  0.00  0.00    +0.000 NA
ATOM     24  C   UNL     1      43.537   2.411  11.985  0.00  0.00    +0.000 A 
ATOM     25  N   UNL     1      43.806   2.581  10.693  0.00  0.00    +0.000 NA
ATOM     26  C   UNL     1      44.494   3.708  10.444  0.00  0.00    +0.000 A 
ATOM     27  S   UNL     1      44.920   4.096   8.847  0.00  0.00    +0.000 S 
ATOM     28  C   UNL     1      45.701   5.518   9.350  0.00  0.00    +0.000 A 
ATOM     29  C   UNL     1      45.661   5.730  10.721  0.00  0.00    +0.000 A 
ATOM     30  C   UNL     1      44.923   4.649  11.376  0.00  0.00    +0.000 A 
BRANCH  22  32
ATOM     31  C   UNL     1      46.156   5.030  14.282  0.00  0.00    +0.000 C 
ATOM     32  O   UNL     1      44.856   5.211  13.726  0.00  0.00    +0.000 OA
ENDBRANCH  22  32
ENDBRANCH  18  29
ENDBRANCH   1  20
TORSDOF 8
ENDMDL
MODEL 6
REMARK VINA RESULT:    -6.569      1.718      2.387
REMARK INTER + INTRA:         -10.701
REMARK INTER:                  -9.909
REMARK INTRA:                  -0.792
REMARK UNBOUND:                -1.060
REMARK  Name = 
REMARK  9 active torsions:
REMARK  status: ('A' for Active; 'I' for Inactive)
REMARK    1  A    between atoms: C_1  and  O_2
REMARK    2  A    between atoms: O_2  and  C_3
REMARK    3  A    between atoms: C_10  and  C_11
REMARK    4  A    between atoms: N_13  and  C_14
REMARK    5  A    between atoms: C_14  and  C_15
REMARK    6  A    between atoms: C_18  and  N_19
REMARK    7  A    between atoms: N_19  and  C_20
REMARK    8  A    between atoms: C_20  and  C_21
REMARK    9  A    between atoms: C_21  and  N_22
REMARK                            x       y       z     vdW  Elec       q    Type
REMARK                         _______ _______ _______ _____ _____    ______ ____
ROOT
ATOM      1  C   UNL     1      47.721   8.316  14.165  0.00  0.00    +0.000 C 
ENDROOT
BRANCH   1   2
ATOM      2  C   UNL     1      46.834   7.573  13.200  0.00  0.00    +0.000 A 
ATOM      3  C   UNL     1      45.889   8.257  12.426  0.00  0.00    +0.000 A 
ATOM      4  C   UNL     1      45.109   7.576  11.481  0.00  0.00    +0.000 A 
ATOM      5  C   UNL     1      45.266   6.203  11.270  0.00  0.00    +0.000 A 
ATOM      6  C   UNL     1      46.124   5.508  12.131  0.00  0.00    +0.000 A 
ATOM      7  C   UNL     1      46.911   6.183  13.074  0.00  0.00    +0.000 A 
BRANCH   5   8
ATOM      8  N   UNL     1      44.546   5.469  10.321  0.00  0.00    +0.000 N 
ATOM      9  H   UNL     1      43.707   5.965  10.013  0.00  0.00    +0.000 HD
BRANCH   8  10
ATOM     10  C   UNL     1      45.278   4.945   9.161  0.00  0.00    +0.000 C 
BRANCH  10  11
ATOM     11  C   UNL     1      44.485   3.794   8.495  0.00  0.00    +0.000 C 
BRANCH  11  12
ATOM     12  N   UNL     1      45.316   2.880   7.679  0.00  0.00    +0.000 NA
ATOM     13  C   UNL     1      46.361   3.595   6.929  0.00  0.00    +0.000 C 
ATOM     14  C   UNL     1      47.100   2.631   6.004  0.00  0.00    +0.000 C 
ATOM     15  C   UNL     1      47.710   1.471   6.778  0.00  0.00    +0.000 C 
ATOM     16  C   UNL     1      46.669   0.815   7.679  0.00  0.00    +0.000 C 
ATOM     17  C   UNL     1      45.927   1.846   8.531  0.00  0.00    +0.000 C 
ENDBRANCH  11  12
ENDBRANCH  10  11
ENDBRANCH   8  10
ENDBRANCH   5   8
ENDBRANCH   1   2
BRANCH   1  20
ATOM     18  C   UNL     1      49.063   6.877  15.642  0.00  0.00    +0.000 C 
ATOM     19  O   UNL     1      50.002   6.869  14.848  0.00  0.00    +0.000 OA
ATOM     20  N   UNL     1      47.912   7.568  15.379  0.00  0.00    +0.000 N 
ATOM     21  H   UNL     1      47.121   7.490  16.001  0.00  0.00    +0.000 HD
BRANCH  18  29
ATOM     22  C   UNL     1      50.732   7.469  18.588  0.00  0.00    +0.000 A 
ATOM     23  N   UNL     1      51.287   7.442  19.816  0.00  0.00    +0.000 NA
ATOM     24  C   UNL     1      51.000   6.408  20.610  0.00  0.00    +0.000 A 
ATOM     25  N   UNL     1      50.209   5.375  20.330  0.00  0.00    +0.000 NA
ATOM     26  C   UNL     1      49.673   5.443  19.099  0.00  0.00    +0.000 A 
ATOM     27  S   UNL     1      48.628   4.215  18.571  0.00  0.00    +0.000 S 
ATOM     28  C   UNL     1      48.424   4.971  17.063  0.00  0.00    +0.000 A 
ATOM     29  C   UNL     1      49.136   6.155  16.924  0.00  0.00    +0.000 A 
ATOM     30  C   UNL     1      49.874   6.445  18.154  0.00  0.00    +0.000 A 
BRANCH  22  32
ATOM     31  C   UNL     1      52.265   8.573  17.195  0.00  0.00    +0.000 C 
ATOM     32  O   UNL     1      50.971   8.569  17.793  0.00  0.00    +0.000 OA
ENDBRANCH  22  32
ENDBRANCH  18  29
ENDBRANCH   1  20
TORSDOF 8
ENDMDL
MODEL 7
REMARK VINA RESULT:    -6.546      5.064      9.339
REMARK INTER + INTRA:         -10.667
REMARK INTER:                  -9.781
REMARK INTRA:                  -0.886
REMARK UNBOUND:                -1.060
REMARK  Name = 
REMARK  9 active torsions:
REMARK  status: ('A' for Active; 'I' for Inactive)
REMARK    1  A    between atoms: C_1  and  O_2
REMARK    2  A    between atoms: O_2  and  C_3
REMARK    3  A    between atoms: C_10  and  C_11
REMARK    4  A    between atoms: N_13  and  C_14
REMARK    5  A    between atoms: C_14  and  C_15
REMARK    6  A    between atoms: C_18  and  N_19
REMARK    7  A    between atoms: N_19  and  C_20
REMARK    8  A    between atoms: C_20  and  C_21
REMARK    9  A    between atoms: C_21  and  N_22
REMARK                            x       y       z     vdW  Elec       q    Type
REMARK                         _______ _______ _______ _____ _____    ______ ____
ROOT
ATOM      1  C   UNL     1      47.498   3.322  16.935  0.00  0.00    +0.000 C 
ENDROOT
BRANCH   1   2
ATOM      2  C   UNL     1      48.977   3.214  17.205  0.00  0.00    +0.000 A 
ATOM      3  C   UNL     1      49.697   4.313  17.690  0.00  0.00    +0.000 A 
ATOM      4  C   UNL     1      51.057   4.194  18.003  0.00  0.00    +0.000 A 
ATOM      5  C   UNL     1      51.729   2.976  17.861  0.00  0.00    +0.000 A 
ATOM      6  C   UNL     1      51.033   1.919  17.262  0.00  0.00    +0.000 A 
ATOM      7  C   UNL     1      49.671   2.027  16.951  0.00  0.00    +0.000 A 
BRANCH   5   8
ATOM      8  N   UNL     1      53.075   2.780  18.188  0.00  0.00    +0.000 N 
ATOM      9  H   UNL     1      53.216   2.718  19.198  0.00  0.00    +0.000 HD
BRANCH   8  10
ATOM     10  C   UNL     1      53.794   1.695  17.509  0.00  0.00    +0.000 C 
BRANCH  10  11
ATOM     11  C   UNL     1      54.481   0.770  18.543  0.00  0.00    +0.000 C 
BRANCH  11  12
ATOM     12  N   UNL     1      55.000  -0.493  17.973  0.00  0.00    +0.000 NA
ATOM     13  C   UNL     1      54.396  -1.679  18.600  0.00  0.00    +0.000 C 
ATOM     14  C   UNL     1      55.060  -2.950  18.076  0.00  0.00    +0.000 C 
ATOM     15  C   UNL     1      54.958  -3.049  16.560  0.00  0.00    +0.000 C 
ATOM     16  C   UNL     1      55.441  -1.761  15.900  0.00  0.00    +0.000 C 
ATOM     17  C   UNL     1      54.780  -0.527  16.517  0.00  0.00    +0.000 C 
ENDBRANCH  11  12
ENDBRANCH  10  11
ENDBRANCH   8  10
ENDBRANCH   5   8
ENDBRANCH   1   2
BRANCH   1  20
ATOM     18  C   UNL     1      47.140   4.236  14.679  0.00  0.00    +0.000 C 
ATOM     19  O   UNL     1      47.313   3.134  14.161  0.00  0.00    +0.000 OA
ATOM     20  N   UNL     1      47.211   4.406  16.035  0.00  0.00    +0.000 N 
ATOM     21  H   UNL     1      47.153   5.332  16.433  0.00  0.00    +0.000 HD
BRANCH  18  29
ATOM     22  C   UNL     1      44.492   5.091  12.661  0.00  0.00    +0.000 A 
ATOM     23  N   UNL     1      43.617   5.653  11.803  0.00  0.00    +0.000 NA
ATOM     24  C   UNL     1      43.922   6.848  11.292  0.00  0.00    +0.000 A 
ATOM     25  N   UNL     1      45.011   7.572  11.535  0.00  0.00    +0.000 NA
ATOM     26  C   UNL     1      45.854   6.978  12.396  0.00  0.00    +0.000 A 
ATOM     27  S   UNL     1      47.296   7.760  12.833  0.00  0.00    +0.000 S 
ATOM     28  C   UNL     1      47.749   6.469  13.840  0.00  0.00    +0.000 A 
ATOM     29  C   UNL     1      46.832   5.426  13.867  0.00  0.00    +0.000 A 
ATOM     30  C   UNL     1      45.688   5.740  13.011  0.00  0.00    +0.000 A 
BRANCH  22  32
ATOM     31  C   UNL     1      43.608   2.943  12.326  0.00  0.00    +0.000 C 
ATOM     32  O   UNL     1      44.149   3.890  13.243  0.00  0.00    +0.000 OA
ENDBRANCH  22  32
ENDBRANCH  18  29
ENDBRANCH   1  20
TORSDOF 8
ENDMDL
MODEL 8
REMARK VINA RESULT:    -6.516      3.527      5.747
REMARK INTER + INTRA:         -10.622
REMARK INTER:                  -9.461
REMARK INTRA:                  -1.161
REMARK UNBOUND:                -1.060
REMARK  Name = 
REMARK  9 active torsions:
REMARK  status: ('A' for Active; 'I' for Inactive)
REMARK    1  A    between atoms: C_1  and  O_2
REMARK    2  A    between atoms: O_2  and  C_3
REMARK    3  A    between atoms: C_10  and  C_11
REMARK    4  A    between atoms: N_13  and  C_14
REMARK    5  A    between atoms: C_14  and  C_15
REMARK    6  A    between atoms: C_18  and  N_19
REMARK    7  A    between atoms: N_19  and  C_20
REMARK    8  A    between atoms: C_20  and  C_21
REMARK    9  A    between atoms: C_21  and  N_22
REMARK                            x       y       z     vdW  Elec       q    Type
REMARK                         _______ _______ _______ _____ _____    ______ ____
ROOT
ATOM      1  C   UNL     1      48.113   3.158  17.641  0.00  0.00    +0.000 C 
ENDROOT
BRANCH   1   2
ATOM      2  C   UNL     1      47.994   4.213  16.573  0.00  0.00    +0.000 A 
ATOM      3  C   UNL     1      48.701   5.417  16.676  0.00  0.00    +0.000 A 
ATOM      4  C   UNL     1      48.643   6.371  15.651  0.00  0.00    +0.000 A 
ATOM      5  C   UNL     1      47.897   6.141  14.491  0.00  0.00    +0.000 A 
ATOM      6  C   UNL     1      47.099   4.992  14.451  0.00  0.00    +0.000 A 
ATOM      7  C   UNL     1      47.156   4.030  15.469  0.00  0.00    +0.000 A 
BRANCH   5   8
ATOM      8  N   UNL     1      47.824   7.034  13.417  0.00  0.00    +0.000 N 
ATOM      9  H   UNL     1      48.727   7.471  13.222  0.00  0.00    +0.000 HD
BRANCH   8  10
ATOM     10  C   UNL     1      47.215   6.557  12.169  0.00  0.00    +0.000 C 
BRANCH  10  11
ATOM     11  C   UNL     1      45.886   7.303  11.894  0.00  0.00    +0.000 C 
BRANCH  11  12
ATOM     12  N   UNL     1      44.760   6.415  11.525  0.00  0.00    +0.000 NA
ATOM     13  C   UNL     1      45.195   5.272  10.707  0.00  0.00    +0.000 C 
ATOM     14  C   UNL     1      43.984   4.466  10.241  0.00  0.00    +0.000 C 
ATOM     15  C   UNL     1      43.150   3.981  11.418  0.00  0.00    +0.000 C 
ATOM     16  C   UNL     1      42.820   5.135  12.359  0.00  0.00    +0.000 C 
ATOM     17  C   UNL     1      44.070   5.934  12.734  0.00  0.00    +0.000 C 
ENDBRANCH  11  12
ENDBRANCH  10  11
ENDBRANCH   8  10
ENDBRANCH   5   8
ENDBRANCH   1   2
BRANCH   1  20
ATOM     18  C   UNL     1      50.336   2.196  17.211  0.00  0.00    +0.000 C 
ATOM     19  O   UNL     1      49.962   1.703  16.148  0.00  0.00    +0.000 OA
ATOM     20  N   UNL     1      49.488   2.928  17.996  0.00  0.00    +0.000 N 
ATOM     21  H   UNL     1      49.789   3.249  18.904  0.00  0.00    +0.000 HD
BRANCH  18  29
ATOM     22  C   UNL     1      52.475   4.235  18.968  0.00  0.00    +0.000 A 
ATOM     23  N   UNL     1      53.506   4.829  19.602  0.00  0.00    +0.000 NA
ATOM     24  C   UNL     1      54.655   4.155  19.695  0.00  0.00    +0.000 A 
ATOM     25  N   UNL     1      54.911   2.936  19.229  0.00  0.00    +0.000 NA
ATOM     26  C   UNL     1      53.857   2.379  18.608  0.00  0.00    +0.000 A 
ATOM     27  S   UNL     1      53.996   0.818  17.957  0.00  0.00    +0.000 S 
ATOM     28  C   UNL     1      52.393   0.857  17.396  0.00  0.00    +0.000 A 
ATOM     29  C   UNL     1      51.723   2.039  17.683  0.00  0.00    +0.000 A 
ATOM     30  C   UNL     1      52.600   2.946  18.424  0.00  0.00    +0.000 A 
BRANCH  22  32
ATOM     31  C   UNL     1      50.842   5.384  20.202  0.00  0.00    +0.000 C 
ATOM     32  O   UNL     1      51.267   4.899  18.932  0.00  0.00    +0.000 OA
ENDBRANCH  22  32
ENDBRANCH  18  29
ENDBRANCH   1  20
TORSDOF 8
ENDMDL
MODEL 9
REMARK VINA RESULT:    -6.373      1.912      3.226
REMARK INTER + INTRA:         -10.412
REMARK INTER:                  -9.209
REMARK INTRA:                  -1.203
REMARK UNBOUND:                -1.060
REMARK  Name = 
REMARK  9 active torsions:
REMARK  status: ('A' for Active; 'I' for Inactive)
REMARK    1  A    between atoms: C_1  and  O_2
REMARK    2  A    between atoms: O_2  and  C_3
REMARK    3  A    between atoms: C_10  and  C_11
REMARK    4  A    between atoms: N_13  and  C_14
REMARK    5  A    between atoms: C_14  and  C_15
REMARK    6  A    between atoms: C_18  and  N_19
REMARK    7  A    between atoms: N_19  and  C_20
REMARK    8  A    between atoms: C_20  and  C_21
REMARK    9  A    between atoms: C_21  and  N_22
REMARK                            x       y       z     vdW  Elec       q    Type
REMARK                         _______ _______ _______ _____ _____    ______ ____
ROOT
ATOM      1  C   UNL     1      47.802   7.490  13.488  0.00  0.00    +0.000 C 
ENDROOT
BRANCH   1   2
ATOM      2  C   UNL     1      46.894   6.314  13.234  0.00  0.00    +0.000 A 
ATOM      3  C   UNL     1      45.706   6.472  12.511  0.00  0.00    +0.000 A 
ATOM      4  C   UNL     1      44.895   5.367  12.217  0.00  0.00    +0.000 A 
ATOM      5  C   UNL     1      45.257   4.078  12.619  0.00  0.00    +0.000 A 
ATOM      6  C   UNL     1      46.380   3.948  13.444  0.00  0.00    +0.000 A 
ATOM      7  C   UNL     1      47.199   5.046  13.737  0.00  0.00    +0.000 A 
BRANCH   5   8
ATOM      8  N   UNL     1      44.512   2.929  12.330  0.00  0.00    +0.000 N 
ATOM      9  H   UNL     1      44.017   2.580  13.154  0.00  0.00    +0.000 HD
BRANCH   8  10
ATOM     10  C   UNL     1      43.606   2.972  11.176  0.00  0.00    +0.000 C 
BRANCH  10  11
ATOM     11  C   UNL     1      44.093   2.005  10.069  0.00  0.00    +0.000 C 
BRANCH  11  12
ATOM     12  N   UNL     1      45.232   2.518   9.276  0.00  0.00    +0.000 NA
ATOM     13  C   UNL     1      45.665   1.568   8.240  0.00  0.00    +0.000 C 
ATOM     14  C   UNL     1      46.922   2.083   7.542  0.00  0.00    +0.000 C 
ATOM     15  C   UNL     1      46.698   3.459   6.931  0.00  0.00    +0.000 C 
ATOM     16  C   UNL     1      46.104   4.417   7.959  0.00  0.00    +0.000 C 
ATOM     17  C   UNL     1      44.886   3.811   8.660  0.00  0.00    +0.000 C 
ENDBRANCH  11  12
ENDBRANCH  10  11
ENDBRANCH   8  10
ENDBRANCH   5   8
ENDBRANCH   1   2
BRANCH   1  20
ATOM     18  C   UNL     1      48.985   7.326  15.639  0.00  0.00    +0.000 C 
ATOM     19  O   UNL     1      49.903   6.684  15.132  0.00  0.00    +0.000 OA
ATOM     20  N   UNL     1      47.921   7.761  14.896  0.00  0.00    +0.000 N 
ATOM     21  H   UNL     1      47.138   8.209  15.347  0.00  0.00    +0.000 HD
BRANCH  18  29
ATOM     22  C   UNL     1      48.926  10.313  17.339  0.00  0.00    +0.000 A 
ATOM     23  N   UNL     1      48.943  11.319  18.237  0.00  0.00    +0.000 NA
ATOM     24  C   UNL     1      49.013  11.000  19.532  0.00  0.00    +0.000 A 
ATOM     25  N   UNL     1      49.065   9.780  20.058  0.00  0.00    +0.000 NA
ATOM     26  C   UNL     1      49.042   8.808  19.130  0.00  0.00    +0.000 A 
ATOM     27  S   UNL     1      49.093   7.183  19.617  0.00  0.00    +0.000 S 
ATOM     28  C   UNL     1      49.044   6.648  18.005  0.00  0.00    +0.000 A 
ATOM     29  C   UNL     1      48.992   7.674  17.071  0.00  0.00    +0.000 A 
ATOM     30  C   UNL     1      48.977   8.971  17.749  0.00  0.00    +0.000 A 
BRANCH  22  32
ATOM     31  C   UNL     1      50.013  10.959  15.362  0.00  0.00    +0.000 C 
ATOM     32  O   UNL     1      48.784  10.636  16.007  0.00  0.00    +0.000 OA
ENDBRANCH  22  32
ENDBRANCH  18  29
ENDBRANCH   1  20
TORSDOF 8
ENDMDL
