MODEL 1
REMARK VINA RESULT:    -7.630      0.000      0.000
REMARK INTER + INTRA:         -11.988
REMARK INTER:                 -11.199
REMARK INTRA:                  -0.789
REMARK UNBOUND:                -0.789
REMARK  Name = 
REMARK  9 active torsions:
REMARK  status: ('A' for Active; 'I' for Inactive)
REMARK    1  A    between atoms: C_1  and  N_2
REMARK    2  A    between atoms: N_2  and  C_3
REMARK    3  A    between atoms: C_3  and  C_4
REMARK    4  A    between atoms: C_4  and  C_5
REMARK    5  A    between atoms: C_8  and  C_9
REMARK    6  A    between atoms: C_9  and  O_10
REMARK    7  A    between atoms: O_10  and  C_11
REMARK    8  A    between atoms: C_14  and  C_15
REMARK    9  A    between atoms: C_18  and  C_19
REMARK                            x       y       z     vdW  Elec       q    Type
REMARK                         _______ _______ _______ _____ _____    ______ ____
ROOT
ATOM      1  O   UNL     1      43.898   3.521  10.587  0.00  0.00    +0.000 OA
ENDROOT
BRANCH   1   2
ATOM      2  C   UNL     1      44.745   3.416   9.517  0.00  0.00    +0.000 A 
ATOM      3  C   UNL     1      45.228   4.483   8.760  0.00  0.00    +0.000 A 
ATOM      4  C   UNL     1      46.097   4.262   7.693  0.00  0.00    +0.000 A 
ATOM      5  C   UNL     1      46.501   2.959   7.359  0.00  0.00    +0.000 A 
ATOM      6  C   UNL     1      46.042   1.881   8.132  0.00  0.00    +0.000 A 
ATOM      7  C   UNL     1      45.154   2.120   9.198  0.00  0.00    +0.000 A 
BRANCH   5   8
ATOM      8  C   UNL     1      47.438   2.762   6.221  0.00  0.00    +0.000 C 
ATOM      9  N   UNL     1      48.746   2.489   6.508  0.00  0.00    +0.000 N 
ATOM     10  O   UNL     1      47.069   2.847   5.057  0.00  0.00    +0.000 OA
ATOM     11  H   UNL     1      49.155   2.518   7.432  0.00  0.00    +0.000 HD
ATOM     12  H   UNL     1      49.380   2.442   5.718  0.00  0.00    +0.000 HD
ENDBRANCH   5   8
BRANCH   6  13
ATOM     13  C   UNL     1      46.432   0.519   7.894  0.00  0.00    +0.000 C 
ATOM     14  N   UNL     1      46.697  -0.578   7.626  0.00  0.00    +0.000 NA
ENDBRANCH   6  13
ENDBRANCH   1   2
BRANCH   1  15
ATOM     15  C   UNL     1      44.352   2.898  11.791  0.00  0.00    +0.000 C 
BRANCH  15  19
ATOM     16  C   UNL     1      47.100   5.303  13.976  0.00  0.00    +0.000 A 
ATOM     17  C   UNL     1      46.114   5.928  13.213  0.00  0.00    +0.000 A 
ATOM     18  C   UNL     1      45.228   5.157  12.466  0.00  0.00    +0.000 A 
ATOM     19  C   UNL     1      45.348   3.770  12.508  0.00  0.00    +0.000 A 
ATOM     20  N   UNL     1      46.308   3.141  13.228  0.00  0.00    +0.000 NA
ATOM     21  C   UNL     1      47.154   3.913  13.938  0.00  0.00    +0.000 A 
BRANCH  16  22
ATOM     22  C   UNL     1      48.058   6.092  14.825  0.00  0.00    +0.000 C 
BRANCH  22  23
ATOM     23  C   UNL     1      48.628   7.297  14.068  0.00  0.00    +0.000 C 
BRANCH  23  25
ATOM     24  C   UNL     1      49.249   7.476  11.760  0.00  0.00    +0.000 C 
ATOM     25  N   UNL     1      49.582   6.869  13.043  0.00  0.00    +0.000 NA
ATOM     26  H   UNL     1      50.525   7.151  13.311  0.00  0.00    +0.000 HD
ENDBRANCH  23  25
ENDBRANCH  22  23
ENDBRANCH  16  22
ENDBRANCH  15  19
ENDBRANCH   1  15
TORSDOF 8
ENDMDL
MODEL 2
REMARK VINA RESULT:    -7.360      1.454      2.033
REMARK INTER + INTRA:         -11.591
REMARK INTER:                 -10.975
REMARK INTRA:                  -0.616
REMARK UNBOUND:                -0.789
REMARK  Name = 
REMARK  9 active torsions:
REMARK  status: ('A' for Active; 'I' for Inactive)
REMARK    1  A    between atoms: C_1  and  N_2
REMARK    2  A    between atoms: N_2  and  C_3
REMARK    3  A    between atoms: C_3  and  C_4
REMARK    4  A    between atoms: C_4  and  C_5
REMARK    5  A    between atoms: C_8  and  C_9
REMARK    6  A    between atoms: C_9  and  O_10
REMARK    7  A    between atoms: O_10  and  C_11
REMARK    8  A    between atoms: C_14  and  C_15
REMARK    9  A    between atoms: C_18  and  C_19
REMARK                            x       y       z     vdW  Elec       q    Type
REMARK                         _______ _______ _______ _____ _____    ______ ____
ROOT
ATOM      1  O   UNL     1      43.872   3.528  10.495  0.00  0.00    +0.000 OA
ENDROOT
BRANCH   1   2
ATOM      2  C   UNL     1      44.733   3.414   9.437  0.00  0.00    +0.000 A 
ATOM      3  C   UNL     1      45.230   4.476   8.682  0.00  0.00    +0.000 A 
ATOM      4  C   UNL     1      46.112   4.247   7.627  0.00  0.00    +0.000 A 
ATOM      5  C   UNL     1      46.514   2.942   7.303  0.00  0.00    +0.000 A 
ATOM      6  C   UNL     1      46.040   1.869   8.074  0.00  0.00    +0.000 A 
ATOM      7  C   UNL     1      45.139   2.116   9.127  0.00  0.00    +0.000 A 
BRANCH   5   8
ATOM      8  C   UNL     1      47.464   2.735   6.178  0.00  0.00    +0.000 C 
ATOM      9  N   UNL     1      48.787   2.569   6.479  0.00  0.00    +0.000 N 
ATOM     10  O   UNL     1      47.094   2.722   5.012  0.00  0.00    +0.000 OA
ATOM     11  H   UNL     1      49.191   2.684   7.399  0.00  0.00    +0.000 HD
ATOM     12  H   UNL     1      49.425   2.515   5.693  0.00  0.00    +0.000 HD
ENDBRANCH   5   8
BRANCH   6  13
ATOM     13  C   UNL     1      46.427   0.504   7.846  0.00  0.00    +0.000 C 
ATOM     14  N   UNL     1      46.806  -0.566   7.608  0.00  0.00    +0.000 NA
ENDBRANCH   6  13
ENDBRANCH   1   2
BRANCH   1  15
ATOM     15  C   UNL     1      43.811   4.823  11.097  0.00  0.00    +0.000 C 
BRANCH  15  19
ATOM     16  C   UNL     1      46.979   5.454  13.869  0.00  0.00    +0.000 A 
ATOM     17  C   UNL     1      46.758   6.401  12.868  0.00  0.00    +0.000 A 
ATOM     18  C   UNL     1      45.748   6.193  11.934  0.00  0.00    +0.000 A 
ATOM     19  C   UNL     1      44.975   5.039  12.029  0.00  0.00    +0.000 A 
ATOM     20  N   UNL     1      45.181   4.097  12.981  0.00  0.00    +0.000 NA
ATOM     21  C   UNL     1      46.168   4.323  13.870  0.00  0.00    +0.000 A 
BRANCH  16  22
ATOM     22  C   UNL     1      48.036   5.650  14.920  0.00  0.00    +0.000 C 
BRANCH  22  23
ATOM     23  C   UNL     1      47.788   4.766  16.147  0.00  0.00    +0.000 C 
BRANCH  23  25
ATOM     24  C   UNL     1      48.832   2.857  17.153  0.00  0.00    +0.000 C 
ATOM     25  N   UNL     1      49.045   4.210  16.655  0.00  0.00    +0.000 NA
ATOM     26  H   UNL     1      49.738   4.186  15.907  0.00  0.00    +0.000 HD
ENDBRANCH  23  25
ENDBRANCH  22  23
ENDBRANCH  16  22
ENDBRANCH  15  19
ENDBRANCH   1  15
TORSDOF 8
ENDMDL
MODEL 3
REMARK VINA RESULT:    -7.294      2.281      6.863
REMARK INTER + INTRA:         -11.495
REMARK INTER:                 -10.606
REMARK INTRA:                  -0.889
REMARK UNBOUND:                -0.789
REMARK  Name = 
REMARK  9 active torsions:
REMARK  status: ('A' for Active; 'I' for Inactive)
REMARK    1  A    between atoms: C_1  and  N_2
REMARK    2  A    between atoms: N_2  and  C_3
REMARK    3  A    between atoms: C_3  and  C_4
REMARK    4  A    between atoms: C_4  and  C_5
REMARK    5  A    between atoms: C_8  and  C_9
REMARK    6  A    between atoms: C_9  and  O_10
REMARK    7  A    between atoms: O_10  and  C_11
REMARK    8  A    between atoms: C_14  and  C_15
REMARK    9  A    between atoms: C_18  and  C_19
REMARK                            x       y       z     vdW  Elec       q    Type
REMARK                         _______ _______ _______ _____ _____    ______ ____
ROOT
ATOM      1  O   UNL     1      43.623   4.619  11.935  0.00  0.00    +0.000 OA
ENDROOT
BRANCH   1   2
ATOM      2  C   UNL     1      44.734   5.240  12.437  0.00  0.00    +0.000 A 
ATOM      3  C   UNL     1      45.172   6.518  12.091  0.00  0.00    +0.000 A 
ATOM      4  C   UNL     1      46.317   7.060  12.673  0.00  0.00    +0.000 A 
ATOM      5  C   UNL     1      47.053   6.326  13.617  0.00  0.00    +0.000 A 
ATOM      6  C   UNL     1      46.605   5.050  13.991  0.00  0.00    +0.000 A 
ATOM      7  C   UNL     1      45.455   4.512  13.384  0.00  0.00    +0.000 A 
BRANCH   5   8
ATOM      8  C   UNL     1      48.263   6.939  14.225  0.00  0.00    +0.000 C 
ATOM      9  N   UNL     1      48.090   7.787  15.283  0.00  0.00    +0.000 N 
ATOM     10  O   UNL     1      49.388   6.711  13.799  0.00  0.00    +0.000 OA
ATOM     11  H   UNL     1      47.196   8.120  15.618  0.00  0.00    +0.000 HD
ATOM     12  H   UNL     1      48.921   8.257  15.625  0.00  0.00    +0.000 HD
ENDBRANCH   5   8
BRANCH   6  13
ATOM     13  C   UNL     1      47.267   4.242  14.978  0.00  0.00    +0.000 C 
ATOM     14  N   UNL     1      47.854   3.662  15.794  0.00  0.00    +0.000 NA
ENDBRANCH   6  13
ENDBRANCH   1   2
BRANCH   1  15
ATOM     15  C   UNL     1      43.370   4.848  10.546  0.00  0.00    +0.000 C 
BRANCH  15  19
ATOM     16  C   UNL     1      45.829   2.223   8.272  0.00  0.00    +0.000 A 
ATOM     17  C   UNL     1      45.961   3.599   8.090  0.00  0.00    +0.000 A 
ATOM     18  C   UNL     1      45.142   4.470   8.801  0.00  0.00    +0.000 A 
ATOM     19  C   UNL     1      44.209   3.939   9.688  0.00  0.00    +0.000 A 
ATOM     20  N   UNL     1      44.050   2.605   9.869  0.00  0.00    +0.000 NA
ATOM     21  C   UNL     1      44.855   1.785   9.164  0.00  0.00    +0.000 A 
BRANCH  16  22
ATOM     22  C   UNL     1      46.714   1.243   7.551  0.00  0.00    +0.000 C 
BRANCH  22  23
ATOM     23  C   UNL     1      48.024   1.893   7.091  0.00  0.00    +0.000 C 
BRANCH  23  25
ATOM     24  C   UNL     1      47.453   2.717   4.914  0.00  0.00    +0.000 C 
ATOM     25  N   UNL     1      48.218   1.717   5.650  0.00  0.00    +0.000 NA
ATOM     26  H   UNL     1      49.207   1.818   5.422  0.00  0.00    +0.000 HD
ENDBRANCH  23  25
ENDBRANCH  22  23
ENDBRANCH  16  22
ENDBRANCH  15  19
ENDBRANCH   1  15
TORSDOF 8
ENDMDL
MODEL 4
REMARK VINA RESULT:    -7.170      2.330      7.057
REMARK INTER + INTRA:         -11.313
REMARK INTER:                 -10.402
REMARK INTRA:                  -0.910
REMARK UNBOUND:                -0.789
REMARK  Name = 
REMARK  9 active torsions:
REMARK  status: ('A' for Active; 'I' for Inactive)
REMARK    1  A    between atoms: C_1  and  N_2
REMARK    2  A    between atoms: N_2  and  C_3
REMARK    3  A    between atoms: C_3  and  C_4
REMARK    4  A    between atoms: C_4  and  C_5
REMARK    5  A    between atoms: C_8  and  C_9
REMARK    6  A    between atoms: C_9  and  O_10
REMARK    7  A    between atoms: O_10  and  C_11
REMARK    8  A    between atoms: C_14  and  C_15
REMARK    9  A    between atoms: C_18  and  C_19
REMARK                            x       y       z     vdW  Elec       q    Type
REMARK                         _______ _______ _______ _____ _____    ______ ____
ROOT
ATOM      1  O   UNL     1      43.648   4.353  11.997  0.00  0.00    +0.000 OA
ENDROOT
BRANCH   1   2
ATOM      2  C   UNL     1      44.801   4.838  12.552  0.00  0.00    +0.000 A 
ATOM      3  C   UNL     1      45.785   4.068  13.171  0.00  0.00    +0.000 A 
ATOM      4  C   UNL     1      46.929   4.666  13.698  0.00  0.00    +0.000 A 
ATOM      5  C   UNL     1      47.110   6.056  13.617  0.00  0.00    +0.000 A 
ATOM      6  C   UNL     1      46.137   6.836  12.973  0.00  0.00    +0.000 A 
ATOM      7  C   UNL     1      44.982   6.218  12.458  0.00  0.00    +0.000 A 
BRANCH   5   8
ATOM      8  C   UNL     1      48.347   6.658  14.180  0.00  0.00    +0.000 C 
ATOM      9  N   UNL     1      48.338   7.030  15.495  0.00  0.00    +0.000 N 
ATOM     10  O   UNL     1      49.350   6.832  13.500  0.00  0.00    +0.000 OA
ATOM     11  H   UNL     1      47.521   7.031  16.092  0.00  0.00    +0.000 HD
ATOM     12  H   UNL     1      49.163   7.514  15.833  0.00  0.00    +0.000 HD
ENDBRANCH   5   8
BRANCH   6  13
ATOM     13  C   UNL     1      46.253   8.258  12.804  0.00  0.00    +0.000 C 
ATOM     14  N   UNL     1      46.421   9.390  12.616  0.00  0.00    +0.000 NA
ENDBRANCH   6  13
ENDBRANCH   1   2
BRANCH   1  15
ATOM     15  C   UNL     1      43.433   4.707  10.628  0.00  0.00    +0.000 C 
BRANCH  15  19
ATOM     16  C   UNL     1      45.884   2.229   8.186  0.00  0.00    +0.000 A 
ATOM     17  C   UNL     1      45.993   3.614   8.067  0.00  0.00    +0.000 A 
ATOM     18  C   UNL     1      45.176   4.438   8.834  0.00  0.00    +0.000 A 
ATOM     19  C   UNL     1      44.268   3.852   9.712  0.00  0.00    +0.000 A 
ATOM     20  N   UNL     1      44.132   2.509   9.834  0.00  0.00    +0.000 NA
ATOM     21  C   UNL     1      44.934   1.735   9.076  0.00  0.00    +0.000 A 
BRANCH  16  22
ATOM     22  C   UNL     1      46.768   1.298   7.403  0.00  0.00    +0.000 C 
BRANCH  22  23
ATOM     23  C   UNL     1      48.100   1.958   7.030  0.00  0.00    +0.000 C 
BRANCH  23  25
ATOM     24  C   UNL     1      47.440   2.712   4.852  0.00  0.00    +0.000 C 
ATOM     25  N   UNL     1      48.354   1.849   5.591  0.00  0.00    +0.000 NA
ATOM     26  H   UNL     1      49.314   2.127   5.390  0.00  0.00    +0.000 HD
ENDBRANCH  23  25
ENDBRANCH  22  23
ENDBRANCH  16  22
ENDBRANCH  15  19
ENDBRANCH   1  15
TORSDOF 8
ENDMDL
MODEL 5
REMARK VINA RESULT:    -6.343      3.033      7.413
REMARK INTER + INTRA:         -10.099
REMARK INTER:                  -9.443
REMARK INTRA:                  -0.656
REMARK UNBOUND:                -0.789
REMARK  Name = 
REMARK  9 active torsions:
REMARK  status: ('A' for Active; 'I' for Inactive)
REMARK    1  A    between atoms: C_1  and  N_2
REMARK    2  A    between atoms: N_2  and  C_3
REMARK    3  A    between atoms: C_3  and  C_4
REMARK    4  A    between atoms: C_4  and  C_5
REMARK    5  A    between atoms: C_8  and  C_9
REMARK    6  A    between atoms: C_9  and  O_10
REMARK    7  A    between atoms: O_10  and  C_11
REMARK    8  A    between atoms: C_14  and  C_15
REMARK    9  A    between atoms: C_18  and  C_19
REMARK                            x       y       z     vdW  Elec       q    Type
REMARK                         _______ _______ _______ _____ _____    ______ ____
ROOT
ATOM      1  O   UNL     1      44.947   5.059  12.759  0.00  0.00    +0.000 OA
ENDROOT
BRANCH   1   2
ATOM      2  C   UNL     1      45.724   6.185  12.717  0.00  0.00    +0.000 A 
ATOM      3  C   UNL     1      47.114   6.212  12.823  0.00  0.00    +0.000 A 
ATOM      4  C   UNL     1      47.809   7.419  12.759  0.00  0.00    +0.000 A 
ATOM      5  C   UNL     1      47.121   8.631  12.589  0.00  0.00    +0.000 A 
ATOM      6  C   UNL     1      45.724   8.611  12.455  0.00  0.00    +0.000 A 
ATOM      7  C   UNL     1      45.036   7.385  12.535  0.00  0.00    +0.000 A 
BRANCH   5   8
ATOM      8  C   UNL     1      47.895   9.898  12.514  0.00  0.00    +0.000 C 
ATOM      9  N   UNL     1      48.178  10.546  13.683  0.00  0.00    +0.000 N 
ATOM     10  O   UNL     1      48.268  10.367  11.446  0.00  0.00    +0.000 OA
ATOM     11  H   UNL     1      47.809  10.294  14.590  0.00  0.00    +0.000 HD
ATOM     12  H   UNL     1      48.632  11.449  13.599  0.00  0.00    +0.000 HD
ENDBRANCH   5   8
BRANCH   6  13
ATOM     13  C   UNL     1      44.937   9.793  12.236  0.00  0.00    +0.000 C 
ATOM     14  N   UNL     1      44.364  10.773  11.997  0.00  0.00    +0.000 NA
ENDBRANCH   6  13
ENDBRANCH   1   2
BRANCH   1  15
ATOM     15  C   UNL     1      44.005   4.927  11.691  0.00  0.00    +0.000 C 
BRANCH  15  19
ATOM     16  C   UNL     1      45.631   3.037   8.242  0.00  0.00    +0.000 A 
ATOM     17  C   UNL     1      45.012   2.251   9.214  0.00  0.00    +0.000 A 
ATOM     18  C   UNL     1      44.505   2.850  10.363  0.00  0.00    +0.000 A 
ATOM     19  C   UNL     1      44.624   4.229  10.509  0.00  0.00    +0.000 A 
ATOM     20  N   UNL     1      45.236   5.011   9.587  0.00  0.00    +0.000 NA
ATOM     21  C   UNL     1      45.721   4.404   8.485  0.00  0.00    +0.000 A 
BRANCH  16  22
ATOM     22  C   UNL     1      46.165   2.441   6.968  0.00  0.00    +0.000 C 
BRANCH  22  23
ATOM     23  C   UNL     1      47.322   1.473   7.236  0.00  0.00    +0.000 C 
BRANCH  23  25
ATOM     24  C   UNL     1      47.937   2.505   5.162  0.00  0.00    +0.000 C 
ATOM     25  N   UNL     1      48.394   1.654   6.255  0.00  0.00    +0.000 NA
ATOM     26  H   UNL     1      49.201   2.089   6.702  0.00  0.00    +0.000 HD
ENDBRANCH  23  25
ENDBRANCH  22  23
ENDBRANCH  16  22
ENDBRANCH  15  19
ENDBRANCH   1  15
TORSDOF 8
ENDMDL
MODEL 6
REMARK VINA RESULT:    -6.148      2.651      7.170
REMARK INTER + INTRA:          -9.812
REMARK INTER:                  -9.006
REMARK INTRA:                  -0.806
REMARK UNBOUND:                -0.789
REMARK  Name = 
REMARK  9 active torsions:
REMARK  status: ('A' for Active; 'I' for Inactive)
REMARK    1  A    between atoms: C_1  and  N_2
REMARK    2  A    between atoms: N_2  and  C_3
REMARK    3  A    between atoms: C_3  and  C_4
REMARK    4  A    between atoms: C_4  and  C_5
REMARK    5  A    between atoms: C_8  and  C_9
REMARK    6  A    between atoms: C_9  and  O_10
REMARK    7  A    between atoms: O_10  and  C_11
REMARK    8  A    between atoms: C_14  and  C_15
REMARK    9  A    between atoms: C_18  and  C_19
REMARK                            x       y       z     vdW  Elec       q    Type
REMARK                         _______ _______ _______ _____ _____    ______ ____
ROOT
ATOM      1  O   UNL     1      45.489   5.170  12.425  0.00  0.00    +0.000 OA
ENDROOT
BRANCH   1   2
ATOM      2  C   UNL     1      45.969   6.452  12.424  0.00  0.00    +0.000 A 
ATOM      3  C   UNL     1      45.238   7.589  12.765  0.00  0.00    +0.000 A 
ATOM      4  C   UNL     1      45.831   8.851  12.737  0.00  0.00    +0.000 A 
ATOM      5  C   UNL     1      47.176   8.999  12.364  0.00  0.00    +0.000 A 
ATOM      6  C   UNL     1      47.928   7.857  12.045  0.00  0.00    +0.000 A 
ATOM      7  C   UNL     1      47.310   6.592  12.064  0.00  0.00    +0.000 A 
BRANCH   5   8
ATOM      8  C   UNL     1      47.779  10.358  12.356  0.00  0.00    +0.000 C 
ATOM      9  N   UNL     1      48.179  10.888  13.550  0.00  0.00    +0.000 N 
ATOM     10  O   UNL     1      47.912  11.002  11.323  0.00  0.00    +0.000 OA
ATOM     11  H   UNL     1      47.998  10.478  14.456  0.00  0.00    +0.000 HD
ATOM     12  H   UNL     1      48.508  11.848  13.530  0.00  0.00    +0.000 HD
ENDBRANCH   5   8
BRANCH   6  13
ATOM     13  C   UNL     1      49.319   7.904  11.691  0.00  0.00    +0.000 C 
ATOM     14  N   UNL     1      50.462   7.921  11.493  0.00  0.00    +0.000 NA
ENDBRANCH   6  13
ENDBRANCH   1   2
BRANCH   1  15
ATOM     15  C   UNL     1      44.372   4.935  11.565  0.00  0.00    +0.000 C 
BRANCH  15  19
ATOM     16  C   UNL     1      45.698   2.758   8.156  0.00  0.00    +0.000 A 
ATOM     17  C   UNL     1      45.821   4.148   8.160  0.00  0.00    +0.000 A 
ATOM     18  C   UNL     1      45.362   4.877   9.253  0.00  0.00    +0.000 A 
ATOM     19  C   UNL     1      44.793   4.193  10.324  0.00  0.00    +0.000 A 
ATOM     20  N   UNL     1      44.647   2.846  10.336  0.00  0.00    +0.000 NA
ATOM     21  C   UNL     1      45.097   2.165   9.263  0.00  0.00    +0.000 A 
BRANCH  16  22
ATOM     22  C   UNL     1      46.209   1.925   7.014  0.00  0.00    +0.000 C 
BRANCH  22  23
ATOM     23  C   UNL     1      47.684   1.553   7.197  0.00  0.00    +0.000 C 
BRANCH  23  25
ATOM     24  C   UNL     1      47.861   2.596   5.046  0.00  0.00    +0.000 C 
ATOM     25  N   UNL     1      48.539   2.350   6.314  0.00  0.00    +0.000 NA
ATOM     26  H   UNL     1      48.754   3.242   6.757  0.00  0.00    +0.000 HD
ENDBRANCH  23  25
ENDBRANCH  22  23
ENDBRANCH  16  22
ENDBRANCH  15  19
ENDBRANCH   1  15
TORSDOF 8
ENDMDL
MODEL 7
REMARK VINA RESULT:    -6.019      3.903      8.768
REMARK INTER + INTRA:          -9.623
REMARK INTER:                  -9.173
REMARK INTRA:                  -0.450
REMARK UNBOUND:                -0.789
REMARK  Name = 
REMARK  9 active torsions:
REMARK  status: ('A' for Active; 'I' for Inactive)
REMARK    1  A    between atoms: C_1  and  N_2
REMARK    2  A    between atoms: N_2  and  C_3
REMARK    3  A    between atoms: C_3  and  C_4
REMARK    4  A    between atoms: C_4  and  C_5
REMARK    5  A    between atoms: C_8  and  C_9
REMARK    6  A    between atoms: C_9  and  O_10
REMARK    7  A    between atoms: O_10  and  C_11
REMARK    8  A    between atoms: C_14  and  C_15
REMARK    9  A    between atoms: C_18  and  C_19
REMARK                            x       y       z     vdW  Elec       q    Type
REMARK                         _______ _______ _______ _____ _____    ______ ____
ROOT
ATOM      1  O   UNL     1      46.987   3.682  14.395  0.00  0.00    +0.000 OA
ENDROOT
BRANCH   1   2
ATOM      2  C   UNL     1      47.551   3.777  15.638  0.00  0.00    +0.000 A 
ATOM      3  C   UNL     1      47.993   2.702  16.409  0.00  0.00    +0.000 A 
ATOM      4  C   UNL     1      48.563   2.914  17.664  0.00  0.00    +0.000 A 
ATOM      5  C   UNL     1      48.700   4.215  18.175  0.00  0.00    +0.000 A 
ATOM      6  C   UNL     1      48.283   5.304  17.394  0.00  0.00    +0.000 A 
ATOM      7  C   UNL     1      47.697   5.072  16.136  0.00  0.00    +0.000 A 
BRANCH   5   8
ATOM      8  C   UNL     1      49.322   4.404  19.512  0.00  0.00    +0.000 C 
ATOM      9  N   UNL     1      48.580   4.088  20.615  0.00  0.00    +0.000 N 
ATOM     10  O   UNL     1      50.460   4.837  19.641  0.00  0.00    +0.000 OA
ATOM     11  H   UNL     1      47.600   3.840  20.602  0.00  0.00    +0.000 HD
ATOM     12  H   UNL     1      48.994   4.306  21.515  0.00  0.00    +0.000 HD
ENDBRANCH   5   8
BRANCH   6  13
ATOM     13  C   UNL     1      48.420   6.671  17.814  0.00  0.00    +0.000 C 
ATOM     14  N   UNL     1      48.495   7.800  18.073  0.00  0.00    +0.000 NA
ENDBRANCH   6  13
ENDBRANCH   1   2
BRANCH   1  15
ATOM     15  C   UNL     1      46.156   4.781  14.014  0.00  0.00    +0.000 C 
BRANCH  15  19
ATOM     16  C   UNL     1      44.998   4.265   9.952  0.00  0.00    +0.000 A 
ATOM     17  C   UNL     1      45.572   5.475  10.342  0.00  0.00    +0.000 A 
ATOM     18  C   UNL     1      45.926   5.672  11.673  0.00  0.00    +0.000 A 
ATOM     19  C   UNL     1      45.701   4.644  12.585  0.00  0.00    +0.000 A 
ATOM     20  N   UNL     1      45.129   3.467  12.234  0.00  0.00    +0.000 NA
ATOM     21  C   UNL     1      44.793   3.305  10.939  0.00  0.00    +0.000 A 
BRANCH  16  22
ATOM     22  C   UNL     1      44.629   3.992   8.519  0.00  0.00    +0.000 C 
BRANCH  22  23
ATOM     23  C   UNL     1      45.843   3.548   7.695  0.00  0.00    +0.000 C 
BRANCH  23  25
ATOM     24  C   UNL     1      47.322   1.739   7.163  0.00  0.00    +0.000 C 
ATOM     25  N   UNL     1      46.186   2.152   7.978  0.00  0.00    +0.000 NA
ATOM     26  H   UNL     1      46.426   2.050   8.964  0.00  0.00    +0.000 HD
ENDBRANCH  23  25
ENDBRANCH  22  23
ENDBRANCH  16  22
ENDBRANCH  15  19
ENDBRANCH   1  15
TORSDOF 8
ENDMDL
MODEL 8
REMARK VINA RESULT:    -5.888      3.125      7.906
REMARK INTER + INTRA:          -9.431
REMARK INTER:                  -8.796
REMARK INTRA:                  -0.635
REMARK UNBOUND:                -0.789
REMARK  Name = 
REMARK  9 active torsions:
REMARK  status: ('A' for Active; 'I' for Inactive)
REMARK    1  A    between atoms: C_1  and  N_2
REMARK    2  A    between atoms: N_2  and  C_3
REMARK    3  A    between atoms: C_3  and  C_4
REMARK    4  A    between atoms: C_4  and  C_5
REMARK    5  A    between atoms: C_8  and  C_9
REMARK    6  A    between atoms: C_9  and  O_10
REMARK    7  A    between atoms: O_10  and  C_11
REMARK    8  A    between atoms: C_14  and  C_15
REMARK    9  A    between atoms: C_18  and  C_19
REMARK                            x       y       z     vdW  Elec       q    Type
REMARK                         _______ _______ _______ _____ _____    ______ ____
ROOT
ATOM      1  O   UNL     1      45.747   4.169  13.920  0.00  0.00    +0.000 OA
ENDROOT
BRANCH   1   2
ATOM      2  C   UNL     1      46.779   4.778  14.582  0.00  0.00    +0.000 A 
ATOM      3  C   UNL     1      47.462   5.912  14.146  0.00  0.00    +0.000 A 
ATOM      4  C   UNL     1      48.496   6.457  14.906  0.00  0.00    +0.000 A 
ATOM      5  C   UNL     1      48.871   5.870  16.125  0.00  0.00    +0.000 A 
ATOM      6  C   UNL     1      48.171   4.744  16.586  0.00  0.00    +0.000 A 
ATOM      7  C   UNL     1      47.139   4.198  15.800  0.00  0.00    +0.000 A 
BRANCH   5   8
ATOM      8  C   UNL     1      49.971   6.484  16.915  0.00  0.00    +0.000 C 
ATOM      9  N   UNL     1      49.652   7.488  17.785  0.00  0.00    +0.000 N 
ATOM     10  O   UNL     1      51.134   6.120  16.797  0.00  0.00    +0.000 OA
ATOM     11  H   UNL     1      48.744   7.927  17.857  0.00  0.00    +0.000 HD
ATOM     12  H   UNL     1      50.429   7.947  18.248  0.00  0.00    +0.000 HD
ENDBRANCH   5   8
BRANCH   6  13
ATOM     13  C   UNL     1      48.454   4.100  17.839  0.00  0.00    +0.000 C 
ATOM     14  N   UNL     1      48.615   3.631  18.887  0.00  0.00    +0.000 NA
ENDBRANCH   6  13
ENDBRANCH   1   2
BRANCH   1  15
ATOM     15  C   UNL     1      44.921   5.040  13.143  0.00  0.00    +0.000 C 
BRANCH  15  19
ATOM     16  C   UNL     1      45.170   3.856   9.063  0.00  0.00    +0.000 A 
ATOM     17  C   UNL     1      45.588   5.137   9.421  0.00  0.00    +0.000 A 
ATOM     18  C   UNL     1      45.483   5.552  10.745  0.00  0.00    +0.000 A 
ATOM     19  C   UNL     1      44.964   4.665  11.685  0.00  0.00    +0.000 A 
ATOM     20  N   UNL     1      44.535   3.422  11.359  0.00  0.00    +0.000 NA
ATOM     21  C   UNL     1      44.646   3.049  10.069  0.00  0.00    +0.000 A 
BRANCH  16  22
ATOM     22  C   UNL     1      45.294   3.351   7.652  0.00  0.00    +0.000 C 
BRANCH  22  23
ATOM     23  C   UNL     1      46.508   2.431   7.483  0.00  0.00    +0.000 C 
BRANCH  23  25
ATOM     24  C   UNL     1      47.611   2.613   5.363  0.00  0.00    +0.000 C 
ATOM     25  N   UNL     1      47.575   3.101   6.736  0.00  0.00    +0.000 NA
ATOM     26  H   UNL     1      47.409   4.108   6.729  0.00  0.00    +0.000 HD
ENDBRANCH  23  25
ENDBRANCH  22  23
ENDBRANCH  16  22
ENDBRANCH  15  19
ENDBRANCH   1  15
TORSDOF 8
ENDMDL
MODEL 9
REMARK VINA RESULT:    -5.775      4.455      6.661
REMARK INTER + INTRA:          -9.265
REMARK INTER:                  -8.626
REMARK INTRA:                  -0.639
REMARK UNBOUND:                -0.789
REMARK  Name = 
REMARK  9 active torsions:
REMARK  status: ('A' for Active; 'I' for Inactive)
REMARK    1  A    between atoms: C_1  and  N_2
REMARK    2  A    between atoms: N_2  and  C_3
REMARK    3  A    between atoms: C_3  and  C_4
REMARK    4  A    between atoms: C_4  and  C_5
REMARK    5  A    between atoms: C_8  and  C_9
REMARK    6  A    between atoms: C_9  and  O_10
REMARK    7  A    between atoms: O_10  and  C_11
REMARK    8  A    between atoms: C_14  and  C_15
REMARK    9  A    between atoms: C_18  and  C_19
REMARK                            x       y       z     vdW  Elec       q    Type
REMARK                         _______ _______ _______ _____ _____    ______ ____
ROOT
ATOM      1  O   UNL     1      47.846   5.062  14.695  0.00  0.00    +0.000 OA
ENDROOT
BRANCH   1   2
ATOM      2  C   UNL     1      46.856   4.944  13.759  0.00  0.00    +0.000 A 
ATOM      3  C   UNL     1      46.273   3.746  13.346  0.00  0.00    +0.000 A 
ATOM      4  C   UNL     1      45.260   3.741  12.387  0.00  0.00    +0.000 A 
ATOM      5  C   UNL     1      44.811   4.943  11.818  0.00  0.00    +0.000 A 
ATOM      6  C   UNL     1      45.373   6.156  12.247  0.00  0.00    +0.000 A 
ATOM      7  C   UNL     1      46.404   6.142  13.205  0.00  0.00    +0.000 A 
BRANCH   5   8
ATOM      8  C   UNL     1      43.722   4.901  10.806  0.00  0.00    +0.000 C 
ATOM      9  N   UNL     1      44.069   4.707   9.499  0.00  0.00    +0.000 N 
ATOM     10  O   UNL     1      42.546   5.044  11.114  0.00  0.00    +0.000 OA
ATOM     11  H   UNL     1      45.017   4.698   9.146  0.00  0.00    +0.000 HD
ATOM     12  H   UNL     1      43.319   4.766   8.819  0.00  0.00    +0.000 HD
ENDBRANCH   5   8
BRANCH   6  13
ATOM     13  C   UNL     1      44.950   7.437  11.753  0.00  0.00    +0.000 C 
ATOM     14  N   UNL     1      44.555   8.427  11.296  0.00  0.00    +0.000 NA
ENDBRANCH   6  13
ENDBRANCH   1   2
BRANCH   1  15
ATOM     15  C   UNL     1      47.540   4.518  15.982  0.00  0.00    +0.000 C 
BRANCH  15  19
ATOM     16  C   UNL     1      51.001   2.542  17.474  0.00  0.00    +0.000 A 
ATOM     17  C   UNL     1      49.924   1.775  17.031  0.00  0.00    +0.000 A 
ATOM     18  C   UNL     1      48.772   2.405  16.571  0.00  0.00    +0.000 A 
ATOM     19  C   UNL     1      48.729   3.797  16.560  0.00  0.00    +0.000 A 
ATOM     20  N   UNL     1      49.756   4.564  17.001  0.00  0.00    +0.000 NA
ATOM     21  C   UNL     1      50.857   3.926  17.445  0.00  0.00    +0.000 A 
BRANCH  16  22
ATOM     22  C   UNL     1      52.278   1.906  17.949  0.00  0.00    +0.000 C 
BRANCH  22  23
ATOM     23  C   UNL     1      53.276   2.951  18.463  0.00  0.00    +0.000 C 
BRANCH  23  25
ATOM     24  C   UNL     1      53.067   4.079  20.568  0.00  0.00    +0.000 C 
ATOM     25  N   UNL     1      53.456   2.836  19.912  0.00  0.00    +0.000 NA
ATOM     26  H   UNL     1      52.880   2.074  20.270  0.00  0.00    +0.000 HD
ENDBRANCH  23  25
ENDBRANCH  22  23
ENDBRANCH  16  22
ENDBRANCH  15  19
ENDBRANCH   1  15
TORSDOF 8
ENDMDL
