MODEL 1
REMARK VINA RESULT:    -7.954      0.000      0.000
REMARK INTER + INTRA:          -9.890
REMARK INTER:                  -9.349
REMARK INTRA:                  -0.541
REMARK UNBOUND:                -0.541
REMARK  Name = 
REMARK  3 active torsions:
REMARK  status: ('A' for Active; 'I' for Inactive)
REMARK    1  A    between atoms: N_5  and  C_6
REMARK    2  A    between atoms: C_6  and  C_7
REMARK    3  A    between atoms: C_11  and  C_12
REMARK                            x       y       z     vdW  Elec       q    Type
REMARK                         _______ _______ _______ _____ _____    ______ ____
ROOT
ATOM      1  C   UNL     1      44.222   3.902  10.972  0.00  0.00    +0.000 A 
ATOM      2  C   UNL     1      43.098   4.184  11.759  0.00  0.00    +0.000 A 
ATOM      3  C   UNL     1      43.183   5.108  12.797  0.00  0.00    +0.000 A 
ATOM      4  C   UNL     1      44.391   5.763  13.056  0.00  0.00    +0.000 A 
ATOM      5  C   UNL     1      45.543   5.514  12.290  0.00  0.00    +0.000 A 
ATOM      6  C   UNL     1      45.424   4.581  11.239  0.00  0.00    +0.000 A 
ENDROOT
BRANCH   5   7
ATOM      7  C   UNL     1      46.830   6.179  12.592  0.00  0.00    +0.000 A 
ATOM      8  C   UNL     1      47.413   7.122  11.733  0.00  0.00    +0.000 A 
ATOM      9  C   UNL     1      48.638   7.716  12.047  0.00  0.00    +0.000 A 
ATOM     10  C   UNL     1      49.258   7.358  13.230  0.00  0.00    +0.000 A 
ATOM     11  N   UNL     1      48.747   6.461  14.093  0.00  0.00    +0.000 NA
ATOM     12  C   UNL     1      47.560   5.896  13.752  0.00  0.00    +0.000 A 
ENDBRANCH   5   7
BRANCH   1  13
ATOM     13  C   UNL     1      44.151   2.851   9.889  0.00  0.00    +0.000 C 
BRANCH  13  18
ATOM     14  C   UNL     1      47.532   1.814   6.452  0.00  0.00    +0.000 A 
ATOM     15  C   UNL     1      47.018   1.193   7.561  0.00  0.00    +0.000 A 
ATOM     16  N   UNL     1      46.008   1.698   8.292  0.00  0.00    +0.000 NA
ATOM     17  C   UNL     1      45.498   2.882   7.912  0.00  0.00    +0.000 A 
ATOM     18  N   UNL     1      44.425   3.429   8.593  0.00  0.00    +0.000 N 
ATOM     19  N   UNL     1      45.966   3.582   6.868  0.00  0.00    +0.000 NA
ATOM     20  C   UNL     1      46.960   3.024   6.149  0.00  0.00    +0.000 A 
ATOM     21  H   UNL     1      44.455   4.437   8.520  0.00  0.00    +0.000 HD
ENDBRANCH  13  18
ENDBRANCH   1  13
TORSDOF 3
ENDMDL
MODEL 2
REMARK VINA RESULT:    -7.798      1.528      1.944
REMARK INTER + INTRA:          -9.707
REMARK INTER:                  -9.189
REMARK INTRA:                  -0.518
REMARK UNBOUND:                -0.541
REMARK  Name = 
REMARK  3 active torsions:
REMARK  status: ('A' for Active; 'I' for Inactive)
REMARK    1  A    between atoms: N_5  and  C_6
REMARK    2  A    between atoms: C_6  and  C_7
REMARK    3  A    between atoms: C_11  and  C_12
REMARK                            x       y       z     vdW  Elec       q    Type
REMARK                         _______ _______ _______ _____ _____    ______ ____
ROOT
ATOM      1  C   UNL     1      44.960   4.493  11.174  0.00  0.00    +0.000 A 
ATOM      2  C   UNL     1      45.243   3.654  12.259  0.00  0.00    +0.000 A 
ATOM      3  C   UNL     1      46.134   4.063  13.247  0.00  0.00    +0.000 A 
ATOM      4  C   UNL     1      46.748   5.317  13.164  0.00  0.00    +0.000 A 
ATOM      5  C   UNL     1      46.491   6.192  12.094  0.00  0.00    +0.000 A 
ATOM      6  C   UNL     1      45.576   5.756  11.114  0.00  0.00    +0.000 A 
ENDROOT
BRANCH   5   7
ATOM      7  C   UNL     1      47.172   7.502  11.988  0.00  0.00    +0.000 A 
ATOM      8  C   UNL     1      48.543   7.620  11.713  0.00  0.00    +0.000 A 
ATOM      9  C   UNL     1      49.153   8.874  11.636  0.00  0.00    +0.000 A 
ATOM     10  C   UNL     1      48.370   9.998  11.829  0.00  0.00    +0.000 A 
ATOM     11  N   UNL     1      47.052   9.947  12.095  0.00  0.00    +0.000 NA
ATOM     12  C   UNL     1      46.494   8.712  12.172  0.00  0.00    +0.000 A 
ENDBRANCH   5   7
BRANCH   1  13
ATOM     13  C   UNL     1      44.046   4.025  10.065  0.00  0.00    +0.000 C 
BRANCH  13  18
ATOM     14  C   UNL     1      47.132   1.737   6.974  0.00  0.00    +0.000 A 
ATOM     15  C   UNL     1      46.375   1.389   8.062  0.00  0.00    +0.000 A 
ATOM     16  N   UNL     1      45.535   2.237   8.683  0.00  0.00    +0.000 NA
ATOM     17  C   UNL     1      45.457   3.492   8.209  0.00  0.00    +0.000 A 
ATOM     18  N   UNL     1      44.574   4.396   8.772  0.00  0.00    +0.000 N 
ATOM     19  N   UNL     1      46.192   3.934   7.177  0.00  0.00    +0.000 NA
ATOM     20  C   UNL     1      46.999   3.042   6.570  0.00  0.00    +0.000 A 
ATOM     21  H   UNL     1      44.931   5.335   8.656  0.00  0.00    +0.000 HD
ENDBRANCH  13  18
ENDBRANCH   1  13
TORSDOF 3
ENDMDL
MODEL 3
REMARK VINA RESULT:    -7.352      2.643      6.961
REMARK INTER + INTRA:          -9.183
REMARK INTER:                  -8.774
REMARK INTRA:                  -0.408
REMARK UNBOUND:                -0.541
REMARK  Name = 
REMARK  3 active torsions:
REMARK  status: ('A' for Active; 'I' for Inactive)
REMARK    1  A    between atoms: N_5  and  C_6
REMARK    2  A    between atoms: C_6  and  C_7
REMARK    3  A    between atoms: C_11  and  C_12
REMARK                            x       y       z     vdW  Elec       q    Type
REMARK                         _______ _______ _______ _____ _____    ______ ____
ROOT
ATOM      1  C   UNL     1      45.073   4.617  12.973  0.00  0.00    +0.000 A 
ATOM      2  C   UNL     1      43.727   5.000  13.038  0.00  0.00    +0.000 A 
ATOM      3  C   UNL     1      42.911   4.886  11.916  0.00  0.00    +0.000 A 
ATOM      4  C   UNL     1      43.430   4.383  10.719  0.00  0.00    +0.000 A 
ATOM      5  C   UNL     1      44.774   3.984  10.609  0.00  0.00    +0.000 A 
ATOM      6  C   UNL     1      45.574   4.102  11.764  0.00  0.00    +0.000 A 
ENDROOT
BRANCH   5   7
ATOM      7  C   UNL     1      45.331   3.491   9.329  0.00  0.00    +0.000 A 
ATOM      8  C   UNL     1      45.510   2.126   9.060  0.00  0.00    +0.000 A 
ATOM      9  C   UNL     1      46.054   1.701   7.846  0.00  0.00    +0.000 A 
ATOM     10  C   UNL     1      46.404   2.659   6.911  0.00  0.00    +0.000 A 
ATOM     11  N   UNL     1      46.254   3.981   7.113  0.00  0.00    +0.000 NA
ATOM     12  C   UNL     1      45.732   4.359   8.308  0.00  0.00    +0.000 A 
ENDBRANCH   5   7
BRANCH   1  13
ATOM     13  C   UNL     1      45.979   4.803  14.168  0.00  0.00    +0.000 C 
BRANCH  13  18
ATOM     14  C   UNL     1      48.557   3.199  18.054  0.00  0.00    +0.000 A 
ATOM     15  C   UNL     1      47.548   4.102  17.833  0.00  0.00    +0.000 A 
ATOM     16  N   UNL     1      46.963   4.282  16.634  0.00  0.00    +0.000 NA
ATOM     17  C   UNL     1      47.414   3.541  15.607  0.00  0.00    +0.000 A 
ATOM     18  N   UNL     1      46.819   3.644  14.362  0.00  0.00    +0.000 N 
ATOM     19  N   UNL     1      48.424   2.666  15.719  0.00  0.00    +0.000 NA
ATOM     20  C   UNL     1      48.960   2.500  16.944  0.00  0.00    +0.000 A 
ATOM     21  H   UNL     1      47.496   3.423  13.644  0.00  0.00    +0.000 HD
ENDBRANCH  13  18
ENDBRANCH   1  13
TORSDOF 3
ENDMDL
MODEL 4
REMARK VINA RESULT:    -7.292      1.469      6.249
REMARK INTER + INTRA:          -9.112
REMARK INTER:                  -8.533
REMARK INTRA:                  -0.579
REMARK UNBOUND:                -0.541
REMARK  Name = 
REMARK  3 active torsions:
REMARK  status: ('A' for Active; 'I' for Inactive)
REMARK    1  A    between atoms: N_5  and  C_6
REMARK    2  A    between atoms: C_6  and  C_7
REMARK    3  A    between atoms: C_11  and  C_12
REMARK                            x       y       z     vdW  Elec       q    Type
REMARK                         _______ _______ _______ _____ _____    ______ ____
ROOT
ATOM      1  C   UNL     1      44.403   4.827  11.145  0.00  0.00    +0.000 A 
ATOM      2  C   UNL     1      43.527   3.913  11.743  0.00  0.00    +0.000 A 
ATOM      3  C   UNL     1      43.405   2.623  11.233  0.00  0.00    +0.000 A 
ATOM      4  C   UNL     1      44.162   2.232  10.125  0.00  0.00    +0.000 A 
ATOM      5  C   UNL     1      45.056   3.116   9.495  0.00  0.00    +0.000 A 
ATOM      6  C   UNL     1      45.166   4.413  10.039  0.00  0.00    +0.000 A 
ENDROOT
BRANCH   5   7
ATOM      7  C   UNL     1      45.826   2.712   8.297  0.00  0.00    +0.000 A 
ATOM      8  C   UNL     1      46.083   3.590   7.232  0.00  0.00    +0.000 A 
ATOM      9  C   UNL     1      46.800   3.165   6.112  0.00  0.00    +0.000 A 
ATOM     10  C   UNL     1      47.259   1.861   6.080  0.00  0.00    +0.000 A 
ATOM     11  N   UNL     1      47.045   0.975   7.070  0.00  0.00    +0.000 NA
ATOM     12  C   UNL     1      46.336   1.419   8.140  0.00  0.00    +0.000 A 
ENDBRANCH   5   7
BRANCH   1  13
ATOM     13  C   UNL     1      44.488   6.248  11.653  0.00  0.00    +0.000 C 
BRANCH  13  18
ATOM     14  C   UNL     1      49.179   7.320  12.730  0.00  0.00    +0.000 A 
ATOM     15  C   UNL     1      48.342   7.485  11.656  0.00  0.00    +0.000 A 
ATOM     16  N   UNL     1      47.038   7.153  11.674  0.00  0.00    +0.000 NA
ATOM     17  C   UNL     1      46.550   6.619  12.807  0.00  0.00    +0.000 A 
ATOM     18  N   UNL     1      45.206   6.305  12.905  0.00  0.00    +0.000 N 
ATOM     19  N   UNL     1      47.302   6.382  13.892  0.00  0.00    +0.000 NA
ATOM     20  C   UNL     1      48.596   6.755  13.835  0.00  0.00    +0.000 A 
ATOM     21  H   UNL     1      45.083   5.542  13.558  0.00  0.00    +0.000 HD
ENDBRANCH  13  18
ENDBRANCH   1  13
TORSDOF 3
ENDMDL
MODEL 5
REMARK VINA RESULT:    -7.096      1.815      2.705
REMARK INTER + INTRA:          -8.882
REMARK INTER:                  -8.415
REMARK INTRA:                  -0.466
REMARK UNBOUND:                -0.541
REMARK  Name = 
REMARK  3 active torsions:
REMARK  status: ('A' for Active; 'I' for Inactive)
REMARK    1  A    between atoms: N_5  and  C_6
REMARK    2  A    between atoms: C_6  and  C_7
REMARK    3  A    between atoms: C_11  and  C_12
REMARK                            x       y       z     vdW  Elec       q    Type
REMARK                         _______ _______ _______ _____ _____    ______ ____
ROOT
ATOM      1  C   UNL     1      44.880   4.708  11.151  0.00  0.00    +0.000 A 
ATOM      2  C   UNL     1      44.808   6.079  10.875  0.00  0.00    +0.000 A 
ATOM      3  C   UNL     1      45.450   6.995  11.703  0.00  0.00    +0.000 A 
ATOM      4  C   UNL     1      46.177   6.550  12.812  0.00  0.00    +0.000 A 
ATOM      5  C   UNL     1      46.278   5.182  13.125  0.00  0.00    +0.000 A 
ATOM      6  C   UNL     1      45.625   4.277  12.263  0.00  0.00    +0.000 A 
ENDROOT
BRANCH   5   7
ATOM      7  C   UNL     1      47.013   4.717  14.322  0.00  0.00    +0.000 A 
ATOM      8  C   UNL     1      47.536   5.600  15.279  0.00  0.00    +0.000 A 
ATOM      9  C   UNL     1      48.237   5.122  16.387  0.00  0.00    +0.000 A 
ATOM     10  C   UNL     1      48.398   3.755  16.524  0.00  0.00    +0.000 A 
ATOM     11  N   UNL     1      47.919   2.860  15.640  0.00  0.00    +0.000 NA
ATOM     12  C   UNL     1      47.251   3.360  14.569  0.00  0.00    +0.000 A 
ENDBRANCH   5   7
BRANCH   1  13
ATOM     13  C   UNL     1      44.128   3.716  10.294  0.00  0.00    +0.000 C 
BRANCH  13  18
ATOM     14  C   UNL     1      46.995   2.304   6.539  0.00  0.00    +0.000 A 
ATOM     15  C   UNL     1      46.429   3.475   6.973  0.00  0.00    +0.000 A 
ATOM     16  N   UNL     1      45.732   3.582   8.119  0.00  0.00    +0.000 NA
ATOM     17  C   UNL     1      45.579   2.470   8.857  0.00  0.00    +0.000 A 
ATOM     18  N   UNL     1      44.917   2.526  10.071  0.00  0.00    +0.000 N 
ATOM     19  N   UNL     1      46.059   1.273   8.491  0.00  0.00    +0.000 NA
ATOM     20  C   UNL     1      46.773   1.220   7.349  0.00  0.00    +0.000 A 
ATOM     21  H   UNL     1      44.490   1.631  10.266  0.00  0.00    +0.000 HD
ENDBRANCH  13  18
ENDBRANCH   1  13
TORSDOF 3
ENDMDL
MODEL 6
REMARK VINA RESULT:    -6.980      2.593      6.671
REMARK INTER + INTRA:          -8.745
REMARK INTER:                  -8.299
REMARK INTRA:                  -0.446
REMARK UNBOUND:                -0.541
REMARK  Name = 
REMARK  3 active torsions:
REMARK  status: ('A' for Active; 'I' for Inactive)
REMARK    1  A    between atoms: N_5  and  C_6
REMARK    2  A    between atoms: C_6  and  C_7
REMARK    3  A    between atoms: C_11  and  C_12
REMARK                            x       y       z     vdW  Elec       q    Type
REMARK                         _______ _______ _______ _____ _____    ______ ____
ROOT
ATOM      1  C   UNL     1      44.006   5.154  11.101  0.00  0.00    +0.000 A 
ATOM      2  C   UNL     1      43.282   4.225  11.859  0.00  0.00    +0.000 A 
ATOM      3  C   UNL     1      43.344   2.869  11.548  0.00  0.00    +0.000 A 
ATOM      4  C   UNL     1      44.133   2.427  10.482  0.00  0.00    +0.000 A 
ATOM      5  C   UNL     1      44.878   3.325   9.697  0.00  0.00    +0.000 A 
ATOM      6  C   UNL     1      44.805   4.691  10.041  0.00  0.00    +0.000 A 
ENDROOT
BRANCH   5   7
ATOM      7  C   UNL     1      45.681   2.860   8.544  0.00  0.00    +0.000 A 
ATOM      8  C   UNL     1      46.080   3.716   7.506  0.00  0.00    +0.000 A 
ATOM      9  C   UNL     1      46.824   3.235   6.427  0.00  0.00    +0.000 A 
ATOM     10  C   UNL     1      47.165   1.894   6.409  0.00  0.00    +0.000 A 
ATOM     11  N   UNL     1      46.812   1.027   7.375  0.00  0.00    +0.000 NA
ATOM     12  C   UNL     1      46.081   1.526   8.405  0.00  0.00    +0.000 A 
ENDBRANCH   5   7
BRANCH   1  13
ATOM     13  C   UNL     1      43.889   6.632  11.392  0.00  0.00    +0.000 C 
BRANCH  13  18
ATOM     14  C   UNL     1      45.960  11.100  11.648  0.00  0.00    +0.000 A 
ATOM     15  C   UNL     1      44.746  10.586  11.269  0.00  0.00    +0.000 A 
ATOM     16  N   UNL     1      44.423   9.285  11.384  0.00  0.00    +0.000 NA
ATOM     17  C   UNL     1      45.355   8.457  11.884  0.00  0.00    +0.000 A 
ATOM     18  N   UNL     1      45.066   7.118  12.075  0.00  0.00    +0.000 N 
ATOM     19  N   UNL     1      46.584   8.862  12.241  0.00  0.00    +0.000 NA
ATOM     20  C   UNL     1      46.852  10.178  12.132  0.00  0.00    +0.000 A 
ATOM     21  H   UNL     1      45.915   6.573  12.002  0.00  0.00    +0.000 HD
ENDBRANCH  13  18
ENDBRANCH   1  13
TORSDOF 3
ENDMDL
MODEL 7
REMARK VINA RESULT:    -6.905      2.383      3.879
REMARK INTER + INTRA:          -8.657
REMARK INTER:                  -8.126
REMARK INTRA:                  -0.531
REMARK UNBOUND:                -0.541
REMARK  Name = 
REMARK  3 active torsions:
REMARK  status: ('A' for Active; 'I' for Inactive)
REMARK    1  A    between atoms: N_5  and  C_6
REMARK    2  A    between atoms: C_6  and  C_7
REMARK    3  A    between atoms: C_11  and  C_12
REMARK                            x       y       z     vdW  Elec       q    Type
REMARK                         _______ _______ _______ _____ _____    ______ ____
ROOT
ATOM      1  C   UNL     1      46.212   6.082  12.247  0.00  0.00    +0.000 A 
ATOM      2  C   UNL     1      47.173   7.000  11.805  0.00  0.00    +0.000 A 
ATOM      3  C   UNL     1      48.285   7.283  12.593  0.00  0.00    +0.000 A 
ATOM      4  C   UNL     1      48.453   6.646  13.827  0.00  0.00    +0.000 A 
ATOM      5  C   UNL     1      47.515   5.715  14.307  0.00  0.00    +0.000 A 
ATOM      6  C   UNL     1      46.403   5.441  13.484  0.00  0.00    +0.000 A 
ENDROOT
BRANCH   5   7
ATOM      7  C   UNL     1      47.673   5.073  15.631  0.00  0.00    +0.000 A 
ATOM      8  C   UNL     1      48.596   5.527  16.586  0.00  0.00    +0.000 A 
ATOM      9  C   UNL     1      48.727   4.884  17.818  0.00  0.00    +0.000 A 
ATOM     10  C   UNL     1      47.918   3.792  18.079  0.00  0.00    +0.000 A 
ATOM     11  N   UNL     1      47.016   3.312  17.204  0.00  0.00    +0.000 NA
ATOM     12  C   UNL     1      46.922   3.955  16.012  0.00  0.00    +0.000 A 
ENDBRANCH   5   7
BRANCH   1  13
ATOM     13  C   UNL     1      44.970   5.823  11.426  0.00  0.00    +0.000 C 
BRANCH  13  18
ATOM     14  C   UNL     1      45.722   2.323   8.035  0.00  0.00    +0.000 A 
ATOM     15  C   UNL     1      45.193   2.387   9.298  0.00  0.00    +0.000 A 
ATOM     16  N   UNL     1      45.038   3.536   9.980  0.00  0.00    +0.000 NA
ATOM     17  C   UNL     1      45.443   4.670   9.384  0.00  0.00    +0.000 A 
ATOM     18  N   UNL     1      45.263   5.890  10.013  0.00  0.00    +0.000 N 
ATOM     19  N   UNL     1      46.010   4.700   8.169  0.00  0.00    +0.000 NA
ATOM     20  C   UNL     1      46.120   3.528   7.513  0.00  0.00    +0.000 A 
ATOM     21  H   UNL     1      45.977   6.538   9.707  0.00  0.00    +0.000 HD
ENDBRANCH  13  18
ENDBRANCH   1  13
TORSDOF 3
ENDMDL
MODEL 8
REMARK VINA RESULT:    -6.567      2.682      7.260
REMARK INTER + INTRA:          -8.260
REMARK INTER:                  -7.835
REMARK INTRA:                  -0.425
REMARK UNBOUND:                -0.541
REMARK  Name = 
REMARK  3 active torsions:
REMARK  status: ('A' for Active; 'I' for Inactive)
REMARK    1  A    between atoms: N_5  and  C_6
REMARK    2  A    between atoms: C_6  and  C_7
REMARK    3  A    between atoms: C_11  and  C_12
REMARK                            x       y       z     vdW  Elec       q    Type
REMARK                         _______ _______ _______ _____ _____    ______ ____
ROOT
ATOM      1  C   UNL     1      46.735   6.383  13.300  0.00  0.00    +0.000 A 
ATOM      2  C   UNL     1      46.325   7.703  13.073  0.00  0.00    +0.000 A 
ATOM      3  C   UNL     1      45.557   8.015  11.954  0.00  0.00    +0.000 A 
ATOM      4  C   UNL     1      45.187   7.011  11.054  0.00  0.00    +0.000 A 
ATOM      5  C   UNL     1      45.574   5.672  11.245  0.00  0.00    +0.000 A 
ATOM      6  C   UNL     1      46.343   5.384  12.392  0.00  0.00    +0.000 A 
ENDROOT
BRANCH   5   7
ATOM      7  C   UNL     1      45.215   4.618  10.270  0.00  0.00    +0.000 A 
ATOM      8  C   UNL     1      45.567   4.693   8.913  0.00  0.00    +0.000 A 
ATOM      9  C   UNL     1      45.196   3.685   8.021  0.00  0.00    +0.000 A 
ATOM     10  C   UNL     1      44.480   2.606   8.508  0.00  0.00    +0.000 A 
ATOM     11  N   UNL     1      44.115   2.480   9.797  0.00  0.00    +0.000 NA
ATOM     12  C   UNL     1      44.484   3.483  10.635  0.00  0.00    +0.000 A 
ENDBRANCH   5   7
BRANCH   1  13
ATOM     13  C   UNL     1      47.625   6.052  14.476  0.00  0.00    +0.000 C 
BRANCH  13  18
ATOM     14  C   UNL     1      49.311   3.304  18.207  0.00  0.00    +0.000 A 
ATOM     15  C   UNL     1      49.759   4.376  17.479  0.00  0.00    +0.000 A 
ATOM     16  N   UNL     1      49.023   4.992  16.536  0.00  0.00    +0.000 NA
ATOM     17  C   UNL     1      47.793   4.509  16.296  0.00  0.00    +0.000 A 
ATOM     18  N   UNL     1      46.969   5.131  15.374  0.00  0.00    +0.000 N 
ATOM     19  N   UNL     1      47.287   3.439  16.928  0.00  0.00    +0.000 NA
ATOM     20  C   UNL     1      48.050   2.872  17.883  0.00  0.00    +0.000 A 
ATOM     21  H   UNL     1      46.332   4.453  14.977  0.00  0.00    +0.000 HD
ENDBRANCH  13  18
ENDBRANCH   1  13
TORSDOF 3
ENDMDL
MODEL 9
REMARK VINA RESULT:    -6.492      1.427      6.742
REMARK INTER + INTRA:          -8.172
REMARK INTER:                  -7.741
REMARK INTRA:                  -0.431
REMARK UNBOUND:                -0.541
REMARK  Name = 
REMARK  3 active torsions:
REMARK  status: ('A' for Active; 'I' for Inactive)
REMARK    1  A    between atoms: N_5  and  C_6
REMARK    2  A    between atoms: C_6  and  C_7
REMARK    3  A    between atoms: C_11  and  C_12
REMARK                            x       y       z     vdW  Elec       q    Type
REMARK                         _______ _______ _______ _____ _____    ______ ____
ROOT
ATOM      1  C   UNL     1      44.993   6.075  11.949  0.00  0.00    +0.000 A 
ATOM      2  C   UNL     1      43.638   5.870  12.239  0.00  0.00    +0.000 A 
ATOM      3  C   UNL     1      42.903   4.931  11.522  0.00  0.00    +0.000 A 
ATOM      4  C   UNL     1      43.514   4.182  10.512  0.00  0.00    +0.000 A 
ATOM      5  C   UNL     1      44.873   4.353  10.190  0.00  0.00    +0.000 A 
ATOM      6  C   UNL     1      45.595   5.304  10.939  0.00  0.00    +0.000 A 
ENDROOT
BRANCH   5   7
ATOM      7  C   UNL     1      45.508   3.588   9.093  0.00  0.00    +0.000 A 
ATOM      8  C   UNL     1      46.074   4.208   7.969  0.00  0.00    +0.000 A 
ATOM      9  C   UNL     1      46.650   3.450   6.947  0.00  0.00    +0.000 A 
ATOM     10  C   UNL     1      46.656   2.073   7.074  0.00  0.00    +0.000 A 
ATOM     11  N   UNL     1      46.129   1.423   8.128  0.00  0.00    +0.000 NA
ATOM     12  C   UNL     1      45.569   2.190   9.098  0.00  0.00    +0.000 A 
ENDBRANCH   5   7
BRANCH   1  13
ATOM     13  C   UNL     1      45.778   7.141  12.679  0.00  0.00    +0.000 C 
BRANCH  13  18
ATOM     14  C   UNL     1      50.137   8.604  14.459  0.00  0.00    +0.000 A 
ATOM     15  C   UNL     1      49.097   9.180  13.775  0.00  0.00    +0.000 A 
ATOM     16  N   UNL     1      47.955   8.533  13.480  0.00  0.00    +0.000 NA
ATOM     17  C   UNL     1      47.850   7.252  13.868  0.00  0.00    +0.000 A 
ATOM     18  N   UNL     1      46.681   6.548  13.639  0.00  0.00    +0.000 N 
ATOM     19  N   UNL     1      48.831   6.593  14.504  0.00  0.00    +0.000 NA
ATOM     20  C   UNL     1      49.945   7.290  14.802  0.00  0.00    +0.000 A 
ATOM     21  H   UNL     1      46.889   5.563  13.548  0.00  0.00    +0.000 HD
ENDBRANCH  13  18
ENDBRANCH   1  13
TORSDOF 3
ENDMDL
