MODEL 1
REMARK VINA RESULT:    -9.270      0.000      0.000
REMARK INTER + INTRA:         -14.064
REMARK INTER:                 -13.063
REMARK INTRA:                  -1.001
REMARK UNBOUND:                -1.001
REMARK  Name = 
REMARK  7 active torsions:
REMARK  status: ('A' for Active; 'I' for Inactive)
REMARK    1  A    between atoms: C_2  and  C_4
REMARK    2  A    between atoms: C_7  and  O_8
REMARK    3  A    between atoms: O_8  and  C_9
REMARK    4  A    between atoms: C_9  and  C_10
REMARK    5  A    between atoms: C_10  and  C_13
REMARK    6  A    between atoms: C_18  and  N_19
REMARK    7  A    between atoms: N_19  and  C_20
REMARK                            x       y       z     vdW  Elec       q    Type
REMARK                         _______ _______ _______ _____ _____    ______ ____
ROOT
ATOM      1  C   UNL     1      43.521   5.423  12.100  0.00  0.00    +0.000 C 
ATOM      2  F   UNL     1      43.178   6.578  11.451  0.00  0.00    +0.000 F 
ATOM      3  F   UNL     1      42.632   5.321  13.135  0.00  0.00    +0.000 F 
ENDROOT
BRANCH   1   4
ATOM      4  C   UNL     1      44.950   5.480  12.599  0.00  0.00    +0.000 A 
ATOM      5  C   UNL     1      45.864   6.404  12.079  0.00  0.00    +0.000 A 
ATOM      6  C   UNL     1      47.177   6.405  12.539  0.00  0.00    +0.000 A 
ATOM      7  F   UNL     1      48.042   7.304  12.048  0.00  0.00    +0.000 F 
ATOM      8  C   UNL     1      47.600   5.509  13.512  0.00  0.00    +0.000 A 
ATOM      9  C   UNL     1      46.705   4.584  14.056  0.00  0.00    +0.000 A 
ATOM     10  C   UNL     1      45.384   4.581  13.593  0.00  0.00    +0.000 A 
BRANCH   9  11
ATOM     11  N   UNL     1      47.130   3.773  15.127  0.00  0.00    +0.000 N 
ATOM     12  H   UNL     1      46.996   2.782  14.931  0.00  0.00    +0.000 HD
BRANCH  11  13
ATOM     13  C   UNL     1      47.165   4.129  16.512  0.00  0.00    +0.000 C 
ATOM     14  C   UNL     1      48.533   4.710  16.926  0.00  0.00    +0.000 C 
ATOM     15  C   UNL     1      48.575   3.711  18.094  0.00  0.00    +0.000 C 
ATOM     16  F   UNL     1      49.744   3.048  18.250  0.00  0.00    +0.000 F 
ATOM     17  F   UNL     1      48.260   4.227  19.305  0.00  0.00    +0.000 F 
ATOM     18  C   UNL     1      47.452   2.911  17.409  0.00  0.00    +0.000 C 
ENDBRANCH  11  13
ENDBRANCH   9  11
ENDBRANCH   1   4
BRANCH   1  19
ATOM     19  C   UNL     1      43.282   4.247  11.138  0.00  0.00    +0.000 C 
BRANCH  19  20
ATOM     20  O   UNL     1      43.563   4.691   9.800  0.00  0.00    +0.000 OA
BRANCH  20  24
ATOM     21  C   UNL     1      46.272   2.325   7.930  0.00  0.00    +0.000 A 
ATOM     22  C   UNL     1      46.255   3.695   7.681  0.00  0.00    +0.000 A 
ATOM     23  N   UNL     1      45.369   4.542   8.273  0.00  0.00    +0.000 NA
ATOM     24  C   UNL     1      44.504   3.951   9.131  0.00  0.00    +0.000 A 
ATOM     25  C   UNL     1      44.521   2.579   9.377  0.00  0.00    +0.000 A 
ATOM     26  N   UNL     1      45.398   1.728   8.787  0.00  0.00    +0.000 NA
BRANCH  21  28
ATOM     27  N   UNL     1      48.330   2.103   6.668  0.00  0.00    +0.000 N 
ATOM     28  C   UNL     1      47.273   1.459   7.251  0.00  0.00    +0.000 C 
ATOM     29  O   UNL     1      47.165   0.240   7.221  0.00  0.00    +0.000 OA
ATOM     30  H   UNL     1      49.054   1.564   6.215  0.00  0.00    +0.000 HD
ATOM     31  H   UNL     1      48.421   3.112   6.745  0.00  0.00    +0.000 HD
ENDBRANCH  21  28
ENDBRANCH  20  24
ENDBRANCH  19  20
ENDBRANCH   1  19
TORSDOF 7
ENDMDL
MODEL 2
REMARK VINA RESULT:    -8.144      3.450      7.784
REMARK INTER + INTRA:         -12.477
REMARK INTER:                 -11.419
REMARK INTRA:                  -1.058
REMARK UNBOUND:                -1.001
REMARK  Name = 
REMARK  7 active torsions:
REMARK  status: ('A' for Active; 'I' for Inactive)
REMARK    1  A    between atoms: C_2  and  C_4
REMARK    2  A    between atoms: C_7  and  O_8
REMARK    3  A    between atoms: O_8  and  C_9
REMARK    4  A    between atoms: C_9  and  C_10
REMARK    5  A    between atoms: C_10  and  C_13
REMARK    6  A    between atoms: C_18  and  N_19
REMARK    7  A    between atoms: N_19  and  C_20
REMARK                            x       y       z     vdW  Elec       q    Type
REMARK                         _______ _______ _______ _____ _____    ______ ____
ROOT
ATOM      1  C   UNL     1      46.094   7.577  11.795  0.00  0.00    +0.000 C 
ATOM      2  F   UNL     1      45.510   8.790  11.547  0.00  0.00    +0.000 F 
ATOM      3  F   UNL     1      47.213   7.556  11.008  0.00  0.00    +0.000 F 
ENDROOT
BRANCH   1   4
ATOM      4  C   UNL     1      45.155   6.439  11.456  0.00  0.00    +0.000 A 
ATOM      5  C   UNL     1      43.785   6.522  11.732  0.00  0.00    +0.000 A 
ATOM      6  C   UNL     1      42.958   5.442  11.437  0.00  0.00    +0.000 A 
ATOM      7  F   UNL     1      41.645   5.535  11.688  0.00  0.00    +0.000 F 
ATOM      8  C   UNL     1      43.465   4.282  10.865  0.00  0.00    +0.000 A 
ATOM      9  C   UNL     1      44.826   4.178  10.569  0.00  0.00    +0.000 A 
ATOM     10  C   UNL     1      45.660   5.263  10.867  0.00  0.00    +0.000 A 
BRANCH   9  11
ATOM     11  N   UNL     1      45.288   3.041   9.877  0.00  0.00    +0.000 N 
ATOM     12  H   UNL     1      46.028   2.560  10.386  0.00  0.00    +0.000 HD
BRANCH  11  13
ATOM     13  C   UNL     1      45.277   2.834   8.461  0.00  0.00    +0.000 C 
ATOM     14  C   UNL     1      46.244   1.710   8.034  0.00  0.00    +0.000 C 
ATOM     15  C   UNL     1      46.855   2.667   6.996  0.00  0.00    +0.000 C 
ATOM     16  F   UNL     1      48.207   2.705   6.965  0.00  0.00    +0.000 F 
ATOM     17  F   UNL     1      46.446   2.471   5.721  0.00  0.00    +0.000 F 
ATOM     18  C   UNL     1      46.181   3.842   7.729  0.00  0.00    +0.000 C 
ENDBRANCH  11  13
ENDBRANCH   9  11
ENDBRANCH   1   4
BRANCH   1  19
ATOM     19  C   UNL     1      46.538   7.554  13.268  0.00  0.00    +0.000 C 
BRANCH  19  20
ATOM     20  O   UNL     1      47.780   6.837  13.357  0.00  0.00    +0.000 OA
BRANCH  20  24
ATOM     21  C   UNL     1      47.918   4.152  16.391  0.00  0.00    +0.000 A 
ATOM     22  C   UNL     1      48.637   5.340  16.480  0.00  0.00    +0.000 A 
ATOM     23  N   UNL     1      48.635   6.280  15.495  0.00  0.00    +0.000 NA
ATOM     24  C   UNL     1      47.874   5.974  14.419  0.00  0.00    +0.000 A 
ATOM     25  C   UNL     1      47.156   4.782  14.329  0.00  0.00    +0.000 A 
ATOM     26  N   UNL     1      47.157   3.839  15.305  0.00  0.00    +0.000 NA
BRANCH  21  28
ATOM     27  N   UNL     1      46.779   2.544  17.805  0.00  0.00    +0.000 N 
ATOM     28  C   UNL     1      47.960   3.171  17.509  0.00  0.00    +0.000 C 
ATOM     29  O   UNL     1      48.990   2.930  18.125  0.00  0.00    +0.000 OA
ATOM     30  H   UNL     1      46.754   1.850  18.538  0.00  0.00    +0.000 HD
ATOM     31  H   UNL     1      45.948   2.729  17.250  0.00  0.00    +0.000 HD
ENDBRANCH  21  28
ENDBRANCH  20  24
ENDBRANCH  19  20
ENDBRANCH   1  19
TORSDOF 7
ENDMDL
MODEL 3
REMARK VINA RESULT:    -7.956      1.856      2.351
REMARK INTER + INTRA:         -12.213
REMARK INTER:                 -11.262
REMARK INTRA:                  -0.951
REMARK UNBOUND:                -1.001
REMARK  Name = 
REMARK  7 active torsions:
REMARK  status: ('A' for Active; 'I' for Inactive)
REMARK    1  A    between atoms: C_2  and  C_4
REMARK    2  A    between atoms: C_7  and  O_8
REMARK    3  A    between atoms: O_8  and  C_9
REMARK    4  A    between atoms: C_9  and  C_10
REMARK    5  A    between atoms: C_10  and  C_13
REMARK    6  A    between atoms: C_18  and  N_19
REMARK    7  A    between atoms: N_19  and  C_20
REMARK                            x       y       z     vdW  Elec       q    Type
REMARK                         _______ _______ _______ _____ _____    ______ ____
ROOT
ATOM      1  C   UNL     1      44.160   4.658  12.339  0.00  0.00    +0.000 C 
ATOM      2  F   UNL     1      43.112   4.766  13.213  0.00  0.00    +0.000 F 
ATOM      3  F   UNL     1      44.769   3.476  12.660  0.00  0.00    +0.000 F 
ENDROOT
BRANCH   1   4
ATOM      4  C   UNL     1      45.110   5.828  12.479  0.00  0.00    +0.000 A 
ATOM      5  C   UNL     1      44.786   7.092  11.971  0.00  0.00    +0.000 A 
ATOM      6  C   UNL     1      45.699   8.135  12.090  0.00  0.00    +0.000 A 
ATOM      7  F   UNL     1      45.374   9.347  11.617  0.00  0.00    +0.000 F 
ATOM      8  C   UNL     1      46.928   7.950  12.709  0.00  0.00    +0.000 A 
ATOM      9  C   UNL     1      47.272   6.702  13.235  0.00  0.00    +0.000 A 
ATOM     10  C   UNL     1      46.355   5.651  13.115  0.00  0.00    +0.000 A 
BRANCH   9  11
ATOM     11  N   UNL     1      48.470   6.577  13.965  0.00  0.00    +0.000 N 
ATOM     12  H   UNL     1      49.072   5.845  13.589  0.00  0.00    +0.000 HD
BRANCH  11  13
ATOM     13  C   UNL     1      48.670   6.890  15.347  0.00  0.00    +0.000 C 
ATOM     14  C   UNL     1      50.163   6.869  15.735  0.00  0.00    +0.000 C 
ATOM     15  C   UNL     1      49.818   5.940  16.911  0.00  0.00    +0.000 C 
ATOM     16  F   UNL     1      50.621   4.861  17.054  0.00  0.00    +0.000 F 
ATOM     17  F   UNL     1      49.759   6.540  18.122  0.00  0.00    +0.000 F 
ATOM     18  C   UNL     1      48.455   5.661  16.249  0.00  0.00    +0.000 C 
ENDBRANCH  11  13
ENDBRANCH   9  11
ENDBRANCH   1   4
BRANCH   1  19
ATOM     19  C   UNL     1      43.583   4.536  10.918  0.00  0.00    +0.000 C 
BRANCH  19  20
ATOM     20  O   UNL     1      43.746   3.177  10.477  0.00  0.00    +0.000 OA
BRANCH  20  24
ATOM     21  C   UNL     1      46.342   2.890   7.377  0.00  0.00    +0.000 A 
ATOM     22  C   UNL     1      46.008   1.756   8.113  0.00  0.00    +0.000 A 
ATOM     23  N   UNL     1      45.147   1.786   9.166  0.00  0.00    +0.000 NA
ATOM     24  C   UNL     1      44.631   3.007   9.444  0.00  0.00    +0.000 A 
ATOM     25  C   UNL     1      44.968   4.142   8.707  0.00  0.00    +0.000 A 
ATOM     26  N   UNL     1      45.829   4.120   7.659  0.00  0.00    +0.000 NA
BRANCH  21  28
ATOM     27  N   UNL     1      48.590   2.510   6.551  0.00  0.00    +0.000 N 
ATOM     28  C   UNL     1      47.286   2.782   6.233  0.00  0.00    +0.000 C 
ATOM     29  O   UNL     1      46.922   2.920   5.072  0.00  0.00    +0.000 OA
ATOM     30  H   UNL     1      49.271   2.401   5.814  0.00  0.00    +0.000 HD
ATOM     31  H   UNL     1      48.859   2.356   7.519  0.00  0.00    +0.000 HD
ENDBRANCH  21  28
ENDBRANCH  20  24
ENDBRANCH  19  20
ENDBRANCH   1  19
TORSDOF 7
ENDMDL
MODEL 4
REMARK VINA RESULT:    -7.753      3.058      4.124
REMARK INTER + INTRA:         -11.926
REMARK INTER:                 -11.744
REMARK INTRA:                  -0.182
REMARK UNBOUND:                -1.001
REMARK  Name = 
REMARK  7 active torsions:
REMARK  status: ('A' for Active; 'I' for Inactive)
REMARK    1  A    between atoms: C_2  and  C_4
REMARK    2  A    between atoms: C_7  and  O_8
REMARK    3  A    between atoms: O_8  and  C_9
REMARK    4  A    between atoms: C_9  and  C_10
REMARK    5  A    between atoms: C_10  and  C_13
REMARK    6  A    between atoms: C_18  and  N_19
REMARK    7  A    between atoms: N_19  and  C_20
REMARK                            x       y       z     vdW  Elec       q    Type
REMARK                         _______ _______ _______ _____ _____    ______ ____
ROOT
ATOM      1  C   UNL     1      44.142   4.122  12.383  0.00  0.00    +0.000 C 
ATOM      2  F   UNL     1      43.260   3.969  13.419  0.00  0.00    +0.000 F 
ATOM      3  F   UNL     1      45.083   3.148  12.572  0.00  0.00    +0.000 F 
ENDROOT
BRANCH   1   4
ATOM      4  C   UNL     1      44.762   5.504  12.395  0.00  0.00    +0.000 A 
ATOM      5  C   UNL     1      44.110   6.598  11.813  0.00  0.00    +0.000 A 
ATOM      6  C   UNL     1      44.726   7.845  11.814  0.00  0.00    +0.000 A 
ATOM      7  F   UNL     1      44.087   8.891  11.270  0.00  0.00    +0.000 F 
ATOM      8  C   UNL     1      45.977   8.030  12.388  0.00  0.00    +0.000 A 
ATOM      9  C   UNL     1      46.644   6.958  12.986  0.00  0.00    +0.000 A 
ATOM     10  C   UNL     1      46.026   5.702  12.984  0.00  0.00    +0.000 A 
BRANCH   9  11
ATOM     11  N   UNL     1      47.853   7.203  13.667  0.00  0.00    +0.000 N 
ATOM     12  H   UNL     1      47.695   7.594  14.595  0.00  0.00    +0.000 HD
BRANCH  11  13
ATOM     13  C   UNL     1      49.125   7.497  13.082  0.00  0.00    +0.000 C 
ATOM     14  C   UNL     1      49.464   9.000  13.160  0.00  0.00    +0.000 C 
ATOM     15  C   UNL     1      49.767   8.984  11.653  0.00  0.00    +0.000 C 
ATOM     16  F   UNL     1      49.221   9.995  10.939  0.00  0.00    +0.000 F 
ATOM     17  F   UNL     1      51.081   8.950  11.330  0.00  0.00    +0.000 F 
ATOM     18  C   UNL     1      49.032   7.634  11.551  0.00  0.00    +0.000 C 
ENDBRANCH  11  13
ENDBRANCH   9  11
ENDBRANCH   1   4
BRANCH   1  19
ATOM     19  C   UNL     1      43.393   3.825  11.072  0.00  0.00    +0.000 C 
BRANCH  19  20
ATOM     20  O   UNL     1      43.970   4.628  10.029  0.00  0.00    +0.000 OA
BRANCH  20  24
ATOM     21  C   UNL     1      46.503   2.484   7.700  0.00  0.00    +0.000 A 
ATOM     22  C   UNL     1      46.477   3.872   7.605  0.00  0.00    +0.000 A 
ATOM     23  N   UNL     1      45.648   4.649   8.356  0.00  0.00    +0.000 NA
ATOM     24  C   UNL     1      44.849   3.967   9.210  0.00  0.00    +0.000 A 
ATOM     25  C   UNL     1      44.874   2.576   9.303  0.00  0.00    +0.000 A 
ATOM     26  N   UNL     1      45.695   1.796   8.555  0.00  0.00    +0.000 NA
BRANCH  21  28
ATOM     27  N   UNL     1      48.508   2.383   6.341  0.00  0.00    +0.000 N 
ATOM     28  C   UNL     1      47.439   1.698   6.853  0.00  0.00    +0.000 C 
ATOM     29  O   UNL     1      47.272   0.505   6.631  0.00  0.00    +0.000 OA
ATOM     30  H   UNL     1      49.191   1.895   5.780  0.00  0.00    +0.000 HD
ATOM     31  H   UNL     1      48.649   3.362   6.577  0.00  0.00    +0.000 HD
ENDBRANCH  21  28
ENDBRANCH  20  24
ENDBRANCH  19  20
ENDBRANCH   1  19
TORSDOF 7
ENDMDL
MODEL 5
REMARK VINA RESULT:    -7.041      4.069      7.465
REMARK INTER + INTRA:         -10.923
REMARK INTER:                  -9.546
REMARK INTRA:                  -1.376
REMARK UNBOUND:                -1.001
REMARK  Name = 
REMARK  7 active torsions:
REMARK  status: ('A' for Active; 'I' for Inactive)
REMARK    1  A    between atoms: C_2  and  C_4
REMARK    2  A    between atoms: C_7  and  O_8
REMARK    3  A    between atoms: O_8  and  C_9
REMARK    4  A    between atoms: C_9  and  C_10
REMARK    5  A    between atoms: C_10  and  C_13
REMARK    6  A    between atoms: C_18  and  N_19
REMARK    7  A    between atoms: N_19  and  C_20
REMARK                            x       y       z     vdW  Elec       q    Type
REMARK                         _______ _______ _______ _____ _____    ______ ____
ROOT
ATOM      1  C   UNL     1      49.065   8.428  12.295  0.00  0.00    +0.000 C 
ATOM      2  F   UNL     1      49.282   9.698  12.759  0.00  0.00    +0.000 F 
ATOM      3  F   UNL     1      49.784   8.348  11.135  0.00  0.00    +0.000 F 
ENDROOT
BRANCH   1   4
ATOM      4  C   UNL     1      47.591   8.179  12.055  0.00  0.00    +0.000 A 
ATOM      5  C   UNL     1      46.618   9.071  12.522  0.00  0.00    +0.000 A 
ATOM      6  C   UNL     1      45.272   8.791  12.310  0.00  0.00    +0.000 A 
ATOM      7  F   UNL     1      44.347   9.659  12.744  0.00  0.00    +0.000 F 
ATOM      8  C   UNL     1      44.871   7.645  11.636  0.00  0.00    +0.000 A 
ATOM      9  C   UNL     1      45.822   6.744  11.150  0.00  0.00    +0.000 A 
ATOM     10  C   UNL     1      47.178   7.023  11.364  0.00  0.00    +0.000 A 
BRANCH   9  11
ATOM     11  N   UNL     1      45.392   5.656  10.365  0.00  0.00    +0.000 N 
ATOM     12  H   UNL     1      44.998   5.959   9.476  0.00  0.00    +0.000 HD
BRANCH  11  13
ATOM     13  C   UNL     1      44.941   4.382  10.837  0.00  0.00    +0.000 C 
ATOM     14  C   UNL     1      43.418   4.362  11.083  0.00  0.00    +0.000 C 
ATOM     15  C   UNL     1      43.679   3.798  12.489  0.00  0.00    +0.000 C 
ATOM     16  F   UNL     1      42.994   4.394  13.492  0.00  0.00    +0.000 F 
ATOM     17  F   UNL     1      43.476   2.466  12.623  0.00  0.00    +0.000 F 
ATOM     18  C   UNL     1      45.152   4.226  12.353  0.00  0.00    +0.000 C 
ENDBRANCH  11  13
ENDBRANCH   9  11
ENDBRANCH   1   4
BRANCH   1  19
ATOM     19  C   UNL     1      49.670   7.441  13.309  0.00  0.00    +0.000 C 
BRANCH  19  20
ATOM     20  O   UNL     1      49.265   7.843  14.629  0.00  0.00    +0.000 OA
BRANCH  20  24
ATOM     21  C   UNL     1      47.906   4.731  16.844  0.00  0.00    +0.000 A 
ATOM     22  C   UNL     1      48.636   5.750  17.449  0.00  0.00    +0.000 A 
ATOM     23  N   UNL     1      49.122   6.819  16.762  0.00  0.00    +0.000 NA
ATOM     24  C   UNL     1      48.839   6.821  15.438  0.00  0.00    +0.000 A 
ATOM     25  C   UNL     1      48.110   5.798  14.832  0.00  0.00    +0.000 A 
ATOM     26  N   UNL     1      47.626   4.727  15.511  0.00  0.00    +0.000 NA
BRANCH  21  28
ATOM     27  N   UNL     1      48.137   3.270  18.766  0.00  0.00    +0.000 N 
ATOM     28  C   UNL     1      47.399   3.594  17.659  0.00  0.00    +0.000 C 
ATOM     29  O   UNL     1      46.378   2.987  17.365  0.00  0.00    +0.000 OA
ATOM     30  H   UNL     1      47.826   2.524  19.371  0.00  0.00    +0.000 HD
ATOM     31  H   UNL     1      48.956   3.818  19.014  0.00  0.00    +0.000 HD
ENDBRANCH  21  28
ENDBRANCH  20  24
ENDBRANCH  19  20
ENDBRANCH   1  19
TORSDOF 7
ENDMDL
MODEL 6
REMARK VINA RESULT:    -6.791      3.861      5.589
REMARK INTER + INTRA:         -10.570
REMARK INTER:                  -9.338
REMARK INTRA:                  -1.232
REMARK UNBOUND:                -1.001
REMARK  Name = 
REMARK  7 active torsions:
REMARK  status: ('A' for Active; 'I' for Inactive)
REMARK    1  A    between atoms: C_2  and  C_4
REMARK    2  A    between atoms: C_7  and  O_8
REMARK    3  A    between atoms: O_8  and  C_9
REMARK    4  A    between atoms: C_9  and  C_10
REMARK    5  A    between atoms: C_10  and  C_13
REMARK    6  A    between atoms: C_18  and  N_19
REMARK    7  A    between atoms: N_19  and  C_20
REMARK                            x       y       z     vdW  Elec       q    Type
REMARK                         _______ _______ _______ _____ _____    ______ ____
ROOT
ATOM      1  C   UNL     1      49.051   8.353  14.249  0.00  0.00    +0.000 C 
ATOM      2  F   UNL     1      49.630   9.583  14.092  0.00  0.00    +0.000 F 
ATOM      3  F   UNL     1      47.743   8.613  14.552  0.00  0.00    +0.000 F 
ENDROOT
BRANCH   1   4
ATOM      4  C   UNL     1      49.730   7.566  15.350  0.00  0.00    +0.000 A 
ATOM      5  C   UNL     1      51.105   7.303  15.313  0.00  0.00    +0.000 A 
ATOM      6  C   UNL     1      51.687   6.548  16.327  0.00  0.00    +0.000 A 
ATOM      7  F   UNL     1      53.007   6.315  16.293  0.00  0.00    +0.000 F 
ATOM      8  C   UNL     1      50.932   6.054  17.383  0.00  0.00    +0.000 A 
ATOM      9  C   UNL     1      49.561   6.313  17.450  0.00  0.00    +0.000 A 
ATOM     10  C   UNL     1      48.972   7.070  16.430  0.00  0.00    +0.000 A 
BRANCH   9  11
ATOM     11  N   UNL     1      48.846   5.905  18.594  0.00  0.00    +0.000 N 
ATOM     12  H   UNL     1      49.272   6.250  19.453  0.00  0.00    +0.000 HD
BRANCH  11  13
ATOM     13  C   UNL     1      48.046   4.726  18.732  0.00  0.00    +0.000 C 
ATOM     14  C   UNL     1      48.822   3.451  18.342  0.00  0.00    +0.000 C 
ATOM     15  C   UNL     1      47.660   3.058  17.415  0.00  0.00    +0.000 C 
ATOM     16  F   UNL     1      48.017   2.653  16.175  0.00  0.00    +0.000 F 
ATOM     17  F   UNL     1      46.827   2.111  17.905  0.00  0.00    +0.000 F 
ATOM     18  C   UNL     1      47.138   4.504  17.509  0.00  0.00    +0.000 C 
ENDBRANCH  11  13
ENDBRANCH   9  11
ENDBRANCH   1   4
BRANCH   1  19
ATOM     19  C   UNL     1      49.100   7.627  12.893  0.00  0.00    +0.000 C 
BRANCH  19  20
ATOM     20  O   UNL     1      48.894   6.223  13.123  0.00  0.00    +0.000 OA
BRANCH  20  24
ATOM     21  C   UNL     1      45.078   4.856  13.044  0.00  0.00    +0.000 A 
ATOM     22  C   UNL     1      45.479   5.854  12.160  0.00  0.00    +0.000 A 
ATOM     23  N   UNL     1      46.743   6.358  12.138  0.00  0.00    +0.000 NA
ATOM     24  C   UNL     1      47.589   5.810  13.042  0.00  0.00    +0.000 A 
ATOM     25  C   UNL     1      47.186   4.812  13.929  0.00  0.00    +0.000 A 
ATOM     26  N   UNL     1      45.927   4.308  13.958  0.00  0.00    +0.000 NA
BRANCH  21  28
ATOM     27  N   UNL     1      42.694   5.291  13.113  0.00  0.00    +0.000 N 
ATOM     28  C   UNL     1      43.681   4.348  13.008  0.00  0.00    +0.000 C 
ATOM     29  O   UNL     1      43.424   3.157  12.884  0.00  0.00    +0.000 OA
ATOM     30  H   UNL     1      41.726   5.006  13.069  0.00  0.00    +0.000 HD
ATOM     31  H   UNL     1      42.932   6.277  13.170  0.00  0.00    +0.000 HD
ENDBRANCH  21  28
ENDBRANCH  20  24
ENDBRANCH  19  20
ENDBRANCH   1  19
TORSDOF 7
ENDMDL
MODEL 7
REMARK VINA RESULT:    -6.696      3.441      5.203
REMARK INTER + INTRA:         -10.437
REMARK INTER:                  -9.181
REMARK INTRA:                  -1.256
REMARK UNBOUND:                -1.001
REMARK  Name = 
REMARK  7 active torsions:
REMARK  status: ('A' for Active; 'I' for Inactive)
REMARK    1  A    between atoms: C_2  and  C_4
REMARK    2  A    between atoms: C_7  and  O_8
REMARK    3  A    between atoms: O_8  and  C_9
REMARK    4  A    between atoms: C_9  and  C_10
REMARK    5  A    between atoms: C_10  and  C_13
REMARK    6  A    between atoms: C_18  and  N_19
REMARK    7  A    between atoms: N_19  and  C_20
REMARK                            x       y       z     vdW  Elec       q    Type
REMARK                         _______ _______ _______ _____ _____    ______ ____
ROOT
ATOM      1  C   UNL     1      49.583   7.978  13.833  0.00  0.00    +0.000 C 
ATOM      2  F   UNL     1      50.922   7.737  13.676  0.00  0.00    +0.000 F 
ATOM      3  F   UNL     1      49.375   9.205  13.265  0.00  0.00    +0.000 F 
ENDROOT
BRANCH   1   4
ATOM      4  C   UNL     1      49.195   7.969  15.296  0.00  0.00    +0.000 A 
ATOM      5  C   UNL     1      48.519   9.051  15.875  0.00  0.00    +0.000 A 
ATOM      6  C   UNL     1      48.208   9.020  17.231  0.00  0.00    +0.000 A 
ATOM      7  F   UNL     1      47.546  10.052  17.773  0.00  0.00    +0.000 F 
ATOM      8  C   UNL     1      48.550   7.933  18.024  0.00  0.00    +0.000 A 
ATOM      9  C   UNL     1      49.214   6.836  17.470  0.00  0.00    +0.000 A 
ATOM     10  C   UNL     1      49.529   6.866  16.106  0.00  0.00    +0.000 A 
BRANCH   9  11
ATOM     11  N   UNL     1      49.436   5.698  18.270  0.00  0.00    +0.000 N 
ATOM     12  H   UNL     1      50.426   5.464  18.334  0.00  0.00    +0.000 HD
BRANCH  11  13
ATOM     13  C   UNL     1      48.530   4.613  18.490  0.00  0.00    +0.000 C 
ATOM     14  C   UNL     1      49.009   3.313  17.812  0.00  0.00    +0.000 C 
ATOM     15  C   UNL     1      47.623   3.173  17.160  0.00  0.00    +0.000 C 
ATOM     16  F   UNL     1      47.628   2.881  15.839  0.00  0.00    +0.000 F 
ATOM     17  F   UNL     1      46.797   2.277  17.749  0.00  0.00    +0.000 F 
ATOM     18  C   UNL     1      47.346   4.648  17.507  0.00  0.00    +0.000 C 
ENDBRANCH  11  13
ENDBRANCH   9  11
ENDBRANCH   1   4
BRANCH   1  19
ATOM     19  C   UNL     1      48.812   6.928  13.014  0.00  0.00    +0.000 C 
BRANCH  19  20
ATOM     20  O   UNL     1      47.407   7.223  13.107  0.00  0.00    +0.000 OA
BRANCH  20  24
ATOM     21  C   UNL     1      44.977   4.092  12.257  0.00  0.00    +0.000 A 
ATOM     22  C   UNL     1      45.254   5.043  11.279  0.00  0.00    +0.000 A 
ATOM     23  N   UNL     1      46.058   6.118  11.502  0.00  0.00    +0.000 NA
ATOM     24  C   UNL     1      46.576   6.192  12.751  0.00  0.00    +0.000 A 
ATOM     25  C   UNL     1      46.296   5.239  13.730  0.00  0.00    +0.000 A 
ATOM     26  N   UNL     1      45.492   4.168  13.516  0.00  0.00    +0.000 NA
BRANCH  21  28
ATOM     27  N   UNL     1      44.127   2.488  10.649  0.00  0.00    +0.000 N 
ATOM     28  C   UNL     1      44.093   2.937  11.942  0.00  0.00    +0.000 C 
ATOM     29  O   UNL     1      43.382   2.411  12.788  0.00  0.00    +0.000 OA
ATOM     30  H   UNL     1      43.567   1.691  10.383  0.00  0.00    +0.000 HD
ATOM     31  H   UNL     1      44.759   2.913   9.975  0.00  0.00    +0.000 HD
ENDBRANCH  21  28
ENDBRANCH  20  24
ENDBRANCH  19  20
ENDBRANCH   1  19
TORSDOF 7
ENDMDL
MODEL 8
REMARK VINA RESULT:    -6.542      2.928      3.664
REMARK INTER + INTRA:         -10.220
REMARK INTER:                  -9.685
REMARK INTRA:                  -0.536
REMARK UNBOUND:                -1.001
REMARK  Name = 
REMARK  7 active torsions:
REMARK  status: ('A' for Active; 'I' for Inactive)
REMARK    1  A    between atoms: C_2  and  C_4
REMARK    2  A    between atoms: C_7  and  O_8
REMARK    3  A    between atoms: O_8  and  C_9
REMARK    4  A    between atoms: C_9  and  C_10
REMARK    5  A    between atoms: C_10  and  C_13
REMARK    6  A    between atoms: C_18  and  N_19
REMARK    7  A    between atoms: N_19  and  C_20
REMARK                            x       y       z     vdW  Elec       q    Type
REMARK                         _______ _______ _______ _____ _____    ______ ____
ROOT
ATOM      1  C   UNL     1      45.165   5.349  12.137  0.00  0.00    +0.000 C 
ATOM      2  F   UNL     1      44.861   4.992  13.423  0.00  0.00    +0.000 F 
ATOM      3  F   UNL     1      46.325   4.684  11.850  0.00  0.00    +0.000 F 
ENDROOT
BRANCH   1   4
ATOM      4  C   UNL     1      45.339   6.848  12.015  0.00  0.00    +0.000 A 
ATOM      5  C   UNL     1      44.262   7.681  11.690  0.00  0.00    +0.000 A 
ATOM      6  C   UNL     1      44.468   9.050  11.554  0.00  0.00    +0.000 A 
ATOM      7  F   UNL     1      43.427   9.842  11.260  0.00  0.00    +0.000 F 
ATOM      8  C   UNL     1      45.724   9.612  11.740  0.00  0.00    +0.000 A 
ATOM      9  C   UNL     1      46.815   8.805  12.075  0.00  0.00    +0.000 A 
ATOM     10  C   UNL     1      46.609   7.426  12.211  0.00  0.00    +0.000 A 
BRANCH   9  11
ATOM     11  N   UNL     1      48.047   9.417  12.378  0.00  0.00    +0.000 N 
ATOM     12  H   UNL     1      48.693   9.385  11.590  0.00  0.00    +0.000 HD
BRANCH  11  13
ATOM     13  C   UNL     1      48.655   9.532  13.669  0.00  0.00    +0.000 C 
ATOM     14  C   UNL     1      49.747   8.466  13.891  0.00  0.00    +0.000 C 
ATOM     15  C   UNL     1      49.074   8.090  15.221  0.00  0.00    +0.000 C 
ATOM     16  F   UNL     1      48.907   6.764  15.434  0.00  0.00    +0.000 F 
ATOM     17  F   UNL     1      49.670   8.586  16.330  0.00  0.00    +0.000 F 
ATOM     18  C   UNL     1      47.813   8.845  14.760  0.00  0.00    +0.000 C 
ENDBRANCH  11  13
ENDBRANCH   9  11
ENDBRANCH   1   4
BRANCH   1  19
ATOM     19  C   UNL     1      44.056   4.809  11.218  0.00  0.00    +0.000 C 
BRANCH  19  20
ATOM     20  O   UNL     1      44.389   5.146   9.860  0.00  0.00    +0.000 OA
BRANCH  20  24
ATOM     21  C   UNL     1      46.368   2.145   7.984  0.00  0.00    +0.000 A 
ATOM     22  C   UNL     1      46.587   3.467   7.607  0.00  0.00    +0.000 A 
ATOM     23  N   UNL     1      45.953   4.518   8.194  0.00  0.00    +0.000 NA
ATOM     24  C   UNL     1      45.091   4.182   9.182  0.00  0.00    +0.000 A 
ATOM     25  C   UNL     1      44.869   2.857   9.557  0.00  0.00    +0.000 A 
ATOM     26  N   UNL     1      45.495   1.804   8.974  0.00  0.00    +0.000 NA
BRANCH  21  28
ATOM     27  N   UNL     1      46.800  -0.226   7.715  0.00  0.00    +0.000 N 
ATOM     28  C   UNL     1      47.101   1.045   7.303  0.00  0.00    +0.000 C 
ATOM     29  O   UNL     1      47.921   1.258   6.419  0.00  0.00    +0.000 OA
ATOM     30  H   UNL     1      47.248  -1.013   7.270  0.00  0.00    +0.000 HD
ATOM     31  H   UNL     1      46.083  -0.379   8.419  0.00  0.00    +0.000 HD
ENDBRANCH  21  28
ENDBRANCH  20  24
ENDBRANCH  19  20
ENDBRANCH   1  19
TORSDOF 7
ENDMDL
MODEL 9
REMARK VINA RESULT:    -6.530      3.928      8.811
REMARK INTER + INTRA:         -10.203
REMARK INTER:                  -9.298
REMARK INTRA:                  -0.905
REMARK UNBOUND:                -1.001
REMARK  Name = 
REMARK  7 active torsions:
REMARK  status: ('A' for Active; 'I' for Inactive)
REMARK    1  A    between atoms: C_2  and  C_4
REMARK    2  A    between atoms: C_7  and  O_8
REMARK    3  A    between atoms: O_8  and  C_9
REMARK    4  A    between atoms: C_9  and  C_10
REMARK    5  A    between atoms: C_10  and  C_13
REMARK    6  A    between atoms: C_18  and  N_19
REMARK    7  A    between atoms: N_19  and  C_20
REMARK                            x       y       z     vdW  Elec       q    Type
REMARK                         _______ _______ _______ _____ _____    ______ ____
ROOT
ATOM      1  C   UNL     1      48.682   7.749  13.015  0.00  0.00    +0.000 C 
ATOM      2  F   UNL     1      49.178   8.979  12.674  0.00  0.00    +0.000 F 
ATOM      3  F   UNL     1      49.553   6.850  12.464  0.00  0.00    +0.000 F 
ENDROOT
BRANCH   1   4
ATOM      4  C   UNL     1      47.278   7.560  12.483  0.00  0.00    +0.000 A 
ATOM      5  C   UNL     1      46.409   8.646  12.322  0.00  0.00    +0.000 A 
ATOM      6  C   UNL     1      45.114   8.429  11.861  0.00  0.00    +0.000 A 
ATOM      7  F   UNL     1      44.295   9.476  11.693  0.00  0.00    +0.000 F 
ATOM      8  C   UNL     1      44.665   7.152  11.550  0.00  0.00    +0.000 A 
ATOM      9  C   UNL     1      45.515   6.052  11.691  0.00  0.00    +0.000 A 
ATOM     10  C   UNL     1      46.818   6.269  12.156  0.00  0.00    +0.000 A 
BRANCH   9  11
ATOM     11  N   UNL     1      45.072   4.789  11.251  0.00  0.00    +0.000 N 
ATOM     12  H   UNL     1      45.539   4.028  11.744  0.00  0.00    +0.000 HD
BRANCH  11  13
ATOM     13  C   UNL     1      44.560   4.461   9.956  0.00  0.00    +0.000 C 
ATOM     14  C   UNL     1      44.615   2.945   9.678  0.00  0.00    +0.000 C 
ATOM     15  C   UNL     1      45.325   3.241   8.346  0.00  0.00    +0.000 C 
ATOM     16  F   UNL     1      46.417   2.485   8.089  0.00  0.00    +0.000 F 
ATOM     17  F   UNL     1      44.539   3.171   7.247  0.00  0.00    +0.000 F 
ATOM     18  C   UNL     1      45.616   4.666   8.855  0.00  0.00    +0.000 C 
ENDBRANCH  11  13
ENDBRANCH   9  11
ENDBRANCH   1   4
BRANCH   1  19
ATOM     19  C   UNL     1      48.753   7.616  14.546  0.00  0.00    +0.000 C 
BRANCH  19  20
ATOM     20  O   UNL     1      49.189   6.284  14.866  0.00  0.00    +0.000 OA
BRANCH  20  24
ATOM     21  C   UNL     1      48.976   5.538  18.845  0.00  0.00    +0.000 A 
ATOM     22  C   UNL     1      49.713   4.697  18.018  0.00  0.00    +0.000 A 
ATOM     23  N   UNL     1      49.822   4.890  16.675  0.00  0.00    +0.000 NA
ATOM     24  C   UNL     1      49.159   5.971  16.201  0.00  0.00    +0.000 A 
ATOM     25  C   UNL     1      48.418   6.812  17.030  0.00  0.00    +0.000 A 
ATOM     26  N   UNL     1      48.302   6.623  18.368  0.00  0.00    +0.000 NA
BRANCH  21  28
ATOM     27  N   UNL     1      48.504   4.013  20.670  0.00  0.00    +0.000 N 
ATOM     28  C   UNL     1      48.906   5.271  20.307  0.00  0.00    +0.000 C 
ATOM     29  O   UNL     1      49.197   6.120  21.139  0.00  0.00    +0.000 OA
ATOM     30  H   UNL     1      48.463   3.766  21.648  0.00  0.00    +0.000 HD
ATOM     31  H   UNL     1      48.311   3.312  19.960  0.00  0.00    +0.000 HD
ENDBRANCH  21  28
ENDBRANCH  20  24
ENDBRANCH  19  20
ENDBRANCH   1  19
TORSDOF 7
ENDMDL
