MODEL 1
REMARK VINA RESULT:    -8.491      0.000      0.000
REMARK INTER + INTRA:         -11.826
REMARK INTER:                 -11.222
REMARK INTRA:                  -0.605
REMARK UNBOUND:                -0.605
REMARK  Name = 
REMARK  7 active torsions:
REMARK  status: ('A' for Active; 'I' for Inactive)
REMARK    1  A    between atoms: C_1  and  C_2
REMARK    2  A    between atoms: C_2  and  C_3
REMARK    3  A    between atoms: C_7  and  C_8
REMARK    4  A    between atoms: C_8  and  C_9
REMARK    5  A    between atoms: C_9  and  N_10
REMARK    6  A    between atoms: C_14  and  C_15
REMARK    7  A    between atoms: C_15  and  O_17
REMARK                            x       y       z     vdW  Elec       q    Type
REMARK                         _______ _______ _______ _____ _____    ______ ____
ROOT
ATOM      1  C   UNL     1      43.267   5.245  12.304  0.00  0.00    +0.000 C 
ENDROOT
BRANCH   1   6
ATOM      2  C   UNL     1      46.784   6.649  12.907  0.00  0.00    +0.000 A 
ATOM      3  C   UNL     1      47.397   5.520  13.485  0.00  0.00    +0.000 A 
ATOM      4  C   UNL     1      46.709   4.317  13.644  0.00  0.00    +0.000 A 
ATOM      5  C   UNL     1      45.381   4.211  13.238  0.00  0.00    +0.000 A 
ATOM      6  C   UNL     1      44.742   5.305  12.647  0.00  0.00    +0.000 A 
ATOM      7  C   UNL     1      45.456   6.505  12.468  0.00  0.00    +0.000 A 
BRANCH   2   9
ATOM      8  C   UNL     1      46.512   9.121  12.675  0.00  0.00    +0.000 C 
ATOM      9  C   UNL     1      47.540   7.989  12.869  0.00  0.00    +0.000 C 
ATOM     10  C   UNL     1      48.385   8.191  14.132  0.00  0.00    +0.000 C 
ATOM     11  C   UNL     1      49.777   7.705  13.752  0.00  0.00    +0.000 C 
ATOM     12  O   UNL     1      49.806   7.508  12.335  0.00  0.00    +0.000 OA
ATOM     13  C   UNL     1      48.633   8.128  11.797  0.00  0.00    +0.000 C 
ENDBRANCH   2   9
ENDBRANCH   1   6
BRANCH   1  14
ATOM     14  C   UNL     1      43.047   4.414  11.034  0.00  0.00    +0.000 C 
BRANCH  14  15
ATOM     15  N   UNL     1      43.784   4.967   9.888  0.00  0.00    +0.000 N 
ATOM     16  C   UNL     1      44.595   3.998   9.256  0.00  0.00    +0.000 A 
ATOM     17  C   UNL     1      45.363   4.372   8.154  0.00  0.00    +0.000 A 
ATOM     18  C   UNL     1      46.166   3.421   7.509  0.00  0.00    +0.000 A 
ATOM     19  C   UNL     1      46.176   2.111   7.983  0.00  0.00    +0.000 A 
ATOM     20  C   UNL     1      45.387   1.820   9.082  0.00  0.00    +0.000 A 
ATOM     21  N   UNL     1      44.600   2.727   9.705  0.00  0.00    +0.000 NA
ATOM     22  H   UNL     1      44.366   5.755  10.153  0.00  0.00    +0.000 HD
BRANCH  19  23
ATOM     23  C   UNL     1      47.004   1.022   7.428  0.00  0.00    +0.000 C 
ATOM     24  O   UNL     1      47.881   1.222   6.605  0.00  0.00    +0.000 OA
BRANCH  23  25
ATOM     25  O   UNL     1      46.732  -0.200   7.929  0.00  0.00    +0.000 OA
ATOM     26  H   UNL     1      46.646  -0.251   8.897  0.00  0.00    +0.000 HD
ENDBRANCH  23  25
ENDBRANCH  19  23
ENDBRANCH  14  15
ENDBRANCH   1  14
TORSDOF 6
ENDMDL
MODEL 2
REMARK VINA RESULT:    -7.732      1.125      1.915
REMARK INTER + INTRA:         -10.822
REMARK INTER:                 -10.481
REMARK INTRA:                  -0.342
REMARK UNBOUND:                -0.605
REMARK  Name = 
REMARK  7 active torsions:
REMARK  status: ('A' for Active; 'I' for Inactive)
REMARK    1  A    between atoms: C_1  and  C_2
REMARK    2  A    between atoms: C_2  and  C_3
REMARK    3  A    between atoms: C_7  and  C_8
REMARK    4  A    between atoms: C_8  and  C_9
REMARK    5  A    between atoms: C_9  and  N_10
REMARK    6  A    between atoms: C_14  and  C_15
REMARK    7  A    between atoms: C_15  and  O_17
REMARK                            x       y       z     vdW  Elec       q    Type
REMARK                         _______ _______ _______ _____ _____    ______ ____
ROOT
ATOM      1  C   UNL     1      43.986   4.683  12.376  0.00  0.00    +0.000 C 
ENDROOT
BRANCH   1   6
ATOM      2  C   UNL     1      46.545   7.535  12.492  0.00  0.00    +0.000 A 
ATOM      3  C   UNL     1      45.791   8.560  11.887  0.00  0.00    +0.000 A 
ATOM      4  C   UNL     1      44.470   8.353  11.484  0.00  0.00    +0.000 A 
ATOM      5  C   UNL     1      43.870   7.110  11.665  0.00  0.00    +0.000 A 
ATOM      6  C   UNL     1      44.582   6.072  12.274  0.00  0.00    +0.000 A 
ATOM      7  C   UNL     1      45.903   6.302  12.700  0.00  0.00    +0.000 A 
BRANCH   2   9
ATOM      8  C   UNL     1      48.823   7.694  11.480  0.00  0.00    +0.000 C 
ATOM      9  C   UNL     1      48.035   7.770  12.802  0.00  0.00    +0.000 C 
ATOM     10  C   UNL     1      48.253   9.103  13.525  0.00  0.00    +0.000 C 
ATOM     11  C   UNL     1      48.280   8.745  15.005  0.00  0.00    +0.000 C 
ATOM     12  O   UNL     1      48.355   7.320  15.114  0.00  0.00    +0.000 OA
ATOM     13  C   UNL     1      48.680   6.812  13.816  0.00  0.00    +0.000 C 
ENDBRANCH   2   9
ENDBRANCH   1   6
BRANCH   1  14
ATOM     14  C   UNL     1      43.327   4.286  11.049  0.00  0.00    +0.000 C 
BRANCH  14  15
ATOM     15  N   UNL     1      44.032   4.867   9.896  0.00  0.00    +0.000 N 
ATOM     16  C   UNL     1      44.815   3.911   9.211  0.00  0.00    +0.000 A 
ATOM     17  C   UNL     1      45.550   4.312   8.096  0.00  0.00    +0.000 A 
ATOM     18  C   UNL     1      46.325   3.375   7.398  0.00  0.00    +0.000 A 
ATOM     19  C   UNL     1      46.340   2.051   7.834  0.00  0.00    +0.000 A 
ATOM     20  C   UNL     1      45.584   1.734   8.949  0.00  0.00    +0.000 A 
ATOM     21  N   UNL     1      44.824   2.627   9.622  0.00  0.00    +0.000 NA
ATOM     22  H   UNL     1      44.627   5.642  10.166  0.00  0.00    +0.000 HD
BRANCH  19  23
ATOM     23  C   UNL     1      47.142   0.973   7.222  0.00  0.00    +0.000 C 
ATOM     24  O   UNL     1      47.976   1.188   6.359  0.00  0.00    +0.000 OA
BRANCH  23  25
ATOM     25  O   UNL     1      46.898  -0.257   7.717  0.00  0.00    +0.000 OA
ATOM     26  H   UNL     1      47.656  -0.705   8.130  0.00  0.00    +0.000 HD
ENDBRANCH  23  25
ENDBRANCH  19  23
ENDBRANCH  14  15
ENDBRANCH   1  14
TORSDOF 6
ENDMDL
MODEL 3
REMARK VINA RESULT:    -6.681      3.922      7.337
REMARK INTER + INTRA:          -9.433
REMARK INTER:                  -8.442
REMARK INTRA:                  -0.991
REMARK UNBOUND:                -0.605
REMARK  Name = 
REMARK  7 active torsions:
REMARK  status: ('A' for Active; 'I' for Inactive)
REMARK    1  A    between atoms: C_1  and  C_2
REMARK    2  A    between atoms: C_2  and  C_3
REMARK    3  A    between atoms: C_7  and  C_8
REMARK    4  A    between atoms: C_8  and  C_9
REMARK    5  A    between atoms: C_9  and  N_10
REMARK    6  A    between atoms: C_14  and  C_15
REMARK    7  A    between atoms: C_15  and  O_17
REMARK                            x       y       z     vdW  Elec       q    Type
REMARK                         _______ _______ _______ _____ _____    ______ ____
ROOT
ATOM      1  C   UNL     1      48.540   8.789  12.672  0.00  0.00    +0.000 C 
ENDROOT
BRANCH   1   6
ATOM      2  C   UNL     1      45.408   6.969  11.415  0.00  0.00    +0.000 A 
ATOM      3  C   UNL     1      44.487   8.035  11.434  0.00  0.00    +0.000 A 
ATOM      4  C   UNL     1      44.870   9.324  11.806  0.00  0.00    +0.000 A 
ATOM      5  C   UNL     1      46.186   9.582  12.180  0.00  0.00    +0.000 A 
ATOM      6  C   UNL     1      47.133   8.553  12.160  0.00  0.00    +0.000 A 
ATOM      7  C   UNL     1      46.740   7.264  11.757  0.00  0.00    +0.000 A 
BRANCH   2   9
ATOM      8  C   UNL     1      45.477   5.101   9.758  0.00  0.00    +0.000 C 
ATOM      9  C   UNL     1      44.913   5.541  11.123  0.00  0.00    +0.000 C 
ATOM     10  C   UNL     1      45.304   4.572  12.245  0.00  0.00    +0.000 C 
ATOM     11  C   UNL     1      44.085   4.519  13.156  0.00  0.00    +0.000 C 
ATOM     12  O   UNL     1      42.999   5.165  12.483  0.00  0.00    +0.000 OA
ATOM     13  C   UNL     1      43.389   5.334  11.116  0.00  0.00    +0.000 C 
ENDBRANCH   2   9
ENDBRANCH   1   6
BRANCH   1  14
ATOM     14  C   UNL     1      49.216   7.455  13.013  0.00  0.00    +0.000 C 
BRANCH  14  15
ATOM     15  N   UNL     1      49.819   7.478  14.354  0.00  0.00    +0.000 N 
ATOM     16  C   UNL     1      49.232   6.530  15.221  0.00  0.00    +0.000 A 
ATOM     17  C   UNL     1      49.693   6.435  16.533  0.00  0.00    +0.000 A 
ATOM     18  C   UNL     1      49.129   5.493  17.404  0.00  0.00    +0.000 A 
ATOM     19  C   UNL     1      48.114   4.661  16.935  0.00  0.00    +0.000 A 
ATOM     20  C   UNL     1      47.711   4.818  15.621  0.00  0.00    +0.000 A 
ATOM     21  N   UNL     1      48.257   5.716  14.768  0.00  0.00    +0.000 NA
ATOM     22  H   UNL     1      49.756   8.395  14.784  0.00  0.00    +0.000 HD
BRANCH  19  23
ATOM     23  C   UNL     1      47.403   3.657  17.752  0.00  0.00    +0.000 C 
ATOM     24  O   UNL     1      46.445   3.032  17.332  0.00  0.00    +0.000 OA
BRANCH  23  25
ATOM     25  O   UNL     1      47.920   3.468  18.983  0.00  0.00    +0.000 OA
ATOM     26  H   UNL     1      48.433   2.651  19.106  0.00  0.00    +0.000 HD
ENDBRANCH  23  25
ENDBRANCH  19  23
ENDBRANCH  14  15
ENDBRANCH   1  14
TORSDOF 6
ENDMDL
MODEL 4
REMARK VINA RESULT:    -6.648      2.498      3.426
REMARK INTER + INTRA:          -9.391
REMARK INTER:                  -9.023
REMARK INTRA:                  -0.368
REMARK UNBOUND:                -0.605
REMARK  Name = 
REMARK  7 active torsions:
REMARK  status: ('A' for Active; 'I' for Inactive)
REMARK    1  A    between atoms: C_1  and  C_2
REMARK    2  A    between atoms: C_2  and  C_3
REMARK    3  A    between atoms: C_7  and  C_8
REMARK    4  A    between atoms: C_8  and  C_9
REMARK    5  A    between atoms: C_9  and  N_10
REMARK    6  A    between atoms: C_14  and  C_15
REMARK    7  A    between atoms: C_15  and  O_17
REMARK                            x       y       z     vdW  Elec       q    Type
REMARK                         _______ _______ _______ _____ _____    ______ ____
ROOT
ATOM      1  C   UNL     1      43.929   5.183  12.153  0.00  0.00    +0.000 C 
ENDROOT
BRANCH   1   6
ATOM      2  C   UNL     1      44.465   8.910  11.430  0.00  0.00    +0.000 A 
ATOM      3  C   UNL     1      45.735   9.088  12.013  0.00  0.00    +0.000 A 
ATOM      4  C   UNL     1      46.427   8.023  12.593  0.00  0.00    +0.000 A 
ATOM      5  C   UNL     1      45.862   6.751  12.616  0.00  0.00    +0.000 A 
ATOM      6  C   UNL     1      44.609   6.532  12.036  0.00  0.00    +0.000 A 
ATOM      7  C   UNL     1      43.934   7.608  11.431  0.00  0.00    +0.000 A 
BRANCH   2   9
ATOM      8  C   UNL     1      42.409  10.287  11.767  0.00  0.00    +0.000 C 
ATOM      9  C   UNL     1      43.686  10.135  10.918  0.00  0.00    +0.000 C 
ATOM     10  C   UNL     1      44.550  11.401  10.948  0.00  0.00    +0.000 C 
ATOM     11  C   UNL     1      45.122  11.516   9.542  0.00  0.00    +0.000 C 
ATOM     12  O   UNL     1      44.437  10.577   8.706  0.00  0.00    +0.000 OA
ATOM     13  C   UNL     1      43.291  10.121   9.433  0.00  0.00    +0.000 C 
ENDBRANCH   2   9
ENDBRANCH   1   6
BRANCH   1  14
ATOM     14  C   UNL     1      43.403   4.729  10.785  0.00  0.00    +0.000 C 
BRANCH  14  15
ATOM     15  N   UNL     1      44.259   5.204   9.688  0.00  0.00    +0.000 N 
ATOM     16  C   UNL     1      44.973   4.152   9.072  0.00  0.00    +0.000 A 
ATOM     17  C   UNL     1      45.835   4.446   8.016  0.00  0.00    +0.000 A 
ATOM     18  C   UNL     1      46.544   3.413   7.387  0.00  0.00    +0.000 A 
ATOM     19  C   UNL     1      46.367   2.104   7.831  0.00  0.00    +0.000 A 
ATOM     20  C   UNL     1      45.496   1.896   8.885  0.00  0.00    +0.000 A 
ATOM     21  N   UNL     1      44.797   2.883   9.491  0.00  0.00    +0.000 NA
ATOM     22  H   UNL     1      44.921   5.908   9.999  0.00  0.00    +0.000 HD
BRANCH  19  23
ATOM     23  C   UNL     1      47.080   0.928   7.290  0.00  0.00    +0.000 C 
ATOM     24  O   UNL     1      47.900   1.017   6.393  0.00  0.00    +0.000 OA
BRANCH  23  25
ATOM     25  O   UNL     1      46.772  -0.239   7.891  0.00  0.00    +0.000 OA
ATOM     26  H   UNL     1      46.747  -1.019   7.310  0.00  0.00    +0.000 HD
ENDBRANCH  23  25
ENDBRANCH  19  23
ENDBRANCH  14  15
ENDBRANCH   1  14
TORSDOF 6
ENDMDL
MODEL 5
REMARK VINA RESULT:    -6.647      4.854      6.303
REMARK INTER + INTRA:          -9.389
REMARK INTER:                  -8.800
REMARK INTRA:                  -0.588
REMARK UNBOUND:                -0.605
REMARK  Name = 
REMARK  7 active torsions:
REMARK  status: ('A' for Active; 'I' for Inactive)
REMARK    1  A    between atoms: C_1  and  C_2
REMARK    2  A    between atoms: C_2  and  C_3
REMARK    3  A    between atoms: C_7  and  C_8
REMARK    4  A    between atoms: C_8  and  C_9
REMARK    5  A    between atoms: C_9  and  N_10
REMARK    6  A    between atoms: C_14  and  C_15
REMARK    7  A    between atoms: C_15  and  O_17
REMARK                            x       y       z     vdW  Elec       q    Type
REMARK                         _______ _______ _______ _____ _____    ______ ____
ROOT
ATOM      1  C   UNL     1      47.752   4.412  16.960  0.00  0.00    +0.000 C 
ENDROOT
BRANCH   1   6
ATOM      2  C   UNL     1      51.432   3.897  17.904  0.00  0.00    +0.000 A 
ATOM      3  C   UNL     1      51.559   2.520  17.636  0.00  0.00    +0.000 A 
ATOM      4  C   UNL     1      50.495   1.775  17.123  0.00  0.00    +0.000 A 
ATOM      5  C   UNL     1      49.269   2.386  16.875  0.00  0.00    +0.000 A 
ATOM      6  C   UNL     1      49.109   3.755  17.116  0.00  0.00    +0.000 A 
ATOM      7  C   UNL     1      50.197   4.499  17.607  0.00  0.00    +0.000 A 
BRANCH   2   9
ATOM      8  C   UNL     1      52.245   4.816  20.080  0.00  0.00    +0.000 C 
ATOM      9  C   UNL     1      52.590   4.647  18.588  0.00  0.00    +0.000 C 
ATOM     10  C   UNL     1      53.925   3.922  18.385  0.00  0.00    +0.000 C 
ATOM     11  C   UNL     1      54.557   4.599  17.177  0.00  0.00    +0.000 C 
ATOM     12  O   UNL     1      53.802   5.779  16.884  0.00  0.00    +0.000 OA
ATOM     13  C   UNL     1      52.948   6.025  18.006  0.00  0.00    +0.000 C 
ENDBRANCH   2   9
ENDBRANCH   1   6
BRANCH   1  14
ATOM     14  C   UNL     1      47.120   4.021  15.618  0.00  0.00    +0.000 C 
BRANCH  14  15
ATOM     15  N   UNL     1      46.884   5.195  14.765  0.00  0.00    +0.000 N 
ATOM     16  C   UNL     1      46.200   4.863  13.575  0.00  0.00    +0.000 A 
ATOM     17  C   UNL     1      45.909   5.871  12.657  0.00  0.00    +0.000 A 
ATOM     18  C   UNL     1      45.223   5.561  11.474  0.00  0.00    +0.000 A 
ATOM     19  C   UNL     1      44.839   4.242  11.242  0.00  0.00    +0.000 A 
ATOM     20  C   UNL     1      45.167   3.299  12.201  0.00  0.00    +0.000 A 
ATOM     21  N   UNL     1      45.818   3.590  13.350  0.00  0.00    +0.000 NA
ATOM     22  H   UNL     1      47.748   5.669  14.523  0.00  0.00    +0.000 HD
BRANCH  19  23
ATOM     23  C   UNL     1      44.151   3.768  10.024  0.00  0.00    +0.000 C 
ATOM     24  O   UNL     1      44.053   2.584   9.748  0.00  0.00    +0.000 OA
BRANCH  23  25
ATOM     25  O   UNL     1      43.616   4.745   9.265  0.00  0.00    +0.000 OA
ATOM     26  H   UNL     1      44.167   5.539   9.148  0.00  0.00    +0.000 HD
ENDBRANCH  23  25
ENDBRANCH  19  23
ENDBRANCH  14  15
ENDBRANCH   1  14
TORSDOF 6
ENDMDL
MODEL 6
REMARK VINA RESULT:    -6.617      3.480      5.558
REMARK INTER + INTRA:          -9.349
REMARK INTER:                  -8.338
REMARK INTRA:                  -1.011
REMARK UNBOUND:                -0.605
REMARK  Name = 
REMARK  7 active torsions:
REMARK  status: ('A' for Active; 'I' for Inactive)
REMARK    1  A    between atoms: C_1  and  C_2
REMARK    2  A    between atoms: C_2  and  C_3
REMARK    3  A    between atoms: C_7  and  C_8
REMARK    4  A    between atoms: C_8  and  C_9
REMARK    5  A    between atoms: C_9  and  N_10
REMARK    6  A    between atoms: C_14  and  C_15
REMARK    7  A    between atoms: C_15  and  O_17
REMARK                            x       y       z     vdW  Elec       q    Type
REMARK                         _______ _______ _______ _____ _____    ______ ____
ROOT
ATOM      1  C   UNL     1      49.019   8.068  13.517  0.00  0.00    +0.000 C 
ENDROOT
BRANCH   1   6
ATOM      2  C   UNL     1      49.196   5.814  16.614  0.00  0.00    +0.000 A 
ATOM      3  C   UNL     1      50.550   5.989  16.961  0.00  0.00    +0.000 A 
ATOM      4  C   UNL     1      51.384   6.844  16.240  0.00  0.00    +0.000 A 
ATOM      5  C   UNL     1      50.889   7.543  15.142  0.00  0.00    +0.000 A 
ATOM      6  C   UNL     1      49.546   7.406  14.774  0.00  0.00    +0.000 A 
ATOM      7  C   UNL     1      48.710   6.561  15.527  0.00  0.00    +0.000 A 
BRANCH   2   9
ATOM      8  C   UNL     1      47.700   5.442  18.579  0.00  0.00    +0.000 C 
ATOM      9  C   UNL     1      48.350   4.765  17.357  0.00  0.00    +0.000 C 
ATOM     10  C   UNL     1      47.307   4.129  16.432  0.00  0.00    +0.000 C 
ATOM     11  C   UNL     1      47.961   2.849  15.928  0.00  0.00    +0.000 C 
ATOM     12  O   UNL     1      49.144   2.622  16.701  0.00  0.00    +0.000 OA
ATOM     13  C   UNL     1      49.088   3.501  17.829  0.00  0.00    +0.000 C 
ENDBRANCH   2   9
ENDBRANCH   1   6
BRANCH   1  14
ATOM     14  C   UNL     1      47.494   7.926  13.437  0.00  0.00    +0.000 C 
BRANCH  14  15
ATOM     15  N   UNL     1      47.046   7.633  12.068  0.00  0.00    +0.000 N 
ATOM     16  C   UNL     1      46.252   6.467  12.003  0.00  0.00    +0.000 A 
ATOM     17  C   UNL     1      45.756   6.053  10.768  0.00  0.00    +0.000 A 
ATOM     18  C   UNL     1      44.958   4.903  10.686  0.00  0.00    +0.000 A 
ATOM     19  C   UNL     1      44.672   4.195  11.852  0.00  0.00    +0.000 A 
ATOM     20  C   UNL     1      45.204   4.669  13.038  0.00  0.00    +0.000 A 
ATOM     21  N   UNL     1      45.964   5.784  13.130  0.00  0.00    +0.000 NA
ATOM     22  H   UNL     1      47.825   7.533  11.425  0.00  0.00    +0.000 HD
BRANCH  19  23
ATOM     23  C   UNL     1      43.884   2.947  11.907  0.00  0.00    +0.000 C 
ATOM     24  O   UNL     1      43.387   2.533  12.940  0.00  0.00    +0.000 OA
BRANCH  23  25
ATOM     25  O   UNL     1      43.735   2.325  10.720  0.00  0.00    +0.000 OA
ATOM     26  H   UNL     1      44.506   1.824  10.405  0.00  0.00    +0.000 HD
ENDBRANCH  23  25
ENDBRANCH  19  23
ENDBRANCH  14  15
ENDBRANCH   1  14
TORSDOF 6
ENDMDL
MODEL 7
REMARK VINA RESULT:    -6.301      4.491      8.036
REMARK INTER + INTRA:          -8.931
REMARK INTER:                  -8.186
REMARK INTRA:                  -0.746
REMARK UNBOUND:                -0.605
REMARK  Name = 
REMARK  7 active torsions:
REMARK  status: ('A' for Active; 'I' for Inactive)
REMARK    1  A    between atoms: C_1  and  C_2
REMARK    2  A    between atoms: C_2  and  C_3
REMARK    3  A    between atoms: C_7  and  C_8
REMARK    4  A    between atoms: C_8  and  C_9
REMARK    5  A    between atoms: C_9  and  N_10
REMARK    6  A    between atoms: C_14  and  C_15
REMARK    7  A    between atoms: C_15  and  O_17
REMARK                            x       y       z     vdW  Elec       q    Type
REMARK                         _______ _______ _______ _____ _____    ______ ____
ROOT
ATOM      1  C   UNL     1      48.765   7.339  13.197  0.00  0.00    +0.000 C 
ENDROOT
BRANCH   1   6
ATOM      2  C   UNL     1      45.478   6.320  11.506  0.00  0.00    +0.000 A 
ATOM      3  C   UNL     1      44.760   7.526  11.630  0.00  0.00    +0.000 A 
ATOM      4  C   UNL     1      45.333   8.660  12.210  0.00  0.00    +0.000 A 
ATOM      5  C   UNL     1      46.638   8.615  12.693  0.00  0.00    +0.000 A 
ATOM      6  C   UNL     1      47.387   7.440  12.575  0.00  0.00    +0.000 A 
ATOM      7  C   UNL     1      46.807   6.313  11.964  0.00  0.00    +0.000 A 
BRANCH   2   9
ATOM      8  C   UNL     1      45.307   4.752   9.569  0.00  0.00    +0.000 C 
ATOM      9  C   UNL     1      44.765   5.063  10.978  0.00  0.00    +0.000 C 
ATOM     10  C   UNL     1      44.939   3.877  11.934  0.00  0.00    +0.000 C 
ATOM     11  C   UNL     1      43.690   3.891  12.804  0.00  0.00    +0.000 C 
ATOM     12  O   UNL     1      42.757   4.811  12.227  0.00  0.00    +0.000 OA
ATOM     13  C   UNL     1      43.230   5.124  10.913  0.00  0.00    +0.000 C 
ENDBRANCH   2   9
ENDBRANCH   1   6
BRANCH   1  14
ATOM     14  C   UNL     1      48.697   7.632  14.701  0.00  0.00    +0.000 C 
BRANCH  14  15
ATOM     15  N   UNL     1      48.086   6.521  15.444  0.00  0.00    +0.000 N 
ATOM     16  C   UNL     1      49.026   5.826  16.238  0.00  0.00    +0.000 A 
ATOM     17  C   UNL     1      48.599   4.740  16.999  0.00  0.00    +0.000 A 
ATOM     18  C   UNL     1      49.517   4.045  17.799  0.00  0.00    +0.000 A 
ATOM     19  C   UNL     1      50.846   4.462  17.821  0.00  0.00    +0.000 A 
ATOM     20  C   UNL     1      51.191   5.549  17.036  0.00  0.00    +0.000 A 
ATOM     21  N   UNL     1      50.311   6.233  16.270  0.00  0.00    +0.000 NA
ATOM     22  H   UNL     1      47.626   5.857  14.829  0.00  0.00    +0.000 HD
BRANCH  19  23
ATOM     23  C   UNL     1      51.924   3.800  18.582  0.00  0.00    +0.000 C 
ATOM     24  O   UNL     1      52.672   4.412  19.325  0.00  0.00    +0.000 OA
BRANCH  23  25
ATOM     25  O   UNL     1      51.992   2.464  18.411  0.00  0.00    +0.000 OA
ATOM     26  H   UNL     1      51.952   2.153  17.491  0.00  0.00    +0.000 HD
ENDBRANCH  23  25
ENDBRANCH  19  23
ENDBRANCH  14  15
ENDBRANCH   1  14
TORSDOF 6
ENDMDL
MODEL 8
REMARK VINA RESULT:    -5.963      3.769      5.711
REMARK INTER + INTRA:          -8.485
REMARK INTER:                  -7.712
REMARK INTRA:                  -0.773
REMARK UNBOUND:                -0.605
REMARK  Name = 
REMARK  7 active torsions:
REMARK  status: ('A' for Active; 'I' for Inactive)
REMARK    1  A    between atoms: C_1  and  C_2
REMARK    2  A    between atoms: C_2  and  C_3
REMARK    3  A    between atoms: C_7  and  C_8
REMARK    4  A    between atoms: C_8  and  C_9
REMARK    5  A    between atoms: C_9  and  N_10
REMARK    6  A    between atoms: C_14  and  C_15
REMARK    7  A    between atoms: C_15  and  O_17
REMARK                            x       y       z     vdW  Elec       q    Type
REMARK                         _______ _______ _______ _____ _____    ______ ____
ROOT
ATOM      1  C   UNL     1      49.034   7.535  13.598  0.00  0.00    +0.000 C 
ENDROOT
BRANCH   1   6
ATOM      2  C   UNL     1      49.719   5.697  16.892  0.00  0.00    +0.000 A 
ATOM      3  C   UNL     1      50.978   6.241  17.213  0.00  0.00    +0.000 A 
ATOM      4  C   UNL     1      51.581   7.211  16.410  0.00  0.00    +0.000 A 
ATOM      5  C   UNL     1      50.945   7.655  15.254  0.00  0.00    +0.000 A 
ATOM      6  C   UNL     1      49.688   7.149  14.908  0.00  0.00    +0.000 A 
ATOM      7  C   UNL     1      49.080   6.192  15.742  0.00  0.00    +0.000 A 
BRANCH   2   9
ATOM      8  C   UNL     1      50.203   3.413  17.781  0.00  0.00    +0.000 C 
ATOM      9  C   UNL     1      49.154   4.540  17.736  0.00  0.00    +0.000 C 
ATOM     10  C   UNL     1      48.757   5.013  19.139  0.00  0.00    +0.000 C 
ATOM     11  C   UNL     1      47.267   5.313  19.043  0.00  0.00    +0.000 C 
ATOM     12  O   UNL     1      46.791   4.799  17.795  0.00  0.00    +0.000 OA
ATOM     13  C   UNL     1      47.814   3.947  17.270  0.00  0.00    +0.000 C 
ENDBRANCH   2   9
ENDBRANCH   1   6
BRANCH   1  14
ATOM     14  C   UNL     1      47.512   7.631  13.767  0.00  0.00    +0.000 C 
BRANCH  14  15
ATOM     15  N   UNL     1      46.823   7.683  12.469  0.00  0.00    +0.000 N 
ATOM     16  C   UNL     1      46.107   6.497  12.195  0.00  0.00    +0.000 A 
ATOM     17  C   UNL     1      45.405   6.391  10.996  0.00  0.00    +0.000 A 
ATOM     18  C   UNL     1      44.682   5.224  10.711  0.00  0.00    +0.000 A 
ATOM     19  C   UNL     1      44.676   4.188  11.644  0.00  0.00    +0.000 A 
ATOM     20  C   UNL     1      45.400   4.370  12.809  0.00  0.00    +0.000 A 
ATOM     21  N   UNL     1      46.090   5.496  13.099  0.00  0.00    +0.000 NA
ATOM     22  H   UNL     1      47.465   7.860  11.704  0.00  0.00    +0.000 HD
BRANCH  19  23
ATOM     23  C   UNL     1      43.995   2.891  11.457  0.00  0.00    +0.000 C 
ATOM     24  O   UNL     1      43.738   2.441  10.354  0.00  0.00    +0.000 OA
BRANCH  23  25
ATOM     25  O   UNL     1      43.711   2.237  12.601  0.00  0.00    +0.000 OA
ATOM     26  H   UNL     1      43.494   2.797  13.366  0.00  0.00    +0.000 HD
ENDBRANCH  23  25
ENDBRANCH  19  23
ENDBRANCH  14  15
ENDBRANCH   1  14
TORSDOF 6
ENDMDL
MODEL 9
REMARK VINA RESULT:    -5.776      4.831      8.621
REMARK INTER + INTRA:          -8.238
REMARK INTER:                  -7.604
REMARK INTRA:                  -0.634
REMARK UNBOUND:                -0.605
REMARK  Name = 
REMARK  7 active torsions:
REMARK  status: ('A' for Active; 'I' for Inactive)
REMARK    1  A    between atoms: C_1  and  C_2
REMARK    2  A    between atoms: C_2  and  C_3
REMARK    3  A    between atoms: C_7  and  C_8
REMARK    4  A    between atoms: C_8  and  C_9
REMARK    5  A    between atoms: C_9  and  N_10
REMARK    6  A    between atoms: C_14  and  C_15
REMARK    7  A    between atoms: C_15  and  O_17
REMARK                            x       y       z     vdW  Elec       q    Type
REMARK                         _______ _______ _______ _____ _____    ______ ____
ROOT
ATOM      1  C   UNL     1      48.200   6.438  14.492  0.00  0.00    +0.000 C 
ENDROOT
BRANCH   1   6
ATOM      2  C   UNL     1      45.106   5.830  12.310  0.00  0.00    +0.000 A 
ATOM      3  C   UNL     1      44.915   7.128  11.797  0.00  0.00    +0.000 A 
ATOM      4  C   UNL     1      45.785   8.173  12.113  0.00  0.00    +0.000 A 
ATOM      5  C   UNL     1      46.866   7.951  12.961  0.00  0.00    +0.000 A 
ATOM      6  C   UNL     1      47.098   6.672  13.479  0.00  0.00    +0.000 A 
ATOM      7  C   UNL     1      46.228   5.622  13.131  0.00  0.00    +0.000 A 
BRANCH   2   9
ATOM      8  C   UNL     1      42.986   4.811  13.149  0.00  0.00    +0.000 C 
ATOM      9  C   UNL     1      44.052   4.742  12.038  0.00  0.00    +0.000 C 
ATOM     10  C   UNL     1      43.437   4.894  10.642  0.00  0.00    +0.000 C 
ATOM     11  C   UNL     1      44.242   3.954   9.756  0.00  0.00    +0.000 C 
ATOM     12  O   UNL     1      45.051   3.131  10.603  0.00  0.00    +0.000 OA
ATOM     13  C   UNL     1      44.569   3.298  11.940  0.00  0.00    +0.000 C 
ENDBRANCH   2   9
ENDBRANCH   1   6
BRANCH   1  14
ATOM     14  C   UNL     1      47.903   5.184  15.324  0.00  0.00    +0.000 C 
BRANCH  14  15
ATOM     15  N   UNL     1      47.713   5.507  16.746  0.00  0.00    +0.000 N 
ATOM     16  C   UNL     1      48.860   5.220  17.518  0.00  0.00    +0.000 A 
ATOM     17  C   UNL     1      48.832   5.467  18.890  0.00  0.00    +0.000 A 
ATOM     18  C   UNL     1      49.965   5.196  19.671  0.00  0.00    +0.000 A 
ATOM     19  C   UNL     1      51.106   4.688  19.053  0.00  0.00    +0.000 A 
ATOM     20  C   UNL     1      51.053   4.469  17.687  0.00  0.00    +0.000 A 
ATOM     21  N   UNL     1      49.969   4.737  16.923  0.00  0.00    +0.000 NA
ATOM     22  H   UNL     1      46.920   5.015  17.145  0.00  0.00    +0.000 HD
BRANCH  19  23
ATOM     23  C   UNL     1      52.351   4.319  19.756  0.00  0.00    +0.000 C 
ATOM     24  O   UNL     1      52.869   5.042  20.590  0.00  0.00    +0.000 OA
BRANCH  23  25
ATOM     25  O   UNL     1      52.845   3.109  19.425  0.00  0.00    +0.000 OA
ATOM     26  H   UNL     1      53.727   2.901  19.778  0.00  0.00    +0.000 HD
ENDBRANCH  23  25
ENDBRANCH  19  23
ENDBRANCH  14  15
ENDBRANCH   1  14
TORSDOF 6
ENDMDL
