MODEL 1
REMARK VINA RESULT:    -7.550      0.000      0.000
REMARK INTER + INTRA:         -11.342
REMARK INTER:                 -10.419
REMARK INTRA:                  -0.923
REMARK UNBOUND:                -0.923
REMARK  Name = 
REMARK  8 active torsions:
REMARK  status: ('A' for Active; 'I' for Inactive)
REMARK    1  A    between atoms: C_1  and  O_2
REMARK    2  A    between atoms: O_2  and  C_3
REMARK    3  A    between atoms: C_7  and  N_8
REMARK    4  A    between atoms: N_8  and  C_9
REMARK    5  A    between atoms: C_9  and  C_10
REMARK    6  A    between atoms: C_15  and  C_16
REMARK    7  A    between atoms: C_20  and  C_21
REMARK    8  A    between atoms: C_21  and  O_22
REMARK                            x       y       z     vdW  Elec       q    Type
REMARK                         _______ _______ _______ _____ _____    ______ ____
ROOT
ATOM      1  C   UNL     1      44.886   5.289  11.448  0.00  0.00    +0.000 A 
ATOM      2  C   UNL     1      45.462   6.492  11.029  0.00  0.00    +0.000 A 
ATOM      3  C   UNL     1      46.534   7.032  11.734  0.00  0.00    +0.000 A 
ATOM      4  C   UNL     1      47.041   6.365  12.849  0.00  0.00    +0.000 A 
ATOM      5  F   UNL     1      48.087   6.926  13.477  0.00  0.00    +0.000 F 
ATOM      6  C   UNL     1      46.501   5.151  13.307  0.00  0.00    +0.000 A 
ATOM      7  C   UNL     1      45.414   4.630  12.576  0.00  0.00    +0.000 A 
ENDROOT
BRANCH   6   8
ATOM      8  C   UNL     1      47.019   4.448  14.504  0.00  0.00    +0.000 A 
ATOM      9  C   UNL     1      47.538   3.153  14.449  0.00  0.00    +0.000 A 
ATOM     10  N   UNL     1      48.049   2.468  15.504  0.00  0.00    +0.000 NA
ATOM     11  C   UNL     1      48.060   3.102  16.693  0.00  0.00    +0.000 A 
ATOM     12  C   UNL     1      47.598   4.397  16.885  0.00  0.00    +0.000 A 
ATOM     13  C   UNL     1      47.049   5.052  15.772  0.00  0.00    +0.000 A 
BRANCH  12  14
ATOM     14  C   UNL     1      47.634   5.023  18.247  0.00  0.00    +0.000 C 
BRANCH  14  15
ATOM     15  O   UNL     1      46.335   5.428  18.663  0.00  0.00    +0.000 OA
ATOM     16  H   UNL     1      45.757   5.367  17.883  0.00  0.00    +0.000 HD
ENDBRANCH  14  15
ENDBRANCH  12  14
ENDBRANCH   6   8
BRANCH   1  17
ATOM     17  C   UNL     1      43.728   4.688  10.686  0.00  0.00    +0.000 C 
BRANCH  17  18
ATOM     18  N   UNL     1      44.052   4.640   9.271  0.00  0.00    +0.000 N 
ATOM     19  H   UNL     1      44.279   5.545   8.865  0.00  0.00    +0.000 HD
BRANCH  18  24
ATOM     20  C   UNL     1      46.742   2.728   7.528  0.00  0.00    +0.000 A 
ATOM     21  C   UNL     1      46.394   1.462   7.977  0.00  0.00    +0.000 A 
ATOM     22  N   UNL     1      45.354   1.210   8.803  0.00  0.00    +0.000 NA
ATOM     23  C   UNL     1      44.620   2.285   9.178  0.00  0.00    +0.000 A 
ATOM     24  C   UNL     1      44.833   3.601   8.758  0.00  0.00    +0.000 A 
ATOM     25  C   UNL     1      45.946   3.801   7.928  0.00  0.00    +0.000 A 
BRANCH  20  27
ATOM     26  C   UNL     1      47.577   2.512   5.328  0.00  0.00    +0.000 C 
ATOM     27  O   UNL     1      47.825   2.810   6.699  0.00  0.00    +0.000 OA
ENDBRANCH  20  27
ENDBRANCH  18  24
ENDBRANCH  17  18
ENDBRANCH   1  17
TORSDOF 7
ENDMDL
MODEL 2
REMARK VINA RESULT:    -7.491      2.957      4.288
REMARK INTER + INTRA:         -11.260
REMARK INTER:                 -10.337
REMARK INTRA:                  -0.924
REMARK UNBOUND:                -0.923
REMARK  Name = 
REMARK  8 active torsions:
REMARK  status: ('A' for Active; 'I' for Inactive)
REMARK    1  A    between atoms: C_1  and  O_2
REMARK    2  A    between atoms: O_2  and  C_3
REMARK    3  A    between atoms: C_7  and  N_8
REMARK    4  A    between atoms: N_8  and  C_9
REMARK    5  A    between atoms: C_9  and  C_10
REMARK    6  A    between atoms: C_15  and  C_16
REMARK    7  A    between atoms: C_20  and  C_21
REMARK    8  A    between atoms: C_21  and  O_22
REMARK                            x       y       z     vdW  Elec       q    Type
REMARK                         _______ _______ _______ _____ _____    ______ ____
ROOT
ATOM      1  C   UNL     1      44.760   4.982  11.527  0.00  0.00    +0.000 A 
ATOM      2  C   UNL     1      44.932   4.159  12.644  0.00  0.00    +0.000 A 
ATOM      3  C   UNL     1      45.953   4.425  13.552  0.00  0.00    +0.000 A 
ATOM      4  C   UNL     1      46.793   5.520  13.355  0.00  0.00    +0.000 A 
ATOM      5  F   UNL     1      47.748   5.735  14.274  0.00  0.00    +0.000 F 
ATOM      6  C   UNL     1      46.658   6.381  12.252  0.00  0.00    +0.000 A 
ATOM      7  C   UNL     1      45.618   6.085  11.346  0.00  0.00    +0.000 A 
ENDROOT
BRANCH   6   8
ATOM      8  C   UNL     1      47.561   7.533  12.023  0.00  0.00    +0.000 A 
ATOM      9  C   UNL     1      47.111   8.855  12.041  0.00  0.00    +0.000 A 
ATOM     10  N   UNL     1      47.894   9.950  11.864  0.00  0.00    +0.000 NA
ATOM     11  C   UNL     1      49.208   9.734  11.665  0.00  0.00    +0.000 A 
ATOM     12  C   UNL     1      49.792   8.474  11.645  0.00  0.00    +0.000 A 
ATOM     13  C   UNL     1      48.939   7.371  11.800  0.00  0.00    +0.000 A 
BRANCH  12  14
ATOM     14  C   UNL     1      51.263   8.321  11.401  0.00  0.00    +0.000 C 
BRANCH  14  15
ATOM     15  O   UNL     1      51.556   7.079  10.773  0.00  0.00    +0.000 OA
ATOM     16  H   UNL     1      52.314   6.695  11.248  0.00  0.00    +0.000 HD
ENDBRANCH  14  15
ENDBRANCH  12  14
ENDBRANCH   6   8
BRANCH   1  17
ATOM     17  C   UNL     1      43.650   4.710  10.539  0.00  0.00    +0.000 C 
BRANCH  17  18
ATOM     18  N   UNL     1      44.187   4.737   9.188  0.00  0.00    +0.000 N 
ATOM     19  H   UNL     1      44.565   5.639   8.909  0.00  0.00    +0.000 HD
BRANCH  18  24
ATOM     20  C   UNL     1      46.818   2.691   7.509  0.00  0.00    +0.000 A 
ATOM     21  C   UNL     1      46.410   1.446   7.969  0.00  0.00    +0.000 A 
ATOM     22  N   UNL     1      45.350   1.249   8.783  0.00  0.00    +0.000 NA
ATOM     23  C   UNL     1      44.656   2.359   9.134  0.00  0.00    +0.000 A 
ATOM     24  C   UNL     1      44.930   3.659   8.700  0.00  0.00    +0.000 A 
ATOM     25  C   UNL     1      46.062   3.801   7.885  0.00  0.00    +0.000 A 
BRANCH  20  27
ATOM     26  C   UNL     1      47.667   2.459   5.317  0.00  0.00    +0.000 C 
ATOM     27  O   UNL     1      47.915   2.716   6.696  0.00  0.00    +0.000 OA
ENDBRANCH  20  27
ENDBRANCH  18  24
ENDBRANCH  17  18
ENDBRANCH   1  17
TORSDOF 7
ENDMDL
MODEL 3
REMARK VINA RESULT:    -7.102      1.414      1.640
REMARK INTER + INTRA:         -10.724
REMARK INTER:                 -10.258
REMARK INTRA:                  -0.466
REMARK UNBOUND:                -0.923
REMARK  Name = 
REMARK  8 active torsions:
REMARK  status: ('A' for Active; 'I' for Inactive)
REMARK    1  A    between atoms: C_1  and  O_2
REMARK    2  A    between atoms: O_2  and  C_3
REMARK    3  A    between atoms: C_7  and  N_8
REMARK    4  A    between atoms: N_8  and  C_9
REMARK    5  A    between atoms: C_9  and  C_10
REMARK    6  A    between atoms: C_15  and  C_16
REMARK    7  A    between atoms: C_20  and  C_21
REMARK    8  A    between atoms: C_21  and  O_22
REMARK                            x       y       z     vdW  Elec       q    Type
REMARK                         _______ _______ _______ _____ _____    ______ ____
ROOT
ATOM      1  C   UNL     1      45.184   5.843  12.082  0.00  0.00    +0.000 A 
ATOM      2  C   UNL     1      45.688   6.886  11.299  0.00  0.00    +0.000 A 
ATOM      3  C   UNL     1      46.872   7.520  11.666  0.00  0.00    +0.000 A 
ATOM      4  C   UNL     1      47.561   7.105  12.804  0.00  0.00    +0.000 A 
ATOM      5  F   UNL     1      48.706   7.742  13.096  0.00  0.00    +0.000 F 
ATOM      6  C   UNL     1      47.100   6.057  13.621  0.00  0.00    +0.000 A 
ATOM      7  C   UNL     1      45.896   5.437  13.228  0.00  0.00    +0.000 A 
ENDROOT
BRANCH   6   8
ATOM      8  C   UNL     1      47.814   5.625  14.844  0.00  0.00    +0.000 A 
ATOM      9  C   UNL     1      48.849   6.371  15.413  0.00  0.00    +0.000 A 
ATOM     10  N   UNL     1      49.522   6.039  16.545  0.00  0.00    +0.000 NA
ATOM     11  C   UNL     1      49.148   4.904  17.165  0.00  0.00    +0.000 A 
ATOM     12  C   UNL     1      48.121   4.081  16.723  0.00  0.00    +0.000 A 
ATOM     13  C   UNL     1      47.477   4.446  15.531  0.00  0.00    +0.000 A 
BRANCH  12  14
ATOM     14  C   UNL     1      47.779   2.825  17.466  0.00  0.00    +0.000 C 
BRANCH  14  15
ATOM     15  O   UNL     1      46.382   2.739  17.720  0.00  0.00    +0.000 OA
ATOM     16  H   UNL     1      46.272   2.719  18.686  0.00  0.00    +0.000 HD
ENDBRANCH  14  15
ENDBRANCH  12  14
ENDBRANCH   6   8
BRANCH   1  17
ATOM     17  C   UNL     1      43.905   5.141  11.690  0.00  0.00    +0.000 C 
BRANCH  17  18
ATOM     18  N   UNL     1      43.796   5.106  10.241  0.00  0.00    +0.000 N 
ATOM     19  H   UNL     1      43.835   6.023   9.799  0.00  0.00    +0.000 HD
BRANCH  18  24
ATOM     20  C   UNL     1      46.124   3.349   7.913  0.00  0.00    +0.000 A 
ATOM     21  C   UNL     1      45.794   2.047   8.265  0.00  0.00    +0.000 A 
ATOM     22  N   UNL     1      44.877   1.725   9.204  0.00  0.00    +0.000 NA
ATOM     23  C   UNL     1      44.249   2.766   9.803  0.00  0.00    +0.000 A 
ATOM     24  C   UNL     1      44.451   4.117   9.505  0.00  0.00    +0.000 A 
ATOM     25  C   UNL     1      45.438   4.386   8.546  0.00  0.00    +0.000 A 
BRANCH  20  27
ATOM     26  C   UNL     1      47.937   2.384   6.747  0.00  0.00    +0.000 C 
ATOM     27  O   UNL     1      47.076   3.502   6.946  0.00  0.00    +0.000 OA
ENDBRANCH  20  27
ENDBRANCH  18  24
ENDBRANCH  17  18
ENDBRANCH   1  17
TORSDOF 7
ENDMDL
MODEL 4
REMARK VINA RESULT:    -7.029      2.186      7.719
REMARK INTER + INTRA:         -10.623
REMARK INTER:                  -9.800
REMARK INTRA:                  -0.824
REMARK UNBOUND:                -0.923
REMARK  Name = 
REMARK  8 active torsions:
REMARK  status: ('A' for Active; 'I' for Inactive)
REMARK    1  A    between atoms: C_1  and  O_2
REMARK    2  A    between atoms: O_2  and  C_3
REMARK    3  A    between atoms: C_7  and  N_8
REMARK    4  A    between atoms: N_8  and  C_9
REMARK    5  A    between atoms: C_9  and  C_10
REMARK    6  A    between atoms: C_15  and  C_16
REMARK    7  A    between atoms: C_20  and  C_21
REMARK    8  A    between atoms: C_21  and  O_22
REMARK                            x       y       z     vdW  Elec       q    Type
REMARK                         _______ _______ _______ _____ _____    ______ ____
ROOT
ATOM      1  C   UNL     1      47.211   7.245  13.241  0.00  0.00    +0.000 A 
ATOM      2  C   UNL     1      46.466   8.429  13.239  0.00  0.00    +0.000 A 
ATOM      3  C   UNL     1      45.314   8.523  12.463  0.00  0.00    +0.000 A 
ATOM      4  C   UNL     1      44.896   7.434  11.700  0.00  0.00    +0.000 A 
ATOM      5  F   UNL     1      43.768   7.579  10.987  0.00  0.00    +0.000 F 
ATOM      6  C   UNL     1      45.606   6.221  11.673  0.00  0.00    +0.000 A 
ATOM      7  C   UNL     1      46.771   6.155  12.465  0.00  0.00    +0.000 A 
ENDROOT
BRANCH   6   8
ATOM      8  C   UNL     1      45.182   5.066  10.847  0.00  0.00    +0.000 A 
ATOM      9  C   UNL     1      44.245   4.130  11.290  0.00  0.00    +0.000 A 
ATOM     10  N   UNL     1      43.799   3.068  10.571  0.00  0.00    +0.000 NA
ATOM     11  C   UNL     1      44.299   2.921   9.329  0.00  0.00    +0.000 A 
ATOM     12  C   UNL     1      45.218   3.789   8.755  0.00  0.00    +0.000 A 
ATOM     13  C   UNL     1      45.675   4.853   9.548  0.00  0.00    +0.000 A 
BRANCH  12  14
ATOM     14  C   UNL     1      45.736   3.543   7.370  0.00  0.00    +0.000 C 
BRANCH  14  15
ATOM     15  O   UNL     1      46.841   4.387   7.074  0.00  0.00    +0.000 OA
ATOM     16  H   UNL     1      47.182   4.111   6.206  0.00  0.00    +0.000 HD
ENDBRANCH  14  15
ENDBRANCH  12  14
ENDBRANCH   6   8
BRANCH   1  17
ATOM     17  C   UNL     1      48.458   7.127  14.085  0.00  0.00    +0.000 C 
BRANCH  17  18
ATOM     18  N   UNL     1      48.086   6.846  15.462  0.00  0.00    +0.000 N 
ATOM     19  H   UNL     1      47.193   7.247  15.742  0.00  0.00    +0.000 HD
BRANCH  18  24
ATOM     20  C   UNL     1      49.470   4.042  17.500  0.00  0.00    +0.000 A 
ATOM     21  C   UNL     1      48.521   3.084  17.169  0.00  0.00    +0.000 A 
ATOM     22  N   UNL     1      47.478   3.305  16.339  0.00  0.00    +0.000 NA
ATOM     23  C   UNL     1      47.398   4.547  15.802  0.00  0.00    +0.000 A 
ATOM     24  C   UNL     1      48.313   5.583  16.013  0.00  0.00    +0.000 A 
ATOM     25  C   UNL     1      49.354   5.301  16.909  0.00  0.00    +0.000 A 
BRANCH  20  27
ATOM     26  C   UNL     1      51.589   3.031  17.754  0.00  0.00    +0.000 C 
ATOM     27  O   UNL     1      50.460   3.656  18.357  0.00  0.00    +0.000 OA
ENDBRANCH  20  27
ENDBRANCH  18  24
ENDBRANCH  17  18
ENDBRANCH   1  17
TORSDOF 7
ENDMDL
MODEL 5
REMARK VINA RESULT:    -6.933      2.983      3.811
REMARK INTER + INTRA:         -10.491
REMARK INTER:                  -9.758
REMARK INTRA:                  -0.733
REMARK UNBOUND:                -0.923
REMARK  Name = 
REMARK  8 active torsions:
REMARK  status: ('A' for Active; 'I' for Inactive)
REMARK    1  A    between atoms: C_1  and  O_2
REMARK    2  A    between atoms: O_2  and  C_3
REMARK    3  A    between atoms: C_7  and  N_8
REMARK    4  A    between atoms: N_8  and  C_9
REMARK    5  A    between atoms: C_9  and  C_10
REMARK    6  A    between atoms: C_15  and  C_16
REMARK    7  A    between atoms: C_20  and  C_21
REMARK    8  A    between atoms: C_21  and  O_22
REMARK                            x       y       z     vdW  Elec       q    Type
REMARK                         _______ _______ _______ _____ _____    ______ ____
ROOT
ATOM      1  C   UNL     1      44.621   4.708  11.759  0.00  0.00    +0.000 A 
ATOM      2  C   UNL     1      43.675   5.686  11.436  0.00  0.00    +0.000 A 
ATOM      3  C   UNL     1      43.983   7.033  11.606  0.00  0.00    +0.000 A 
ATOM      4  C   UNL     1      45.238   7.406  12.084  0.00  0.00    +0.000 A 
ATOM      5  F   UNL     1      45.483   8.720  12.209  0.00  0.00    +0.000 F 
ATOM      6  C   UNL     1      46.226   6.462  12.417  0.00  0.00    +0.000 A 
ATOM      7  C   UNL     1      45.885   5.105  12.239  0.00  0.00    +0.000 A 
ENDROOT
BRANCH   6   8
ATOM      8  C   UNL     1      47.554   6.849  12.947  0.00  0.00    +0.000 A 
ATOM      9  C   UNL     1      47.947   6.578  14.259  0.00  0.00    +0.000 A 
ATOM     10  N   UNL     1      49.158   6.885  14.793  0.00  0.00    +0.000 NA
ATOM     11  C   UNL     1      50.045   7.491  13.980  0.00  0.00    +0.000 A 
ATOM     12  C   UNL     1      49.794   7.799  12.650  0.00  0.00    +0.000 A 
ATOM     13  C   UNL     1      48.518   7.492  12.152  0.00  0.00    +0.000 A 
BRANCH  12  14
ATOM     14  C   UNL     1      50.834   8.489  11.819  0.00  0.00    +0.000 C 
BRANCH  14  15
ATOM     15  O   UNL     1      51.638   7.551  11.115  0.00  0.00    +0.000 OA
ATOM     16  H   UNL     1      51.080   7.172  10.413  0.00  0.00    +0.000 HD
ENDBRANCH  14  15
ENDBRANCH  12  14
ENDBRANCH   6   8
BRANCH   1  17
ATOM     17  C   UNL     1      44.303   3.243  11.571  0.00  0.00    +0.000 C 
BRANCH  17  18
ATOM     18  N   UNL     1      43.986   2.992  10.176  0.00  0.00    +0.000 N 
ATOM     19  H   UNL     1      43.126   3.433   9.858  0.00  0.00    +0.000 HD
BRANCH  18  24
ATOM     20  C   UNL     1      46.554   1.911   7.692  0.00  0.00    +0.000 A 
ATOM     21  C   UNL     1      46.833   3.160   7.155  0.00  0.00    +0.000 A 
ATOM     22  N   UNL     1      46.235   4.306   7.550  0.00  0.00    +0.000 NA
ATOM     23  C   UNL     1      45.327   4.188   8.549  0.00  0.00    +0.000 A 
ATOM     24  C   UNL     1      44.993   3.001   9.208  0.00  0.00    +0.000 A 
ATOM     25  C   UNL     1      45.624   1.844   8.729  0.00  0.00    +0.000 A 
BRANCH  20  27
ATOM     26  C   UNL     1      46.761  -0.437   7.539  0.00  0.00    +0.000 C 
ATOM     27  O   UNL     1      47.246   0.852   7.176  0.00  0.00    +0.000 OA
ENDBRANCH  20  27
ENDBRANCH  18  24
ENDBRANCH  17  18
ENDBRANCH   1  17
TORSDOF 7
ENDMDL
MODEL 6
REMARK VINA RESULT:    -6.706      2.277      7.685
REMARK INTER + INTRA:         -10.178
REMARK INTER:                  -9.202
REMARK INTRA:                  -0.976
REMARK UNBOUND:                -0.923
REMARK  Name = 
REMARK  8 active torsions:
REMARK  status: ('A' for Active; 'I' for Inactive)
REMARK    1  A    between atoms: C_1  and  O_2
REMARK    2  A    between atoms: O_2  and  C_3
REMARK    3  A    between atoms: C_7  and  N_8
REMARK    4  A    between atoms: N_8  and  C_9
REMARK    5  A    between atoms: C_9  and  C_10
REMARK    6  A    between atoms: C_15  and  C_16
REMARK    7  A    between atoms: C_20  and  C_21
REMARK    8  A    between atoms: C_21  and  O_22
REMARK                            x       y       z     vdW  Elec       q    Type
REMARK                         _______ _______ _______ _____ _____    ______ ____
ROOT
ATOM      1  C   UNL     1      47.116   7.903  12.465  0.00  0.00    +0.000 A 
ATOM      2  C   UNL     1      46.177   8.928  12.612  0.00  0.00    +0.000 A 
ATOM      3  C   UNL     1      44.894   8.774  12.095  0.00  0.00    +0.000 A 
ATOM      4  C   UNL     1      44.542   7.593  11.444  0.00  0.00    +0.000 A 
ATOM      5  F   UNL     1      43.286   7.496  10.982  0.00  0.00    +0.000 F 
ATOM      6  C   UNL     1      45.448   6.530  11.275  0.00  0.00    +0.000 A 
ATOM      7  C   UNL     1      46.741   6.716  11.806  0.00  0.00    +0.000 A 
ENDROOT
BRANCH   6   8
ATOM      8  C   UNL     1      45.089   5.281  10.565  0.00  0.00    +0.000 A 
ATOM      9  C   UNL     1      44.163   4.367  11.073  0.00  0.00    +0.000 A 
ATOM     10  N   UNL     1      43.776   3.221  10.457  0.00  0.00    +0.000 NA
ATOM     11  C   UNL     1      44.328   2.958   9.257  0.00  0.00    +0.000 A 
ATOM     12  C   UNL     1      45.244   3.789   8.626  0.00  0.00    +0.000 A 
ATOM     13  C   UNL     1      45.638   4.946   9.315  0.00  0.00    +0.000 A 
BRANCH  12  14
ATOM     14  C   UNL     1      45.822   3.413   7.295  0.00  0.00    +0.000 C 
BRANCH  14  15
ATOM     15  O   UNL     1      46.772   4.376   6.854  0.00  0.00    +0.000 OA
ATOM     16  H   UNL     1      46.853   5.037   7.563  0.00  0.00    +0.000 HD
ENDBRANCH  14  15
ENDBRANCH  12  14
ENDBRANCH   6   8
BRANCH   1  17
ATOM     17  C   UNL     1      48.509   8.054  13.030  0.00  0.00    +0.000 C 
BRANCH  17  18
ATOM     18  N   UNL     1      48.965   6.773  13.546  0.00  0.00    +0.000 N 
ATOM     19  H   UNL     1      49.924   6.542  13.295  0.00  0.00    +0.000 HD
BRANCH  18  24
ATOM     20  C   UNL     1      47.585   4.855  16.434  0.00  0.00    +0.000 A 
ATOM     21  C   UNL     1      48.198   5.577  17.449  0.00  0.00    +0.000 A 
ATOM     22  N   UNL     1      49.021   6.628  17.240  0.00  0.00    +0.000 NA
ATOM     23  C   UNL     1      49.220   6.979  15.947  0.00  0.00    +0.000 A 
ATOM     24  C   UNL     1      48.625   6.370  14.839  0.00  0.00    +0.000 A 
ATOM     25  C   UNL     1      47.808   5.265  15.120  0.00  0.00    +0.000 A 
BRANCH  20  27
ATOM     26  C   UNL     1      47.433   2.764  17.521  0.00  0.00    +0.000 C 
ATOM     27  O   UNL     1      46.784   3.817  16.816  0.00  0.00    +0.000 OA
ENDBRANCH  20  27
ENDBRANCH  18  24
ENDBRANCH  17  18
ENDBRANCH   1  17
TORSDOF 7
ENDMDL
MODEL 7
REMARK VINA RESULT:    -6.615      2.532      3.585
REMARK INTER + INTRA:         -10.052
REMARK INTER:                  -9.164
REMARK INTRA:                  -0.888
REMARK UNBOUND:                -0.923
REMARK  Name = 
REMARK  8 active torsions:
REMARK  status: ('A' for Active; 'I' for Inactive)
REMARK    1  A    between atoms: C_1  and  O_2
REMARK    2  A    between atoms: O_2  and  C_3
REMARK    3  A    between atoms: C_7  and  N_8
REMARK    4  A    between atoms: N_8  and  C_9
REMARK    5  A    between atoms: C_9  and  C_10
REMARK    6  A    between atoms: C_15  and  C_16
REMARK    7  A    between atoms: C_20  and  C_21
REMARK    8  A    between atoms: C_21  and  O_22
REMARK                            x       y       z     vdW  Elec       q    Type
REMARK                         _______ _______ _______ _____ _____    ______ ____
ROOT
ATOM      1  C   UNL     1      47.034   7.423  12.431  0.00  0.00    +0.000 A 
ATOM      2  C   UNL     1      48.163   7.919  11.771  0.00  0.00    +0.000 A 
ATOM      3  C   UNL     1      49.405   7.889  12.400  0.00  0.00    +0.000 A 
ATOM      4  C   UNL     1      49.524   7.353  13.681  0.00  0.00    +0.000 A 
ATOM      5  F   UNL     1      50.749   7.336  14.228  0.00  0.00    +0.000 F 
ATOM      6  C   UNL     1      48.421   6.837  14.384  0.00  0.00    +0.000 A 
ATOM      7  C   UNL     1      47.176   6.884  13.725  0.00  0.00    +0.000 A 
ENDROOT
BRANCH   6   8
ATOM      8  C   UNL     1      48.536   6.287  15.755  0.00  0.00    +0.000 A 
ATOM      9  C   UNL     1      49.015   7.039  16.829  0.00  0.00    +0.000 A 
ATOM     10  N   UNL     1      49.119   6.599  18.109  0.00  0.00    +0.000 NA
ATOM     11  C   UNL     1      48.716   5.337  18.353  0.00  0.00    +0.000 A 
ATOM     12  C   UNL     1      48.198   4.487  17.385  0.00  0.00    +0.000 A 
ATOM     13  C   UNL     1      48.140   4.975  16.070  0.00  0.00    +0.000 A 
BRANCH  12  14
ATOM     14  C   UNL     1      47.786   3.090  17.739  0.00  0.00    +0.000 C 
BRANCH  14  15
ATOM     15  O   UNL     1      46.387   2.904  17.562  0.00  0.00    +0.000 OA
ATOM     16  H   UNL     1      46.232   1.944  17.530  0.00  0.00    +0.000 HD
ENDBRANCH  14  15
ENDBRANCH  12  14
ENDBRANCH   6   8
BRANCH   1  17
ATOM     17  C   UNL     1      45.683   7.441  11.756  0.00  0.00    +0.000 C 
BRANCH  17  18
ATOM     18  N   UNL     1      44.726   6.710  12.568  0.00  0.00    +0.000 N 
ATOM     19  H   UNL     1      43.970   7.283  12.937  0.00  0.00    +0.000 HD
BRANCH  18  24
ATOM     20  C   UNL     1      44.088   3.604  10.599  0.00  0.00    +0.000 A 
ATOM     21  C   UNL     1      43.609   2.818  11.639  0.00  0.00    +0.000 A 
ATOM     22  N   UNL     1      43.493   3.241  12.917  0.00  0.00    +0.000 NA
ATOM     23  C   UNL     1      43.859   4.523  13.154  0.00  0.00    +0.000 A 
ATOM     24  C   UNL     1      44.307   5.432  12.191  0.00  0.00    +0.000 A 
ATOM     25  C   UNL     1      44.436   4.923  10.890  0.00  0.00    +0.000 A 
BRANCH  20  27
ATOM     26  C   UNL     1      45.313   2.250   9.101  0.00  0.00    +0.000 C 
ATOM     27  O   UNL     1      44.145   3.022   9.365  0.00  0.00    +0.000 OA
ENDBRANCH  20  27
ENDBRANCH  18  24
ENDBRANCH  17  18
ENDBRANCH   1  17
TORSDOF 7
ENDMDL
MODEL 8
REMARK VINA RESULT:    -6.387      3.771      7.585
REMARK INTER + INTRA:          -9.737
REMARK INTER:                  -8.896
REMARK INTRA:                  -0.841
REMARK UNBOUND:                -0.923
REMARK  Name = 
REMARK  8 active torsions:
REMARK  status: ('A' for Active; 'I' for Inactive)
REMARK    1  A    between atoms: C_1  and  O_2
REMARK    2  A    between atoms: O_2  and  C_3
REMARK    3  A    between atoms: C_7  and  N_8
REMARK    4  A    between atoms: N_8  and  C_9
REMARK    5  A    between atoms: C_9  and  C_10
REMARK    6  A    between atoms: C_15  and  C_16
REMARK    7  A    between atoms: C_20  and  C_21
REMARK    8  A    between atoms: C_21  and  O_22
REMARK                            x       y       z     vdW  Elec       q    Type
REMARK                         _______ _______ _______ _____ _____    ______ ____
ROOT
ATOM      1  C   UNL     1      48.762   6.610  15.277  0.00  0.00    +0.000 A 
ATOM      2  C   UNL     1      49.480   7.396  14.370  0.00  0.00    +0.000 A 
ATOM      3  C   UNL     1      49.093   7.445  13.034  0.00  0.00    +0.000 A 
ATOM      4  C   UNL     1      47.982   6.721  12.604  0.00  0.00    +0.000 A 
ATOM      5  F   UNL     1      47.646   6.823  11.308  0.00  0.00    +0.000 F 
ATOM      6  C   UNL     1      47.223   5.921  13.476  0.00  0.00    +0.000 A 
ATOM      7  C   UNL     1      47.641   5.888  14.823  0.00  0.00    +0.000 A 
ENDROOT
BRANCH   6   8
ATOM      8  C   UNL     1      46.054   5.132  13.023  0.00  0.00    +0.000 A 
ATOM      9  C   UNL     1      46.056   3.736  12.995  0.00  0.00    +0.000 A 
ATOM     10  N   UNL     1      45.009   2.959  12.614  0.00  0.00    +0.000 NA
ATOM     11  C   UNL     1      43.881   3.596  12.244  0.00  0.00    +0.000 A 
ATOM     12  C   UNL     1      43.735   4.977  12.246  0.00  0.00    +0.000 A 
ATOM     13  C   UNL     1      44.854   5.739  12.615  0.00  0.00    +0.000 A 
BRANCH  12  14
ATOM     14  C   UNL     1      42.448   5.606  11.804  0.00  0.00    +0.000 C 
BRANCH  14  15
ATOM     15  O   UNL     1      42.675   6.867  11.186  0.00  0.00    +0.000 OA
ATOM     16  H   UNL     1      41.852   7.109  10.728  0.00  0.00    +0.000 HD
ENDBRANCH  14  15
ENDBRANCH  12  14
ENDBRANCH   6   8
BRANCH   1  17
ATOM     17  C   UNL     1      49.166   6.555  16.731  0.00  0.00    +0.000 C 
BRANCH  17  18
ATOM     18  N   UNL     1      48.707   5.307  17.315  0.00  0.00    +0.000 N 
ATOM     19  H   UNL     1      47.714   5.127  17.184  0.00  0.00    +0.000 HD
BRANCH  18  24
ATOM     20  C   UNL     1      51.473   2.832  17.711  0.00  0.00    +0.000 A 
ATOM     21  C   UNL     1      50.836   1.744  17.129  0.00  0.00    +0.000 A 
ATOM     22  N   UNL     1      49.579   1.779  16.632  0.00  0.00    +0.000 NA
ATOM     23  C   UNL     1      48.942   2.972  16.709  0.00  0.00    +0.000 A 
ATOM     24  C   UNL     1      49.488   4.152  17.222  0.00  0.00    +0.000 A 
ATOM     25  C   UNL     1      50.782   4.043  17.751  0.00  0.00    +0.000 A 
BRANCH  20  27
ATOM     26  C   UNL     1      53.448   1.546  17.567  0.00  0.00    +0.000 C 
ATOM     27  O   UNL     1      52.743   2.628  18.167  0.00  0.00    +0.000 OA
ENDBRANCH  20  27
ENDBRANCH  18  24
ENDBRANCH  17  18
ENDBRANCH   1  17
TORSDOF 7
ENDMDL
MODEL 9
REMARK VINA RESULT:    -6.208      2.733      7.805
REMARK INTER + INTRA:          -9.490
REMARK INTER:                  -8.488
REMARK INTRA:                  -1.002
REMARK UNBOUND:                -0.923
REMARK  Name = 
REMARK  8 active torsions:
REMARK  status: ('A' for Active; 'I' for Inactive)
REMARK    1  A    between atoms: C_1  and  O_2
REMARK    2  A    between atoms: O_2  and  C_3
REMARK    3  A    between atoms: C_7  and  N_8
REMARK    4  A    between atoms: N_8  and  C_9
REMARK    5  A    between atoms: C_9  and  C_10
REMARK    6  A    between atoms: C_15  and  C_16
REMARK    7  A    between atoms: C_20  and  C_21
REMARK    8  A    between atoms: C_21  and  O_22
REMARK                            x       y       z     vdW  Elec       q    Type
REMARK                         _______ _______ _______ _____ _____    ______ ____
ROOT
ATOM      1  C   UNL     1      47.987   7.255  13.766  0.00  0.00    +0.000 A 
ATOM      2  C   UNL     1      47.527   8.541  13.465  0.00  0.00    +0.000 A 
ATOM      3  C   UNL     1      46.311   8.709  12.810  0.00  0.00    +0.000 A 
ATOM      4  C   UNL     1      45.544   7.596  12.468  0.00  0.00    +0.000 A 
ATOM      5  F   UNL     1      44.372   7.822  11.855  0.00  0.00    +0.000 F 
ATOM      6  C   UNL     1      45.959   6.283  12.753  0.00  0.00    +0.000 A 
ATOM      7  C   UNL     1      47.197   6.143  13.413  0.00  0.00    +0.000 A 
ENDROOT
BRANCH   6   8
ATOM      8  C   UNL     1      45.161   5.094  12.373  0.00  0.00    +0.000 A 
ATOM      9  C   UNL     1      44.317   4.437  13.270  0.00  0.00    +0.000 A 
ATOM     10  N   UNL     1      43.544   3.361  12.974  0.00  0.00    +0.000 NA
ATOM     11  C   UNL     1      43.597   2.904  11.708  0.00  0.00    +0.000 A 
ATOM     12  C   UNL     1      44.374   3.475  10.709  0.00  0.00    +0.000 A 
ATOM     13  C   UNL     1      45.181   4.565  11.071  0.00  0.00    +0.000 A 
BRANCH  12  14
ATOM     14  C   UNL     1      44.386   2.894   9.327  0.00  0.00    +0.000 C 
BRANCH  14  15
ATOM     15  O   UNL     1      45.205   1.732   9.263  0.00  0.00    +0.000 OA
ATOM     16  H   UNL     1      44.745   1.095   8.689  0.00  0.00    +0.000 HD
ENDBRANCH  14  15
ENDBRANCH  12  14
ENDBRANCH   6   8
BRANCH   1  17
ATOM     17  C   UNL     1      49.301   7.060  14.484  0.00  0.00    +0.000 C 
BRANCH  17  18
ATOM     18  N   UNL     1      49.198   7.585  15.835  0.00  0.00    +0.000 N 
ATOM     19  H   UNL     1      48.823   8.530  15.887  0.00  0.00    +0.000 HD
BRANCH  18  24
ATOM     20  C   UNL     1      48.392   4.604  17.931  0.00  0.00    +0.000 A 
ATOM     21  C   UNL     1      48.055   5.279  19.096  0.00  0.00    +0.000 A 
ATOM     22  N   UNL     1      48.083   6.624  19.228  0.00  0.00    +0.000 NA
ATOM     23  C   UNL     1      48.450   7.321  18.126  0.00  0.00    +0.000 A 
ATOM     24  C   UNL     1      48.762   6.767  16.881  0.00  0.00    +0.000 A 
ATOM     25  C   UNL     1      48.746   5.366  16.818  0.00  0.00    +0.000 A 
BRANCH  20  27
ATOM     26  C   UNL     1      48.512   2.579  16.721  0.00  0.00    +0.000 C 
ATOM     27  O   UNL     1      48.314   3.241  17.966  0.00  0.00    +0.000 OA
ENDBRANCH  20  27
ENDBRANCH  18  24
ENDBRANCH  17  18
ENDBRANCH   1  17
TORSDOF 7
ENDMDL
