MODEL 1
REMARK VINA RESULT:    -8.483      0.000      0.000
REMARK INTER + INTRA:         -13.223
REMARK INTER:                 -12.202
REMARK INTRA:                  -1.021
REMARK UNBOUND:                -1.021
REMARK  Name = 
REMARK  8 active torsions:
REMARK  status: ('A' for Active; 'I' for Inactive)
REMARK    1  A    between atoms: C_2  and  CA_27
REMARK    2  A    between atoms: N_3  and  CA_4
REMARK    3  A    between atoms: CA_4  and  C_5
REMARK    4  A    between atoms: CA_4  and  C_7
REMARK    5  A    between atoms: C_5  and  O_6
REMARK    6  A    between atoms: C_10  and  C_11
REMARK    7  A    between atoms: C_11  and  N_12
REMARK    8  A    between atoms: C_13  and  C_15
REMARK                            x       y       z     vdW  Elec       q    Type
REMARK                         _______ _______ _______ _____ _____    ______ ____
ROOT
ATOM      1  C   UNL     1      45.091   4.797  11.788  0.00  0.00    +0.000 A 
ATOM      2  C   UNL     1      45.802   4.410  12.938  0.00  0.00    +0.000 A 
ATOM      3  C   UNL     1      46.717   5.275  13.546  0.00  0.00    +0.000 A 
ATOM      4  C   UNL     1      46.940   6.556  13.028  0.00  0.00    +0.000 A 
ATOM      5  C   UNL     1      46.235   6.947  11.883  0.00  0.00    +0.000 A 
ATOM      6  C   UNL     1      45.320   6.082  11.273  0.00  0.00    +0.000 A 
ENDROOT
BRANCH   1   7
ATOM      7  CA  UNL     1      44.219   3.770  11.070  0.00  0.00    +0.000 C 
BRANCH   7  10
ATOM      8  O   UNL     1      44.722   4.258   8.332  0.00  0.00    +0.000 OA
ATOM      9  C   UNL     1      45.193   3.253   8.854  0.00  0.00    +0.000 C 
ATOM     10  N   UNL     1      44.974   2.903  10.174  0.00  0.00    +0.000 N 
ATOM     11  H   UNL     1      45.617   2.205  10.537  0.00  0.00    +0.000 HD
BRANCH   9  12
ATOM     12  CA  UNL     1      46.042   2.308   8.126  0.00  0.00    +0.000 A 
ATOM     13  C   UNL     1      46.950   2.623   7.133  0.00  0.00    +0.000 A 
ATOM     14  N   UNL     1      47.490   1.433   6.739  0.00  0.00    +0.000 N 
ATOM     15  C   UNL     1      46.906   0.449   7.490  0.00  0.00    +0.000 A 
ATOM     16  N   UNL     1      46.030   0.936   8.334  0.00  0.00    +0.000 NA
ATOM     17  H   UNL     1      48.190   1.301   6.020  0.00  0.00    +0.000 HD
ENDBRANCH   9  12
ENDBRANCH   7  10
BRANCH   7  18
ATOM     18  C   UNL     1      43.417   2.956  12.126  0.00  0.00    +0.000 C 
BRANCH  18  19
ATOM     19  O   UNL     1      43.039   1.656  11.654  0.00  0.00    +0.000 OA
ATOM     20  H   UNL     1      43.617   1.017  12.106  0.00  0.00    +0.000 HD
ENDBRANCH  18  19
ENDBRANCH   7  18
ENDBRANCH   1   7
BRANCH   4  21
ATOM     21  C   UNL     1      47.951   7.483  13.650  0.00  0.00    +0.000 C 
BRANCH  21  22
ATOM     22  N   UNL     1      47.927   7.412  15.089  0.00  0.00    +0.000 N 
ATOM     23  C   UNL     1      49.033   7.003  15.791  0.00  0.00    +0.000 C 
ATOM     24  O   UNL     1      50.089   6.722  15.229  0.00  0.00    +0.000 OA
ATOM     25  H   UNL     1      47.017   7.418  15.543  0.00  0.00    +0.000 HD
BRANCH  23  26
ATOM     26  C   UNL     1      48.920   6.979  17.256  0.00  0.00    +0.000 A 
ATOM     27  C   UNL     1      48.832   8.176  17.955  0.00  0.00    +0.000 A 
ATOM     28  S   UNL     1      48.651   7.974  19.639  0.00  0.00    +0.000 S 
ATOM     29  C   UNL     1      48.740   6.281  19.499  0.00  0.00    +0.000 A 
ATOM     30  N   UNL     1      48.675   5.485  20.601  0.00  0.00    +0.000 NA
ATOM     31  C   UNL     1      48.790   4.224  20.353  0.00  0.00    +0.000 A 
ATOM     32  N   UNL     1      48.962   3.685  19.104  0.00  0.00    +0.000 N 
ATOM     33  C   UNL     1      49.003   4.447  17.961  0.00  0.00    +0.000 A 
ATOM     34  O   UNL     1      49.120   3.935  16.853  0.00  0.00    +0.000 OA
ATOM     35  C   UNL     1      48.888   5.876  18.185  0.00  0.00    +0.000 A 
ATOM     36  H   UNL     1      49.038   2.686  18.976  0.00  0.00    +0.000 HD
ENDBRANCH  23  26
ENDBRANCH  21  22
ENDBRANCH   4  21
TORSDOF 8
ENDMDL
MODEL 2
REMARK VINA RESULT:    -8.168      1.585      2.292
REMARK INTER + INTRA:         -12.771
REMARK INTER:                 -11.645
REMARK INTRA:                  -1.126
REMARK UNBOUND:                -1.021
REMARK  Name = 
REMARK  8 active torsions:
REMARK  status: ('A' for Active; 'I' for Inactive)
REMARK    1  A    between atoms: C_2  and  CA_27
REMARK    2  A    between atoms: N_3  and  CA_4
REMARK    3  A    between atoms: CA_4  and  C_5
REMARK    4  A    between atoms: CA_4  and  C_7
REMARK    5  A    between atoms: C_5  and  O_6
REMARK    6  A    between atoms: C_10  and  C_11
REMARK    7  A    between atoms: C_11  and  N_12
REMARK    8  A    between atoms: C_13  and  C_15
REMARK                            x       y       z     vdW  Elec       q    Type
REMARK                         _______ _______ _______ _____ _____    ______ ____
ROOT
ATOM      1  C   UNL     1      45.398   4.985  11.773  0.00  0.00    +0.000 A 
ATOM      2  C   UNL     1      45.732   4.527  13.060  0.00  0.00    +0.000 A 
ATOM      3  C   UNL     1      46.707   5.175  13.827  0.00  0.00    +0.000 A 
ATOM      4  C   UNL     1      47.367   6.306  13.331  0.00  0.00    +0.000 A 
ATOM      5  C   UNL     1      47.038   6.766  12.051  0.00  0.00    +0.000 A 
ATOM      6  C   UNL     1      46.064   6.119  11.283  0.00  0.00    +0.000 A 
ENDROOT
BRANCH   1   7
ATOM      7  CA  UNL     1      44.443   4.161  10.914  0.00  0.00    +0.000 C 
BRANCH   7  10
ATOM      8  O   UNL     1      44.809   4.260   8.113  0.00  0.00    +0.000 OA
ATOM      9  C   UNL     1      45.277   3.316   8.742  0.00  0.00    +0.000 C 
ATOM     10  N   UNL     1      45.121   3.154  10.107  0.00  0.00    +0.000 N 
ATOM     11  H   UNL     1      45.760   2.488  10.528  0.00  0.00    +0.000 HD
BRANCH   9  12
ATOM     12  CA  UNL     1      46.056   2.251   8.107  0.00  0.00    +0.000 A 
ATOM     13  C   UNL     1      47.035   2.417   7.147  0.00  0.00    +0.000 A 
ATOM     14  N   UNL     1      47.466   1.158   6.842  0.00  0.00    +0.000 N 
ATOM     15  C   UNL     1      46.752   0.281   7.612  0.00  0.00    +0.000 A 
ATOM     16  N   UNL     1      45.893   0.901   8.385  0.00  0.00    +0.000 NA
ATOM     17  H   UNL     1      48.181   0.916   6.167  0.00  0.00    +0.000 HD
ENDBRANCH   9  12
ENDBRANCH   7  10
BRANCH   7  18
ATOM     18  C   UNL     1      43.350   3.534  11.826  0.00  0.00    +0.000 C 
BRANCH  18  19
ATOM     19  O   UNL     1      43.103   2.154  11.528  0.00  0.00    +0.000 OA
ATOM     20  H   UNL     1      43.565   1.962  10.693  0.00  0.00    +0.000 HD
ENDBRANCH  18  19
ENDBRANCH   7  18
ENDBRANCH   1   7
BRANCH   4  21
ATOM     21  C   UNL     1      48.446   6.990  14.130  0.00  0.00    +0.000 C 
BRANCH  21  22
ATOM     22  N   UNL     1      48.126   7.030  15.535  0.00  0.00    +0.000 N 
ATOM     23  C   UNL     1      48.980   6.493  16.465  0.00  0.00    +0.000 C 
ATOM     24  O   UNL     1      50.058   5.996  16.145  0.00  0.00    +0.000 OA
ATOM     25  H   UNL     1      47.161   7.223  15.790  0.00  0.00    +0.000 HD
BRANCH  23  26
ATOM     26  C   UNL     1      48.578   6.597  17.875  0.00  0.00    +0.000 A 
ATOM     27  C   UNL     1      48.649   5.476  18.692  0.00  0.00    +0.000 A 
ATOM     28  S   UNL     1      48.201   5.777  20.310  0.00  0.00    +0.000 S 
ATOM     29  C   UNL     1      47.842   7.404  19.963  0.00  0.00    +0.000 A 
ATOM     30  N   UNL     1      47.372   8.237  20.931  0.00  0.00    +0.000 NA
ATOM     31  C   UNL     1      47.109   9.432  20.522  0.00  0.00    +0.000 A 
ATOM     32  N   UNL     1      47.275   9.872  19.234  0.00  0.00    +0.000 N 
ATOM     33  C   UNL     1      47.775   9.075  18.231  0.00  0.00    +0.000 A 
ATOM     34  O   UNL     1      47.948   9.507  17.097  0.00  0.00    +0.000 OA
ATOM     35  C   UNL     1      48.078   7.716  18.636  0.00  0.00    +0.000 A 
ATOM     36  H   UNL     1      47.058  10.825  18.979  0.00  0.00    +0.000 HD
ENDBRANCH  23  26
ENDBRANCH  21  22
ENDBRANCH   4  21
TORSDOF 8
ENDMDL
MODEL 3
REMARK VINA RESULT:    -7.919      1.747      2.001
REMARK INTER + INTRA:         -12.412
REMARK INTER:                 -11.238
REMARK INTRA:                  -1.175
REMARK UNBOUND:                -1.021
REMARK  Name = 
REMARK  8 active torsions:
REMARK  status: ('A' for Active; 'I' for Inactive)
REMARK    1  A    between atoms: C_2  and  CA_27
REMARK    2  A    between atoms: N_3  and  CA_4
REMARK    3  A    between atoms: CA_4  and  C_5
REMARK    4  A    between atoms: CA_4  and  C_7
REMARK    5  A    between atoms: C_5  and  O_6
REMARK    6  A    between atoms: C_10  and  C_11
REMARK    7  A    between atoms: C_11  and  N_12
REMARK    8  A    between atoms: C_13  and  C_15
REMARK                            x       y       z     vdW  Elec       q    Type
REMARK                         _______ _______ _______ _____ _____    ______ ____
ROOT
ATOM      1  C   UNL     1      44.964   4.803  11.809  0.00  0.00    +0.000 A 
ATOM      2  C   UNL     1      45.975   4.425  12.711  0.00  0.00    +0.000 A 
ATOM      3  C   UNL     1      46.834   5.374  13.273  0.00  0.00    +0.000 A 
ATOM      4  C   UNL     1      46.699   6.732  12.958  0.00  0.00    +0.000 A 
ATOM      5  C   UNL     1      45.695   7.114  12.061  0.00  0.00    +0.000 A 
ATOM      6  C   UNL     1      44.836   6.165  11.497  0.00  0.00    +0.000 A 
ENDROOT
BRANCH   1   7
ATOM      7  CA  UNL     1      44.151   3.721  11.104  0.00  0.00    +0.000 C 
BRANCH   7  10
ATOM      8  O   UNL     1      44.535   4.132   8.334  0.00  0.00    +0.000 OA
ATOM      9  C   UNL     1      45.105   3.194   8.882  0.00  0.00    +0.000 C 
ATOM     10  N   UNL     1      44.954   2.884  10.221  0.00  0.00    +0.000 N 
ATOM     11  H   UNL     1      45.664   2.260  10.592  0.00  0.00    +0.000 HD
BRANCH   9  12
ATOM     12  CA  UNL     1      46.014   2.294   8.167  0.00  0.00    +0.000 A 
ATOM     13  C   UNL     1      46.955   2.664   7.225  0.00  0.00    +0.000 A 
ATOM     14  N   UNL     1      47.547   1.501   6.824  0.00  0.00    +0.000 N 
ATOM     15  C   UNL     1      46.960   0.480   7.520  0.00  0.00    +0.000 A 
ATOM     16  N   UNL     1      46.033   0.918   8.337  0.00  0.00    +0.000 NA
ATOM     17  H   UNL     1      48.282   1.410   6.134  0.00  0.00    +0.000 HD
ENDBRANCH   9  12
ENDBRANCH   7  10
BRANCH   7  18
ATOM     18  C   UNL     1      43.392   2.879  12.169  0.00  0.00    +0.000 C 
BRANCH  18  19
ATOM     19  O   UNL     1      43.005   1.587  11.684  0.00  0.00    +0.000 OA
ATOM     20  H   UNL     1      43.777   1.005  11.794  0.00  0.00    +0.000 HD
ENDBRANCH  18  19
ENDBRANCH   7  18
ENDBRANCH   1   7
BRANCH   4  21
ATOM     21  C   UNL     1      47.642   7.760  13.526  0.00  0.00    +0.000 C 
BRANCH  21  22
ATOM     22  N   UNL     1      48.744   7.147  14.222  0.00  0.00    +0.000 N 
ATOM     23  C   UNL     1      49.590   7.899  15.000  0.00  0.00    +0.000 C 
ATOM     24  O   UNL     1      49.419   9.105  15.163  0.00  0.00    +0.000 OA
ATOM     25  H   UNL     1      49.030   6.219  13.922  0.00  0.00    +0.000 HD
BRANCH  23  26
ATOM     26  C   UNL     1      50.675   7.184  15.686  0.00  0.00    +0.000 A 
ATOM     27  C   UNL     1      51.993   7.561  15.462  0.00  0.00    +0.000 A 
ATOM     28  S   UNL     1      53.125   6.670  16.374  0.00  0.00    +0.000 S 
ATOM     29  C   UNL     1      51.898   5.710  17.058  0.00  0.00    +0.000 A 
ATOM     30  N   UNL     1      52.199   4.710  17.931  0.00  0.00    +0.000 NA
ATOM     31  C   UNL     1      51.176   4.040  18.345  0.00  0.00    +0.000 A 
ATOM     32  N   UNL     1      49.880   4.281  17.968  0.00  0.00    +0.000 N 
ATOM     33  C   UNL     1      49.526   5.298  17.114  0.00  0.00    +0.000 A 
ATOM     34  O   UNL     1      48.354   5.513  16.824  0.00  0.00    +0.000 OA
ATOM     35  C   UNL     1      50.641   6.077  16.610  0.00  0.00    +0.000 A 
ATOM     36  H   UNL     1      49.122   3.724  18.336  0.00  0.00    +0.000 HD
ENDBRANCH  23  26
ENDBRANCH  21  22
ENDBRANCH   4  21
TORSDOF 8
ENDMDL
MODEL 4
REMARK VINA RESULT:    -7.190      2.000      2.327
REMARK INTER + INTRA:         -11.363
REMARK INTER:                 -10.442
REMARK INTRA:                  -0.921
REMARK UNBOUND:                -1.021
REMARK  Name = 
REMARK  8 active torsions:
REMARK  status: ('A' for Active; 'I' for Inactive)
REMARK    1  A    between atoms: C_2  and  CA_27
REMARK    2  A    between atoms: N_3  and  CA_4
REMARK    3  A    between atoms: CA_4  and  C_5
REMARK    4  A    between atoms: CA_4  and  C_7
REMARK    5  A    between atoms: C_5  and  O_6
REMARK    6  A    between atoms: C_10  and  C_11
REMARK    7  A    between atoms: C_11  and  N_12
REMARK    8  A    between atoms: C_13  and  C_15
REMARK                            x       y       z     vdW  Elec       q    Type
REMARK                         _______ _______ _______ _____ _____    ______ ____
ROOT
ATOM      1  C   UNL     1      45.015   5.588  11.469  0.00  0.00    +0.000 A 
ATOM      2  C   UNL     1      45.727   4.843  12.425  0.00  0.00    +0.000 A 
ATOM      3  C   UNL     1      46.711   5.440  13.220  0.00  0.00    +0.000 A 
ATOM      4  C   UNL     1      47.001   6.803  13.090  0.00  0.00    +0.000 A 
ATOM      5  C   UNL     1      46.295   7.551  12.140  0.00  0.00    +0.000 A 
ATOM      6  C   UNL     1      45.311   6.954  11.343  0.00  0.00    +0.000 A 
ENDROOT
BRANCH   1   7
ATOM      7  CA  UNL     1      44.061   4.867  10.520  0.00  0.00    +0.000 C 
BRANCH   7  10
ATOM      8  O   UNL     1      45.791   5.150   8.303  0.00  0.00    +0.000 OA
ATOM      9  C   UNL     1      45.557   4.027   8.736  0.00  0.00    +0.000 C 
ATOM     10  N   UNL     1      44.696   3.777   9.789  0.00  0.00    +0.000 N 
ATOM     11  H   UNL     1      44.791   2.854  10.202  0.00  0.00    +0.000 HD
BRANCH   9  12
ATOM     12  CA  UNL     1      46.169   2.819   8.175  0.00  0.00    +0.000 A 
ATOM     13  C   UNL     1      47.078   2.772   7.136  0.00  0.00    +0.000 A 
ATOM     14  N   UNL     1      47.352   1.448   6.950  0.00  0.00    +0.000 N 
ATOM     15  C   UNL     1      46.616   0.743   7.863  0.00  0.00    +0.000 A 
ATOM     16  N   UNL     1      45.891   1.534   8.617  0.00  0.00    +0.000 NA
ATOM     17  H   UNL     1      47.981   1.057   6.259  0.00  0.00    +0.000 HD
ENDBRANCH   9  12
ENDBRANCH   7  10
BRANCH   7  18
ATOM     18  C   UNL     1      42.817   4.383  11.318  0.00  0.00    +0.000 C 
BRANCH  18  19
ATOM     19  O   UNL     1      41.912   5.448  11.636  0.00  0.00    +0.000 OA
ATOM     20  H   UNL     1      42.142   5.751  12.532  0.00  0.00    +0.000 HD
ENDBRANCH  18  19
ENDBRANCH   7  18
ENDBRANCH   1   7
BRANCH   4  21
ATOM     21  C   UNL     1      48.084   7.451  13.912  0.00  0.00    +0.000 C 
BRANCH  21  22
ATOM     22  N   UNL     1      48.628   6.542  14.890  0.00  0.00    +0.000 N 
ATOM     23  C   UNL     1      48.864   6.954  16.178  0.00  0.00    +0.000 C 
ATOM     24  O   UNL     1      48.588   8.091  16.555  0.00  0.00    +0.000 OA
ATOM     25  H   UNL     1      49.064   5.691  14.546  0.00  0.00    +0.000 HD
BRANCH  23  26
ATOM     26  C   UNL     1      49.402   5.952  17.109  0.00  0.00    +0.000 A 
ATOM     27  C   UNL     1      48.537   5.271  17.956  0.00  0.00    +0.000 A 
ATOM     28  S   UNL     1      49.311   4.106  18.932  0.00  0.00    +0.000 S 
ATOM     29  C   UNL     1      50.837   4.510  18.297  0.00  0.00    +0.000 A 
ATOM     30  N   UNL     1      51.963   3.886  18.736  0.00  0.00    +0.000 NA
ATOM     31  C   UNL     1      53.054   4.314  18.195  0.00  0.00    +0.000 A 
ATOM     32  N   UNL     1      53.121   5.308  17.252  0.00  0.00    +0.000 N 
ATOM     33  C   UNL     1      52.008   5.945  16.758  0.00  0.00    +0.000 A 
ATOM     34  O   UNL     1      52.095   6.803  15.887  0.00  0.00    +0.000 OA
ATOM     35  C   UNL     1      50.754   5.507  17.342  0.00  0.00    +0.000 A 
ATOM     36  H   UNL     1      54.008   5.592  16.861  0.00  0.00    +0.000 HD
ENDBRANCH  23  26
ENDBRANCH  21  22
ENDBRANCH   4  21
TORSDOF 8
ENDMDL
MODEL 5
REMARK VINA RESULT:    -6.839      1.851      2.421
REMARK INTER + INTRA:         -10.859
REMARK INTER:                  -9.523
REMARK INTRA:                  -1.336
REMARK UNBOUND:                -1.021
REMARK  Name = 
REMARK  8 active torsions:
REMARK  status: ('A' for Active; 'I' for Inactive)
REMARK    1  A    between atoms: C_2  and  CA_27
REMARK    2  A    between atoms: N_3  and  CA_4
REMARK    3  A    between atoms: CA_4  and  C_5
REMARK    4  A    between atoms: CA_4  and  C_7
REMARK    5  A    between atoms: C_5  and  O_6
REMARK    6  A    between atoms: C_10  and  C_11
REMARK    7  A    between atoms: C_11  and  N_12
REMARK    8  A    between atoms: C_13  and  C_15
REMARK                            x       y       z     vdW  Elec       q    Type
REMARK                         _______ _______ _______ _____ _____    ______ ____
ROOT
ATOM      1  C   UNL     1      45.988   7.042  12.115  0.00  0.00    +0.000 A 
ATOM      2  C   UNL     1      45.600   8.178  12.848  0.00  0.00    +0.000 A 
ATOM      3  C   UNL     1      46.546   8.969  13.508  0.00  0.00    +0.000 A 
ATOM      4  C   UNL     1      47.908   8.653  13.446  0.00  0.00    +0.000 A 
ATOM      5  C   UNL     1      48.301   7.523  12.718  0.00  0.00    +0.000 A 
ATOM      6  C   UNL     1      47.356   6.730  12.058  0.00  0.00    +0.000 A 
ENDROOT
BRANCH   1   7
ATOM      7  CA  UNL     1      44.914   6.123  11.539  0.00  0.00    +0.000 C 
BRANCH   7  10
ATOM      8  O   UNL     1      43.399   4.620   9.687  0.00  0.00    +0.000 OA
ATOM      9  C   UNL     1      44.618   4.479   9.714  0.00  0.00    +0.000 C 
ATOM     10  N   UNL     1      45.444   5.137  10.606  0.00  0.00    +0.000 N 
ATOM     11  H   UNL     1      46.428   5.128  10.355  0.00  0.00    +0.000 HD
BRANCH   9  12
ATOM     12  CA  UNL     1      45.331   3.588   8.795  0.00  0.00    +0.000 A 
ATOM     13  C   UNL     1      45.472   2.220   8.929  0.00  0.00    +0.000 A 
ATOM     14  N   UNL     1      46.220   1.823   7.858  0.00  0.00    +0.000 N 
ATOM     15  C   UNL     1      46.506   2.939   7.120  0.00  0.00    +0.000 A 
ATOM     16  N   UNL     1      45.989   4.020   7.652  0.00  0.00    +0.000 NA
ATOM     17  H   UNL     1      46.514   0.877   7.651  0.00  0.00    +0.000 HD
ENDBRANCH   9  12
ENDBRANCH   7  10
BRANCH   7  18
ATOM     18  C   UNL     1      44.134   5.456  12.708  0.00  0.00    +0.000 C 
BRANCH  18  19
ATOM     19  O   UNL     1      42.720   5.675  12.628  0.00  0.00    +0.000 OA
ATOM     20  H   UNL     1      42.345   5.386  13.479  0.00  0.00    +0.000 HD
ENDBRANCH  18  19
ENDBRANCH   7  18
ENDBRANCH   1   7
BRANCH   4  21
ATOM     21  C   UNL     1      48.933   9.473  14.184  0.00  0.00    +0.000 C 
BRANCH  21  22
ATOM     22  N   UNL     1      49.457   8.770  15.327  0.00  0.00    +0.000 N 
ATOM     23  C   UNL     1      48.881   8.912  16.565  0.00  0.00    +0.000 C 
ATOM     24  O   UNL     1      47.883   9.606  16.739  0.00  0.00    +0.000 OA
ATOM     25  H   UNL     1      50.395   8.385  15.250  0.00  0.00    +0.000 HD
BRANCH  23  26
ATOM     26  C   UNL     1      49.474   8.141  17.667  0.00  0.00    +0.000 A 
ATOM     27  C   UNL     1      49.972   8.808  18.779  0.00  0.00    +0.000 A 
ATOM     28  S   UNL     1      50.574   7.768  19.989  0.00  0.00    +0.000 S 
ATOM     29  C   UNL     1      50.243   6.391  19.045  0.00  0.00    +0.000 A 
ATOM     30  N   UNL     1      50.549   5.145  19.497  0.00  0.00    +0.000 NA
ATOM     31  C   UNL     1      50.276   4.196  18.666  0.00  0.00    +0.000 A 
ATOM     32  N   UNL     1      49.722   4.379  17.425  0.00  0.00    +0.000 N 
ATOM     33  C   UNL     1      49.369   5.616  16.939  0.00  0.00    +0.000 A 
ATOM     34  O   UNL     1      48.841   5.746  15.841  0.00  0.00    +0.000 OA
ATOM     35  C   UNL     1      49.665   6.720  17.832  0.00  0.00    +0.000 A 
ATOM     36  H   UNL     1      49.525   3.592  16.824  0.00  0.00    +0.000 HD
ENDBRANCH  23  26
ENDBRANCH  21  22
ENDBRANCH   4  21
TORSDOF 8
ENDMDL
MODEL 6
REMARK VINA RESULT:    -6.581      3.016      9.100
REMARK INTER + INTRA:         -10.488
REMARK INTER:                  -9.315
REMARK INTRA:                  -1.173
REMARK UNBOUND:                -1.021
REMARK  Name = 
REMARK  8 active torsions:
REMARK  status: ('A' for Active; 'I' for Inactive)
REMARK    1  A    between atoms: C_2  and  CA_27
REMARK    2  A    between atoms: N_3  and  CA_4
REMARK    3  A    between atoms: CA_4  and  C_5
REMARK    4  A    between atoms: CA_4  and  C_7
REMARK    5  A    between atoms: C_5  and  O_6
REMARK    6  A    between atoms: C_10  and  C_11
REMARK    7  A    between atoms: C_11  and  N_12
REMARK    8  A    between atoms: C_13  and  C_15
REMARK                            x       y       z     vdW  Elec       q    Type
REMARK                         _______ _______ _______ _____ _____    ______ ____
ROOT
ATOM      1  C   UNL     1      49.556   7.945  15.535  0.00  0.00    +0.000 A 
ATOM      2  C   UNL     1      50.133   7.392  14.378  0.00  0.00    +0.000 A 
ATOM      3  C   UNL     1      49.449   7.393  13.158  0.00  0.00    +0.000 A 
ATOM      4  C   UNL     1      48.172   7.960  13.058  0.00  0.00    +0.000 A 
ATOM      5  C   UNL     1      47.593   8.512  14.206  0.00  0.00    +0.000 A 
ATOM      6  C   UNL     1      48.276   8.510  15.427  0.00  0.00    +0.000 A 
ENDROOT
BRANCH   1   7
ATOM      7  CA  UNL     1      50.271   7.786  16.874  0.00  0.00    +0.000 C 
BRANCH   7  10
ATOM      8  O   UNL     1      48.715   5.612  17.792  0.00  0.00    +0.000 OA
ATOM      9  C   UNL     1      49.898   5.427  17.526  0.00  0.00    +0.000 C 
ATOM     10  N   UNL     1      50.754   6.430  17.108  0.00  0.00    +0.000 N 
ATOM     11  H   UNL     1      51.616   6.100  16.685  0.00  0.00    +0.000 HD
BRANCH   9  12
ATOM     12  CA  UNL     1      50.536   4.112  17.627  0.00  0.00    +0.000 A 
ATOM     13  C   UNL     1      51.692   3.817  18.324  0.00  0.00    +0.000 A 
ATOM     14  N   UNL     1      51.912   2.485  18.121  0.00  0.00    +0.000 N 
ATOM     15  C   UNL     1      50.902   2.019  17.324  0.00  0.00    +0.000 A 
ATOM     16  N   UNL     1      50.056   2.969  17.005  0.00  0.00    +0.000 NA
ATOM     17  H   UNL     1      52.683   1.941  18.489  0.00  0.00    +0.000 HD
ENDBRANCH   9  12
ENDBRANCH   7  10
BRANCH   7  18
ATOM     18  C   UNL     1      51.417   8.834  16.968  0.00  0.00    +0.000 C 
BRANCH  18  19
ATOM     19  O   UNL     1      51.280   9.707  18.097  0.00  0.00    +0.000 OA
ATOM     20  H   UNL     1      52.152   9.746  18.526  0.00  0.00    +0.000 HD
ENDBRANCH  18  19
ENDBRANCH   7  18
ENDBRANCH   1   7
BRANCH   4  21
ATOM     21  C   UNL     1      47.409   7.934  11.760  0.00  0.00    +0.000 C 
BRANCH  21  22
ATOM     22  N   UNL     1      46.773   6.660  11.540  0.00  0.00    +0.000 N 
ATOM     23  C   UNL     1      45.427   6.499  11.754  0.00  0.00    +0.000 C 
ATOM     24  O   UNL     1      44.710   7.435  12.101  0.00  0.00    +0.000 OA
ATOM     25  H   UNL     1      47.373   5.841  11.478  0.00  0.00    +0.000 HD
BRANCH  23  26
ATOM     26  C   UNL     1      44.864   5.169  11.485  0.00  0.00    +0.000 A 
ATOM     27  C   UNL     1      44.157   4.510  12.482  0.00  0.00    +0.000 A 
ATOM     28  S   UNL     1      43.524   3.003  11.993  0.00  0.00    +0.000 S 
ATOM     29  C   UNL     1      44.221   3.153  10.448  0.00  0.00    +0.000 A 
ATOM     30  N   UNL     1      44.079   2.168   9.520  0.00  0.00    +0.000 NA
ATOM     31  C   UNL     1      44.688   2.396   8.405  0.00  0.00    +0.000 A 
ATOM     32  N   UNL     1      45.423   3.521   8.132  0.00  0.00    +0.000 N 
ATOM     33  C   UNL     1      45.569   4.554   9.027  0.00  0.00    +0.000 A 
ATOM     34  O   UNL     1      46.201   5.565   8.741  0.00  0.00    +0.000 OA
ATOM     35  C   UNL     1      44.911   4.343  10.303  0.00  0.00    +0.000 A 
ATOM     36  H   UNL     1      45.869   3.643   7.234  0.00  0.00    +0.000 HD
ENDBRANCH  23  26
ENDBRANCH  21  22
ENDBRANCH   4  21
TORSDOF 8
ENDMDL
MODEL 7
REMARK VINA RESULT:    -6.562      3.549      8.982
REMARK INTER + INTRA:         -10.460
REMARK INTER:                  -9.663
REMARK INTRA:                  -0.798
REMARK UNBOUND:                -1.021
REMARK  Name = 
REMARK  8 active torsions:
REMARK  status: ('A' for Active; 'I' for Inactive)
REMARK    1  A    between atoms: C_2  and  CA_27
REMARK    2  A    between atoms: N_3  and  CA_4
REMARK    3  A    between atoms: CA_4  and  C_5
REMARK    4  A    between atoms: CA_4  and  C_7
REMARK    5  A    between atoms: C_5  and  O_6
REMARK    6  A    between atoms: C_10  and  C_11
REMARK    7  A    between atoms: C_11  and  N_12
REMARK    8  A    between atoms: C_13  and  C_15
REMARK                            x       y       z     vdW  Elec       q    Type
REMARK                         _______ _______ _______ _____ _____    ______ ____
ROOT
ATOM      1  C   UNL     1      49.653   4.845  17.599  0.00  0.00    +0.000 A 
ATOM      2  C   UNL     1      48.386   4.747  16.996  0.00  0.00    +0.000 A 
ATOM      3  C   UNL     1      47.983   5.655  16.011  0.00  0.00    +0.000 A 
ATOM      4  C   UNL     1      48.840   6.680  15.594  0.00  0.00    +0.000 A 
ATOM      5  C   UNL     1      50.102   6.782  16.190  0.00  0.00    +0.000 A 
ATOM      6  C   UNL     1      50.506   5.875  17.176  0.00  0.00    +0.000 A 
ENDROOT
BRANCH   1   7
ATOM      7  CA  UNL     1      49.992   3.930  18.773  0.00  0.00    +0.000 C 
BRANCH   7  10
ATOM      8  O   UNL     1      51.399   1.917  17.375  0.00  0.00    +0.000 OA
ATOM      9  C   UNL     1      52.017   2.661  18.130  0.00  0.00    +0.000 C 
ATOM     10  N   UNL     1      51.418   3.650  18.888  0.00  0.00    +0.000 N 
ATOM     11  H   UNL     1      52.060   4.343  19.261  0.00  0.00    +0.000 HD
BRANCH   9  12
ATOM     12  CA  UNL     1      53.468   2.577  18.311  0.00  0.00    +0.000 A 
ATOM     13  C   UNL     1      54.424   3.241  17.567  0.00  0.00    +0.000 A 
ATOM     14  N   UNL     1      55.626   2.846  18.079  0.00  0.00    +0.000 N 
ATOM     15  C   UNL     1      55.371   1.972  19.099  0.00  0.00    +0.000 A 
ATOM     16  N   UNL     1      54.084   1.784  19.269  0.00  0.00    +0.000 NA
ATOM     17  H   UNL     1      56.540   3.142  17.759  0.00  0.00    +0.000 HD
ENDBRANCH   9  12
ENDBRANCH   7  10
BRANCH   7  18
ATOM     18  C   UNL     1      49.414   4.544  20.081  0.00  0.00    +0.000 C 
BRANCH  18  19
ATOM     19  O   UNL     1      48.448   3.694  20.714  0.00  0.00    +0.000 OA
ATOM     20  H   UNL     1      47.864   4.274  21.232  0.00  0.00    +0.000 HD
ENDBRANCH  18  19
ENDBRANCH   7  18
ENDBRANCH   1   7
BRANCH   4  21
ATOM     21  C   UNL     1      48.405   7.688  14.562  0.00  0.00    +0.000 C 
BRANCH  21  22
ATOM     22  N   UNL     1      47.158   7.313  13.943  0.00  0.00    +0.000 N 
ATOM     23  C   UNL     1      47.133   6.432  12.891  0.00  0.00    +0.000 C 
ATOM     24  O   UNL     1      48.157   5.902  12.465  0.00  0.00    +0.000 OA
ATOM     25  H   UNL     1      46.349   7.901  14.126  0.00  0.00    +0.000 HD
BRANCH  23  26
ATOM     26  C   UNL     1      45.814   6.096  12.337  0.00  0.00    +0.000 A 
ATOM     27  C   UNL     1      45.026   7.100  11.787  0.00  0.00    +0.000 A 
ATOM     28  S   UNL     1      43.553   6.537  11.139  0.00  0.00    +0.000 S 
ATOM     29  C   UNL     1      43.890   4.940  11.621  0.00  0.00    +0.000 A 
ATOM     30  N   UNL     1      43.000   3.937  11.385  0.00  0.00    +0.000 NA
ATOM     31  C   UNL     1      43.368   2.784  11.834  0.00  0.00    +0.000 A 
ATOM     32  N   UNL     1      44.545   2.542  12.493  0.00  0.00    +0.000 N 
ATOM     33  C   UNL     1      45.486   3.516  12.727  0.00  0.00    +0.000 A 
ATOM     34  O   UNL     1      46.547   3.262  13.286  0.00  0.00    +0.000 OA
ATOM     35  C   UNL     1      45.117   4.836  12.251  0.00  0.00    +0.000 A 
ATOM     36  H   UNL     1      44.778   1.612  12.813  0.00  0.00    +0.000 HD
ENDBRANCH  23  26
ENDBRANCH  21  22
ENDBRANCH   4  21
TORSDOF 8
ENDMDL
MODEL 8
REMARK VINA RESULT:    -6.533      4.874      8.551
REMARK INTER + INTRA:         -10.418
REMARK INTER:                  -9.350
REMARK INTRA:                  -1.068
REMARK UNBOUND:                -1.021
REMARK  Name = 
REMARK  8 active torsions:
REMARK  status: ('A' for Active; 'I' for Inactive)
REMARK    1  A    between atoms: C_2  and  CA_27
REMARK    2  A    between atoms: N_3  and  CA_4
REMARK    3  A    between atoms: CA_4  and  C_5
REMARK    4  A    between atoms: CA_4  and  C_7
REMARK    5  A    between atoms: C_5  and  O_6
REMARK    6  A    between atoms: C_10  and  C_11
REMARK    7  A    between atoms: C_11  and  N_12
REMARK    8  A    between atoms: C_13  and  C_15
REMARK                            x       y       z     vdW  Elec       q    Type
REMARK                         _______ _______ _______ _____ _____    ______ ____
ROOT
ATOM      1  C   UNL     1      50.371   8.916  11.294  0.00  0.00    +0.000 A 
ATOM      2  C   UNL     1      49.959   7.606  11.599  0.00  0.00    +0.000 A 
ATOM      3  C   UNL     1      48.706   7.357  12.167  0.00  0.00    +0.000 A 
ATOM      4  C   UNL     1      47.823   8.410  12.435  0.00  0.00    +0.000 A 
ATOM      5  C   UNL     1      48.227   9.716  12.134  0.00  0.00    +0.000 A 
ATOM      6  C   UNL     1      49.481   9.967  11.567  0.00  0.00    +0.000 A 
ENDROOT
BRANCH   1   7
ATOM      7  CA  UNL     1      51.802   9.157  10.819  0.00  0.00    +0.000 C 
BRANCH   7  10
ATOM      8  O   UNL     1      54.062   7.536  11.321  0.00  0.00    +0.000 OA
ATOM      9  C   UNL     1      53.400   7.338  10.307  0.00  0.00    +0.000 C 
ATOM     10  N   UNL     1      52.302   8.099   9.950  0.00  0.00    +0.000 N 
ATOM     11  H   UNL     1      51.709   7.676   9.243  0.00  0.00    +0.000 HD
BRANCH   9  12
ATOM     12  CA  UNL     1      53.710   6.267   9.357  0.00  0.00    +0.000 A 
ATOM     13  C   UNL     1      54.624   5.248   9.546  0.00  0.00    +0.000 A 
ATOM     14  N   UNL     1      54.587   4.506   8.400  0.00  0.00    +0.000 N 
ATOM     15  C   UNL     1      53.669   5.084   7.567  0.00  0.00    +0.000 A 
ATOM     16  N   UNL     1      53.121   6.146   8.107  0.00  0.00    +0.000 NA
ATOM     17  H   UNL     1      55.140   3.682   8.201  0.00  0.00    +0.000 HD
ENDBRANCH   9  12
ENDBRANCH   7  10
BRANCH   7  18
ATOM     18  C   UNL     1      51.885  10.554  10.140  0.00  0.00    +0.000 C 
BRANCH  18  19
ATOM     19  O   UNL     1      52.406  10.493   8.806  0.00  0.00    +0.000 OA
ATOM     20  H   UNL     1      53.042  11.225   8.721  0.00  0.00    +0.000 HD
ENDBRANCH  18  19
ENDBRANCH   7  18
ENDBRANCH   1   7
BRANCH   4  21
ATOM     21  C   UNL     1      46.486   8.159  13.082  0.00  0.00    +0.000 C 
BRANCH  21  22
ATOM     22  N   UNL     1      45.988   6.841  12.785  0.00  0.00    +0.000 N 
ATOM     23  C   UNL     1      45.024   6.653  11.825  0.00  0.00    +0.000 C 
ATOM     24  O   UNL     1      44.582   7.588  11.161  0.00  0.00    +0.000 OA
ATOM     25  H   UNL     1      46.170   6.107  13.464  0.00  0.00    +0.000 HD
BRANCH  23  26
ATOM     26  C   UNL     1      44.591   5.271  11.578  0.00  0.00    +0.000 A 
ATOM     27  C   UNL     1      43.882   4.590  12.559  0.00  0.00    +0.000 A 
ATOM     28  S   UNL     1      43.407   3.019  12.096  0.00  0.00    +0.000 S 
ATOM     29  C   UNL     1      44.181   3.172  10.588  0.00  0.00    +0.000 A 
ATOM     30  N   UNL     1      44.178   2.147   9.694  0.00  0.00    +0.000 NA
ATOM     31  C   UNL     1      44.831   2.386   8.607  0.00  0.00    +0.000 A 
ATOM     32  N   UNL     1      45.486   3.559   8.331  0.00  0.00    +0.000 N 
ATOM     33  C   UNL     1      45.491   4.632   9.191  0.00  0.00    +0.000 A 
ATOM     34  O   UNL     1      46.053   5.682   8.901  0.00  0.00    +0.000 OA
ATOM     35  C   UNL     1      44.778   4.411  10.435  0.00  0.00    +0.000 A 
ATOM     36  H   UNL     1      45.974   3.687   7.456  0.00  0.00    +0.000 HD
ENDBRANCH  23  26
ENDBRANCH  21  22
ENDBRANCH   4  21
TORSDOF 8
ENDMDL
MODEL 9
REMARK VINA RESULT:    -6.393      4.712      6.167
REMARK INTER + INTRA:         -10.217
REMARK INTER:                  -9.109
REMARK INTRA:                  -1.108
REMARK UNBOUND:                -1.021
REMARK  Name = 
REMARK  8 active torsions:
REMARK  status: ('A' for Active; 'I' for Inactive)
REMARK    1  A    between atoms: C_2  and  CA_27
REMARK    2  A    between atoms: N_3  and  CA_4
REMARK    3  A    between atoms: CA_4  and  C_5
REMARK    4  A    between atoms: CA_4  and  C_7
REMARK    5  A    between atoms: C_5  and  O_6
REMARK    6  A    between atoms: C_10  and  C_11
REMARK    7  A    between atoms: C_11  and  N_12
REMARK    8  A    between atoms: C_13  and  C_15
REMARK                            x       y       z     vdW  Elec       q    Type
REMARK                         _______ _______ _______ _____ _____    ______ ____
ROOT
ATOM      1  C   UNL     1      45.822   6.879  12.166  0.00  0.00    +0.000 A 
ATOM      2  C   UNL     1      47.222   6.767  12.228  0.00  0.00    +0.000 A 
ATOM      3  C   UNL     1      48.035   7.902  12.306  0.00  0.00    +0.000 A 
ATOM      4  C   UNL     1      47.469   9.183  12.337  0.00  0.00    +0.000 A 
ATOM      5  C   UNL     1      46.076   9.301  12.277  0.00  0.00    +0.000 A 
ATOM      6  C   UNL     1      45.262   8.166  12.197  0.00  0.00    +0.000 A 
ENDROOT
BRANCH   1   7
ATOM      7  CA  UNL     1      44.983   5.626  11.928  0.00  0.00    +0.000 C 
BRANCH   7  10
ATOM      8  O   UNL     1      43.474   4.650   9.746  0.00  0.00    +0.000 OA
ATOM      9  C   UNL     1      44.674   4.398   9.802  0.00  0.00    +0.000 C 
ATOM     10  N   UNL     1      45.491   4.794  10.844  0.00  0.00    +0.000 N 
ATOM     11  H   UNL     1      46.485   4.744  10.643  0.00  0.00    +0.000 HD
BRANCH   9  12
ATOM     12  CA  UNL     1      45.371   3.640   8.760  0.00  0.00    +0.000 A 
ATOM     13  C   UNL     1      45.554   2.270   8.732  0.00  0.00    +0.000 A 
ATOM     14  N   UNL     1      46.267   2.021   7.594  0.00  0.00    +0.000 N 
ATOM     15  C   UNL     1      46.490   3.221   6.977  0.00  0.00    +0.000 A 
ATOM     16  N   UNL     1      45.967   4.218   7.649  0.00  0.00    +0.000 NA
ATOM     17  H   UNL     1      46.577   1.113   7.268  0.00  0.00    +0.000 HD
ENDBRANCH   9  12
ENDBRANCH   7  10
BRANCH   7  18
ATOM     18  C   UNL     1      44.862   4.833  13.261  0.00  0.00    +0.000 C 
BRANCH  18  19
ATOM     19  O   UNL     1      45.630   3.623  13.259  0.00  0.00    +0.000 OA
ATOM     20  H   UNL     1      45.462   3.188  12.405  0.00  0.00    +0.000 HD
ENDBRANCH  18  19
ENDBRANCH   7  18
ENDBRANCH   1   7
BRANCH   4  21
ATOM     21  C   UNL     1      48.334  10.415  12.382  0.00  0.00    +0.000 C 
BRANCH  21  22
ATOM     22  N   UNL     1      49.713  10.111  12.093  0.00  0.00    +0.000 N 
ATOM     23  C   UNL     1      50.323  10.614  10.971  0.00  0.00    +0.000 C 
ATOM     24  O   UNL     1      49.736  11.367  10.197  0.00  0.00    +0.000 OA
ATOM     25  H   UNL     1      50.132   9.326  12.584  0.00  0.00    +0.000 HD
BRANCH  23  26
ATOM     26  C   UNL     1      51.736  10.264  10.769  0.00  0.00    +0.000 A 
ATOM     27  C   UNL     1      52.682  11.275  10.657  0.00  0.00    +0.000 A 
ATOM     28  S   UNL     1      54.279  10.702  10.482  0.00  0.00    +0.000 S 
ATOM     29  C   UNL     1      53.756   9.083  10.493  0.00  0.00    +0.000 A 
ATOM     30  N   UNL     1      54.644   8.062  10.353  0.00  0.00    +0.000 NA
ATOM     31  C   UNL     1      54.108   6.888  10.344  0.00  0.00    +0.000 A 
ATOM     32  N   UNL     1      52.765   6.642  10.466  0.00  0.00    +0.000 N 
ATOM     33  C   UNL     1      51.835   7.639  10.639  0.00  0.00    +0.000 A 
ATOM     34  O   UNL     1      50.644   7.387  10.783  0.00  0.00    +0.000 OA
ATOM     35  C   UNL     1      52.385   8.982  10.646  0.00  0.00    +0.000 A 
ATOM     36  H   UNL     1      52.408   5.697  10.459  0.00  0.00    +0.000 HD
ENDBRANCH  23  26
ENDBRANCH  21  22
ENDBRANCH   4  21
TORSDOF 8
ENDMDL
