MODEL 1
REMARK VINA RESULT:    -8.115      0.000      0.000
REMARK INTER + INTRA:         -13.271
REMARK INTER:                 -11.910
REMARK INTRA:                  -1.360
REMARK UNBOUND:                -1.360
REMARK  Name = 
REMARK  9 active torsions:
REMARK  status: ('A' for Active; 'I' for Inactive)
REMARK    1  A    between atoms: C_1  and  O_2
REMARK    2  A    between atoms: O_2  and  C_3
REMARK    3  A    between atoms: C_10  and  C_11
REMARK    4  A    between atoms: N_13  and  C_14
REMARK    5  A    between atoms: C_14  and  C_15
REMARK    6  A    between atoms: C_18  and  C_19
REMARK    7  A    between atoms: C_19  and  C_20
REMARK    8  A    between atoms: C_20  and  C_21
REMARK    9  A    between atoms: C_21  and  C_22
REMARK                            x       y       z     vdW  Elec       q    Type
REMARK                         _______ _______ _______ _____ _____    ______ ____
ROOT
ATOM      1  C   UNL     1      48.189   6.763  13.504  0.00  0.00    +0.000 C 
ENDROOT
BRANCH   1   2
ATOM      2  C   UNL     1      46.999   6.116  12.845  0.00  0.00    +0.000 A 
ATOM      3  C   UNL     1      46.337   6.727  11.771  0.00  0.00    +0.000 A 
ATOM      4  C   UNL     1      45.275   6.078  11.128  0.00  0.00    +0.000 A 
ATOM      5  C   UNL     1      44.867   4.801  11.537  0.00  0.00    +0.000 A 
ATOM      6  C   UNL     1      45.494   4.221  12.648  0.00  0.00    +0.000 A 
ATOM      7  C   UNL     1      46.536   4.877  13.303  0.00  0.00    +0.000 A 
BRANCH   5   8
ATOM      8  C   UNL     1      43.768   4.048  10.827  0.00  0.00    +0.000 C 
BRANCH   8   9
ATOM      9  C   UNL     1      44.241   3.065   9.749  0.00  0.00    +0.000 C 
BRANCH   9  10
ATOM     10  C   UNL     1      44.777   3.739   8.480  0.00  0.00    +0.000 C 
BRANCH  10  11
ATOM     11  C   UNL     1      45.851   2.895   7.837  0.00  0.00    +0.000 A 
ATOM     12  C   UNL     1      46.006   1.554   8.202  0.00  0.00    +0.000 A 
ATOM     13  C   UNL     1      47.026   0.817   7.621  0.00  0.00    +0.000 A 
ATOM     14  N   UNL     1      47.893   1.318   6.716  0.00  0.00    +0.000 NA
ATOM     15  C   UNL     1      47.730   2.616   6.378  0.00  0.00    +0.000 A 
ATOM     16  C   UNL     1      46.740   3.434   6.905  0.00  0.00    +0.000 A 
ENDBRANCH  10  11
ENDBRANCH   9  10
ENDBRANCH   8   9
ENDBRANCH   5   8
ENDBRANCH   1   2
BRANCH   1  19
ATOM     17  C   UNL     1      48.972   7.415  15.728  0.00  0.00    +0.000 C 
ATOM     18  O   UNL     1      49.823   8.147  15.230  0.00  0.00    +0.000 OA
ATOM     19  N   UNL     1      48.121   6.686  14.941  0.00  0.00    +0.000 N 
ATOM     20  H   UNL     1      47.426   6.080  15.355  0.00  0.00    +0.000 HD
BRANCH  17  28
ATOM     21  C   UNL     1      48.862   4.724  17.892  0.00  0.00    +0.000 A 
ATOM     22  N   UNL     1      48.771   3.885  18.945  0.00  0.00    +0.000 NA
ATOM     23  C   UNL     1      48.631   4.411  20.163  0.00  0.00    +0.000 A 
ATOM     24  N   UNL     1      48.567   5.701  20.470  0.00  0.00    +0.000 NA
ATOM     25  C   UNL     1      48.645   6.504  19.395  0.00  0.00    +0.000 A 
ATOM     26  S   UNL     1      48.577   8.186  19.609  0.00  0.00    +0.000 S 
ATOM     27  C   UNL     1      48.728   8.452  17.939  0.00  0.00    +0.000 A 
ATOM     28  C   UNL     1      48.835   7.287  17.188  0.00  0.00    +0.000 A 
ATOM     29  C   UNL     1      48.786   6.118  18.064  0.00  0.00    +0.000 A 
BRANCH  21  31
ATOM     30  C   UNL     1      47.917   3.327  16.285  0.00  0.00    +0.000 C 
ATOM     31  O   UNL     1      49.020   4.164  16.639  0.00  0.00    +0.000 OA
ENDBRANCH  21  31
ENDBRANCH  17  28
ENDBRANCH   1  19
TORSDOF 8
ENDMDL
MODEL 2
REMARK VINA RESULT:    -7.975      1.322      2.612
REMARK INTER + INTRA:         -13.064
REMARK INTER:                 -11.841
REMARK INTRA:                  -1.224
REMARK UNBOUND:                -1.360
REMARK  Name = 
REMARK  9 active torsions:
REMARK  status: ('A' for Active; 'I' for Inactive)
REMARK    1  A    between atoms: C_1  and  O_2
REMARK    2  A    between atoms: O_2  and  C_3
REMARK    3  A    between atoms: C_10  and  C_11
REMARK    4  A    between atoms: N_13  and  C_14
REMARK    5  A    between atoms: C_14  and  C_15
REMARK    6  A    between atoms: C_18  and  C_19
REMARK    7  A    between atoms: C_19  and  C_20
REMARK    8  A    between atoms: C_20  and  C_21
REMARK    9  A    between atoms: C_21  and  C_22
REMARK                            x       y       z     vdW  Elec       q    Type
REMARK                         _______ _______ _______ _____ _____    ______ ____
ROOT
ATOM      1  C   UNL     1      47.888   7.136  13.699  0.00  0.00    +0.000 C 
ENDROOT
BRANCH   1   2
ATOM      2  C   UNL     1      46.899   6.342  12.889  0.00  0.00    +0.000 A 
ATOM      3  C   UNL     1      46.272   5.203  13.414  0.00  0.00    +0.000 A 
ATOM      4  C   UNL     1      45.304   4.517  12.669  0.00  0.00    +0.000 A 
ATOM      5  C   UNL     1      44.934   4.966  11.393  0.00  0.00    +0.000 A 
ATOM      6  C   UNL     1      45.606   6.070  10.851  0.00  0.00    +0.000 A 
ATOM      7  C   UNL     1      46.587   6.739  11.584  0.00  0.00    +0.000 A 
BRANCH   5   8
ATOM      8  C   UNL     1      43.852   4.287  10.590  0.00  0.00    +0.000 C 
BRANCH   8   9
ATOM      9  C   UNL     1      44.343   3.227   9.597  0.00  0.00    +0.000 C 
BRANCH   9  10
ATOM     10  C   UNL     1      44.830   3.799   8.260  0.00  0.00    +0.000 C 
BRANCH  10  11
ATOM     11  C   UNL     1      45.894   2.916   7.653  0.00  0.00    +0.000 A 
ATOM     12  C   UNL     1      46.604   3.341   6.526  0.00  0.00    +0.000 A 
ATOM     13  C   UNL     1      47.547   2.490   5.972  0.00  0.00    +0.000 A 
ATOM     14  N   UNL     1      47.825   1.260   6.453  0.00  0.00    +0.000 NA
ATOM     15  C   UNL     1      47.126   0.866   7.540  0.00  0.00    +0.000 A 
ATOM     16  C   UNL     1      46.162   1.645   8.166  0.00  0.00    +0.000 A 
ENDBRANCH  10  11
ENDBRANCH   9  10
ENDBRANCH   8   9
ENDBRANCH   5   8
ENDBRANCH   1   2
BRANCH   1  19
ATOM     17  C   UNL     1      48.985   6.513  15.795  0.00  0.00    +0.000 C 
ATOM     18  O   UNL     1      50.083   6.534  15.244  0.00  0.00    +0.000 OA
ATOM     19  N   UNL     1      47.841   6.795  15.097  0.00  0.00    +0.000 N 
ATOM     20  H   UNL     1      46.939   6.771  15.553  0.00  0.00    +0.000 HD
BRANCH  17  28
ATOM     21  C   UNL     1      47.865   8.253  18.561  0.00  0.00    +0.000 A 
ATOM     22  N   UNL     1      47.512   8.684  19.790  0.00  0.00    +0.000 NA
ATOM     23  C   UNL     1      47.639   7.843  20.818  0.00  0.00    +0.000 A 
ATOM     24  N   UNL     1      48.086   6.593  20.772  0.00  0.00    +0.000 NA
ATOM     25  C   UNL     1      48.443   6.205  19.536  0.00  0.00    +0.000 A 
ATOM     26  S   UNL     1      49.039   4.634  19.299  0.00  0.00    +0.000 S 
ATOM     27  C   UNL     1      49.234   4.908  17.635  0.00  0.00    +0.000 A 
ATOM     28  C   UNL     1      48.854   6.180  17.223  0.00  0.00    +0.000 A 
ATOM     29  C   UNL     1      48.378   6.958  18.365  0.00  0.00    +0.000 A 
BRANCH  21  31
ATOM     30  C   UNL     1      48.841  10.000  17.370  0.00  0.00    +0.000 C 
ATOM     31  O   UNL     1      47.714   9.131  17.506  0.00  0.00    +0.000 OA
ENDBRANCH  21  31
ENDBRANCH  17  28
ENDBRANCH   1  19
TORSDOF 8
ENDMDL
MODEL 3
REMARK VINA RESULT:    -7.710      1.691      1.898
REMARK INTER + INTRA:         -12.676
REMARK INTER:                 -11.232
REMARK INTRA:                  -1.444
REMARK UNBOUND:                -1.360
REMARK  Name = 
REMARK  9 active torsions:
REMARK  status: ('A' for Active; 'I' for Inactive)
REMARK    1  A    between atoms: C_1  and  O_2
REMARK    2  A    between atoms: O_2  and  C_3
REMARK    3  A    between atoms: C_10  and  C_11
REMARK    4  A    between atoms: N_13  and  C_14
REMARK    5  A    between atoms: C_14  and  C_15
REMARK    6  A    between atoms: C_18  and  C_19
REMARK    7  A    between atoms: C_19  and  C_20
REMARK    8  A    between atoms: C_20  and  C_21
REMARK    9  A    between atoms: C_21  and  C_22
REMARK                            x       y       z     vdW  Elec       q    Type
REMARK                         _______ _______ _______ _____ _____    ______ ____
ROOT
ATOM      1  C   UNL     1      47.034   7.711  13.491  0.00  0.00    +0.000 C 
ENDROOT
BRANCH   1   2
ATOM      2  C   UNL     1      46.095   6.684  12.916  0.00  0.00    +0.000 A 
ATOM      3  C   UNL     1      44.912   7.061  12.263  0.00  0.00    +0.000 A 
ATOM      4  C   UNL     1      44.085   6.094  11.676  0.00  0.00    +0.000 A 
ATOM      5  C   UNL     1      44.433   4.737  11.718  0.00  0.00    +0.000 A 
ATOM      6  C   UNL     1      45.585   4.362  12.422  0.00  0.00    +0.000 A 
ATOM      7  C   UNL     1      46.397   5.323  13.027  0.00  0.00    +0.000 A 
BRANCH   5   8
ATOM      8  C   UNL     1      43.597   3.677  11.043  0.00  0.00    +0.000 C 
BRANCH   8   9
ATOM      9  C   UNL     1      44.339   2.819  10.010  0.00  0.00    +0.000 C 
BRANCH   9  10
ATOM     10  C   UNL     1      44.790   3.591   8.764  0.00  0.00    +0.000 C 
BRANCH  10  11
ATOM     11  C   UNL     1      45.859   2.828   8.018  0.00  0.00    +0.000 A 
ATOM     12  C   UNL     1      46.031   1.458   8.239  0.00  0.00    +0.000 A 
ATOM     13  C   UNL     1      47.046   0.797   7.566  0.00  0.00    +0.000 A 
ATOM     14  N   UNL     1      47.893   1.397   6.704  0.00  0.00    +0.000 NA
ATOM     15  C   UNL     1      47.714   2.722   6.508  0.00  0.00    +0.000 A 
ATOM     16  C   UNL     1      46.727   3.471   7.133  0.00  0.00    +0.000 A 
ENDBRANCH  10  11
ENDBRANCH   9  10
ENDBRANCH   8   9
ENDBRANCH   5   8
ENDBRANCH   1   2
BRANCH   1  19
ATOM     17  C   UNL     1      49.019   7.870  14.912  0.00  0.00    +0.000 C 
ATOM     18  O   UNL     1      48.935   9.095  14.918  0.00  0.00    +0.000 OA
ATOM     19  N   UNL     1      48.117   7.105  14.223  0.00  0.00    +0.000 N 
ATOM     20  H   UNL     1      48.193   6.097  14.216  0.00  0.00    +0.000 HD
BRANCH  17  28
ATOM     21  C   UNL     1      49.094   5.136  17.023  0.00  0.00    +0.000 A 
ATOM     22  N   UNL     1      49.415   4.138  17.872  0.00  0.00    +0.000 NA
ATOM     23  C   UNL     1      50.694   3.990  18.221  0.00  0.00    +0.000 A 
ATOM     24  N   UNL     1      51.719   4.734  17.820  0.00  0.00    +0.000 NA
ATOM     25  C   UNL     1      51.358   5.727  16.990  0.00  0.00    +0.000 A 
ATOM     26  S   UNL     1      52.547   6.775  16.384  0.00  0.00    +0.000 S 
ATOM     27  C   UNL     1      51.392   7.651  15.502  0.00  0.00    +0.000 A 
ATOM     28  C   UNL     1      50.093   7.175  15.641  0.00  0.00    +0.000 A 
ATOM     29  C   UNL     1      50.074   6.018  16.534  0.00  0.00    +0.000 A 
BRANCH  21  31
ATOM     30  C   UNL     1      47.172   4.005  16.349  0.00  0.00    +0.000 C 
ATOM     31  O   UNL     1      47.768   5.267  16.660  0.00  0.00    +0.000 OA
ENDBRANCH  21  31
ENDBRANCH  17  28
ENDBRANCH   1  19
TORSDOF 8
ENDMDL
MODEL 4
REMARK VINA RESULT:    -7.669      1.782      3.403
REMARK INTER + INTRA:         -12.616
REMARK INTER:                 -11.008
REMARK INTRA:                  -1.609
REMARK UNBOUND:                -1.360
REMARK  Name = 
REMARK  9 active torsions:
REMARK  status: ('A' for Active; 'I' for Inactive)
REMARK    1  A    between atoms: C_1  and  O_2
REMARK    2  A    between atoms: O_2  and  C_3
REMARK    3  A    between atoms: C_10  and  C_11
REMARK    4  A    between atoms: N_13  and  C_14
REMARK    5  A    between atoms: C_14  and  C_15
REMARK    6  A    between atoms: C_18  and  C_19
REMARK    7  A    between atoms: C_19  and  C_20
REMARK    8  A    between atoms: C_20  and  C_21
REMARK    9  A    between atoms: C_21  and  C_22
REMARK                            x       y       z     vdW  Elec       q    Type
REMARK                         _______ _______ _______ _____ _____    ______ ____
ROOT
ATOM      1  C   UNL     1      47.161   4.362  15.013  0.00  0.00    +0.000 C 
ENDROOT
BRANCH   1   2
ATOM      2  C   UNL     1      46.360   4.422  13.739  0.00  0.00    +0.000 A 
ATOM      3  C   UNL     1      46.039   3.260  13.023  0.00  0.00    +0.000 A 
ATOM      4  C   UNL     1      45.236   3.330  11.877  0.00  0.00    +0.000 A 
ATOM      5  C   UNL     1      44.727   4.559  11.437  0.00  0.00    +0.000 A 
ATOM      6  C   UNL     1      45.099   5.723  12.123  0.00  0.00    +0.000 A 
ATOM      7  C   UNL     1      45.918   5.657  13.251  0.00  0.00    +0.000 A 
BRANCH   5   8
ATOM      8  C   UNL     1      43.809   4.662  10.243  0.00  0.00    +0.000 C 
BRANCH   8   9
ATOM      9  C   UNL     1      44.227   3.830   9.024  0.00  0.00    +0.000 C 
BRANCH   9  10
ATOM     10  C   UNL     1      45.510   4.321   8.341  0.00  0.00    +0.000 C 
BRANCH  10  11
ATOM     11  C   UNL     1      46.241   3.175   7.686  0.00  0.00    +0.000 A 
ATOM     12  C   UNL     1      46.182   1.892   8.240  0.00  0.00    +0.000 A 
ATOM     13  C   UNL     1      46.897   0.870   7.635  0.00  0.00    +0.000 A 
ATOM     14  N   UNL     1      47.659   1.036   6.534  0.00  0.00    +0.000 NA
ATOM     15  C   UNL     1      47.706   2.282   6.015  0.00  0.00    +0.000 A 
ATOM     16  C   UNL     1      47.027   3.369   6.548  0.00  0.00    +0.000 A 
ENDBRANCH  10  11
ENDBRANCH   9  10
ENDBRANCH   8   9
ENDBRANCH   5   8
ENDBRANCH   1   2
BRANCH   1  19
ATOM     17  C   UNL     1      48.641   5.842  16.280  0.00  0.00    +0.000 C 
ATOM     18  O   UNL     1      49.313   4.882  16.645  0.00  0.00    +0.000 OA
ATOM     19  N   UNL     1      47.549   5.672  15.471  0.00  0.00    +0.000 N 
ATOM     20  H   UNL     1      46.995   6.465  15.178  0.00  0.00    +0.000 HD
BRANCH  17  28
ATOM     21  C   UNL     1      48.761   8.882  14.642  0.00  0.00    +0.000 A 
ATOM     22  N   UNL     1      48.911  10.169  14.267  0.00  0.00    +0.000 NA
ATOM     23  C   UNL     1      49.288  11.057  15.188  0.00  0.00    +0.000 A 
ATOM     24  N   UNL     1      49.543  10.815  16.468  0.00  0.00    +0.000 NA
ATOM     25  C   UNL     1      49.400   9.521  16.800  0.00  0.00    +0.000 A 
ATOM     26  S   UNL     1      49.691   9.038  18.401  0.00  0.00    +0.000 S 
ATOM     27  C   UNL     1      49.326   7.423  18.029  0.00  0.00    +0.000 A 
ATOM     28  C   UNL     1      48.977   7.213  16.699  0.00  0.00    +0.000 A 
ATOM     29  C   UNL     1      49.020   8.474  15.963  0.00  0.00    +0.000 A 
BRANCH  21  31
ATOM     30  C   UNL     1      49.463   7.450  12.943  0.00  0.00    +0.000 C 
ATOM     31  O   UNL     1      48.357   7.977  13.680  0.00  0.00    +0.000 OA
ENDBRANCH  21  31
ENDBRANCH  17  28
ENDBRANCH   1  19
TORSDOF 8
ENDMDL
MODEL 5
REMARK VINA RESULT:    -7.503      1.800      2.557
REMARK INTER + INTRA:         -12.372
REMARK INTER:                 -11.018
REMARK INTRA:                  -1.354
REMARK UNBOUND:                -1.360
REMARK  Name = 
REMARK  9 active torsions:
REMARK  status: ('A' for Active; 'I' for Inactive)
REMARK    1  A    between atoms: C_1  and  O_2
REMARK    2  A    between atoms: O_2  and  C_3
REMARK    3  A    between atoms: C_10  and  C_11
REMARK    4  A    between atoms: N_13  and  C_14
REMARK    5  A    between atoms: C_14  and  C_15
REMARK    6  A    between atoms: C_18  and  C_19
REMARK    7  A    between atoms: C_19  and  C_20
REMARK    8  A    between atoms: C_20  and  C_21
REMARK    9  A    between atoms: C_21  and  C_22
REMARK                            x       y       z     vdW  Elec       q    Type
REMARK                         _______ _______ _______ _____ _____    ______ ____
ROOT
ATOM      1  C   UNL     1      47.156   3.980  15.493  0.00  0.00    +0.000 C 
ENDROOT
BRANCH   1   2
ATOM      2  C   UNL     1      46.724   4.401  14.114  0.00  0.00    +0.000 A 
ATOM      3  C   UNL     1      45.997   3.538  13.280  0.00  0.00    +0.000 A 
ATOM      4  C   UNL     1      45.546   3.973  12.027  0.00  0.00    +0.000 A 
ATOM      5  C   UNL     1      45.799   5.281  11.592  0.00  0.00    +0.000 A 
ATOM      6  C   UNL     1      46.575   6.119  12.404  0.00  0.00    +0.000 A 
ATOM      7  C   UNL     1      47.045   5.679  13.642  0.00  0.00    +0.000 A 
BRANCH   5   8
ATOM      8  C   UNL     1      45.274   5.800  10.275  0.00  0.00    +0.000 C 
BRANCH   8   9
ATOM      9  C   UNL     1      45.913   5.178   9.027  0.00  0.00    +0.000 C 
BRANCH   9  10
ATOM     10  C   UNL     1      45.084   4.053   8.395  0.00  0.00    +0.000 C 
BRANCH  10  11
ATOM     11  C   UNL     1      45.978   3.051   7.704  0.00  0.00    +0.000 A 
ATOM     12  C   UNL     1      46.123   1.761   8.223  0.00  0.00    +0.000 A 
ATOM     13  C   UNL     1      46.981   0.878   7.585  0.00  0.00    +0.000 A 
ATOM     14  N   UNL     1      47.698   1.189   6.485  0.00  0.00    +0.000 NA
ATOM     15  C   UNL     1      47.547   2.441   6.001  0.00  0.00    +0.000 A 
ATOM     16  C   UNL     1      46.713   3.396   6.568  0.00  0.00    +0.000 A 
ENDBRANCH  10  11
ENDBRANCH   9  10
ENDBRANCH   8   9
ENDBRANCH   5   8
ENDBRANCH   1   2
BRANCH   1  19
ATOM     17  C   UNL     1      47.623   5.284  17.509  0.00  0.00    +0.000 C 
ATOM     18  O   UNL     1      46.798   4.630  18.141  0.00  0.00    +0.000 OA
ATOM     19  N   UNL     1      47.859   5.029  16.185  0.00  0.00    +0.000 N 
ATOM     20  H   UNL     1      48.535   5.574  15.666  0.00  0.00    +0.000 HD
BRANCH  17  28
ATOM     21  C   UNL     1      50.985   6.064  17.672  0.00  0.00    +0.000 A 
ATOM     22  N   UNL     1      52.203   6.590  17.916  0.00  0.00    +0.000 NA
ATOM     23  C   UNL     1      52.277   7.703  18.646  0.00  0.00    +0.000 A 
ATOM     24  N   UNL     1      51.262   8.374  19.179  0.00  0.00    +0.000 NA
ATOM     25  C   UNL     1      50.068   7.811  18.929  0.00  0.00    +0.000 A 
ATOM     26  S   UNL     1      48.663   8.541  19.540  0.00  0.00    +0.000 S 
ATOM     27  C   UNL     1      47.683   7.339  18.850  0.00  0.00    +0.000 A 
ATOM     28  C   UNL     1      48.387   6.369  18.146  0.00  0.00    +0.000 A 
ATOM     29  C   UNL     1      49.820   6.655  18.193  0.00  0.00    +0.000 A 
BRANCH  21  31
ATOM     30  C   UNL     1      51.052   3.736  17.694  0.00  0.00    +0.000 C 
ATOM     31  O   UNL     1      50.924   4.919  16.902  0.00  0.00    +0.000 OA
ENDBRANCH  21  31
ENDBRANCH  17  28
ENDBRANCH   1  19
TORSDOF 8
ENDMDL
MODEL 6
REMARK VINA RESULT:    -7.472      1.563      2.892
REMARK INTER + INTRA:         -12.326
REMARK INTER:                 -11.087
REMARK INTRA:                  -1.239
REMARK UNBOUND:                -1.360
REMARK  Name = 
REMARK  9 active torsions:
REMARK  status: ('A' for Active; 'I' for Inactive)
REMARK    1  A    between atoms: C_1  and  O_2
REMARK    2  A    between atoms: O_2  and  C_3
REMARK    3  A    between atoms: C_10  and  C_11
REMARK    4  A    between atoms: N_13  and  C_14
REMARK    5  A    between atoms: C_14  and  C_15
REMARK    6  A    between atoms: C_18  and  C_19
REMARK    7  A    between atoms: C_19  and  C_20
REMARK    8  A    between atoms: C_20  and  C_21
REMARK    9  A    between atoms: C_21  and  C_22
REMARK                            x       y       z     vdW  Elec       q    Type
REMARK                         _______ _______ _______ _____ _____    ______ ____
ROOT
ATOM      1  C   UNL     1      47.505   3.952  15.329  0.00  0.00    +0.000 C 
ENDROOT
BRANCH   1   2
ATOM      2  C   UNL     1      46.790   4.405  14.084  0.00  0.00    +0.000 A 
ATOM      3  C   UNL     1      46.820   5.744  13.671  0.00  0.00    +0.000 A 
ATOM      4  C   UNL     1      46.205   6.133  12.473  0.00  0.00    +0.000 A 
ATOM      5  C   UNL     1      45.564   5.187  11.661  0.00  0.00    +0.000 A 
ATOM      6  C   UNL     1      45.487   3.861  12.109  0.00  0.00    +0.000 A 
ATOM      7  C   UNL     1      46.079   3.479  13.313  0.00  0.00    +0.000 A 
BRANCH   5   8
ATOM      8  C   UNL     1      44.945   5.561  10.336  0.00  0.00    +0.000 C 
BRANCH   8   9
ATOM      9  C   UNL     1      45.685   5.036   9.099  0.00  0.00    +0.000 C 
BRANCH   9  10
ATOM     10  C   UNL     1      44.946   3.916   8.356  0.00  0.00    +0.000 C 
BRANCH  10  11
ATOM     11  C   UNL     1      45.925   2.955   7.724  0.00  0.00    +0.000 A 
ATOM     12  C   UNL     1      46.040   1.648   8.207  0.00  0.00    +0.000 A 
ATOM     13  C   UNL     1      46.975   0.803   7.629  0.00  0.00    +0.000 A 
ATOM     14  N   UNL     1      47.795   1.167   6.621  0.00  0.00    +0.000 NA
ATOM     15  C   UNL     1      47.672   2.435   6.171  0.00  0.00    +0.000 A 
ATOM     16  C   UNL     1      46.766   3.354   6.684  0.00  0.00    +0.000 A 
ENDBRANCH  10  11
ENDBRANCH   9  10
ENDBRANCH   8   9
ENDBRANCH   5   8
ENDBRANCH   1   2
BRANCH   1  19
ATOM     17  C   UNL     1      48.461   5.448  17.012  0.00  0.00    +0.000 C 
ATOM     18  O   UNL     1      49.597   5.148  16.656  0.00  0.00    +0.000 OA
ATOM     19  N   UNL     1      47.364   4.895  16.409  0.00  0.00    +0.000 N 
ATOM     20  H   UNL     1      46.430   5.141  16.709  0.00  0.00    +0.000 HD
BRANCH  17  28
ATOM     21  C   UNL     1      48.189   8.890  17.149  0.00  0.00    +0.000 A 
ATOM     22  N   UNL     1      48.064  10.187  17.498  0.00  0.00    +0.000 NA
ATOM     23  C   UNL     1      47.858  10.479  18.784  0.00  0.00    +0.000 A 
ATOM     24  N   UNL     1      47.762   9.617  19.790  0.00  0.00    +0.000 NA
ATOM     25  C   UNL     1      47.908   8.338  19.405  0.00  0.00    +0.000 A 
ATOM     26  S   UNL     1      47.815   7.107  20.569  0.00  0.00    +0.000 S 
ATOM     27  C   UNL     1      48.074   5.911  19.392  0.00  0.00    +0.000 A 
ATOM     28  C   UNL     1      48.233   6.410  18.104  0.00  0.00    +0.000 A 
ATOM     29  C   UNL     1      48.132   7.868  18.113  0.00  0.00    +0.000 A 
BRANCH  21  31
ATOM     30  C   UNL     1      49.772   8.635  15.459  0.00  0.00    +0.000 C 
ATOM     31  O   UNL     1      48.388   8.603  15.812  0.00  0.00    +0.000 OA
ENDBRANCH  21  31
ENDBRANCH  17  28
ENDBRANCH   1  19
TORSDOF 8
ENDMDL
MODEL 7
REMARK VINA RESULT:    -6.954      3.612      8.147
REMARK INTER + INTRA:         -11.566
REMARK INTER:                  -9.782
REMARK INTRA:                  -1.785
REMARK UNBOUND:                -1.360
REMARK  Name = 
REMARK  9 active torsions:
REMARK  status: ('A' for Active; 'I' for Inactive)
REMARK    1  A    between atoms: C_1  and  O_2
REMARK    2  A    between atoms: O_2  and  C_3
REMARK    3  A    between atoms: C_10  and  C_11
REMARK    4  A    between atoms: N_13  and  C_14
REMARK    5  A    between atoms: C_14  and  C_15
REMARK    6  A    between atoms: C_18  and  C_19
REMARK    7  A    between atoms: C_19  and  C_20
REMARK    8  A    between atoms: C_20  and  C_21
REMARK    9  A    between atoms: C_21  and  C_22
REMARK                            x       y       z     vdW  Elec       q    Type
REMARK                         _______ _______ _______ _____ _____    ______ ____
ROOT
ATOM      1  C   UNL     1      48.523   8.056  11.942  0.00  0.00    +0.000 C 
ENDROOT
BRANCH   1   2
ATOM      2  C   UNL     1      48.632   7.964  13.441  0.00  0.00    +0.000 A 
ATOM      3  C   UNL     1      48.247   9.029  14.268  0.00  0.00    +0.000 A 
ATOM      4  C   UNL     1      48.293   8.899  15.663  0.00  0.00    +0.000 A 
ATOM      5  C   UNL     1      48.708   7.698  16.254  0.00  0.00    +0.000 A 
ATOM      6  C   UNL     1      49.146   6.658  15.423  0.00  0.00    +0.000 A 
ATOM      7  C   UNL     1      49.123   6.796  14.034  0.00  0.00    +0.000 A 
BRANCH   5   8
ATOM      8  C   UNL     1      48.710   7.503  17.751  0.00  0.00    +0.000 C 
BRANCH   8   9
ATOM      9  C   UNL     1      49.580   6.346  18.258  0.00  0.00    +0.000 C 
BRANCH   9  10
ATOM     10  C   UNL     1      48.781   5.133  18.751  0.00  0.00    +0.000 C 
BRANCH  10  11
ATOM     11  C   UNL     1      49.080   3.915  17.910  0.00  0.00    +0.000 A 
ATOM     12  C   UNL     1      50.372   3.381  17.879  0.00  0.00    +0.000 A 
ATOM     13  C   UNL     1      50.621   2.286  17.066  0.00  0.00    +0.000 A 
ATOM     14  N   UNL     1      49.687   1.697  16.290  0.00  0.00    +0.000 NA
ATOM     15  C   UNL     1      48.446   2.231  16.331  0.00  0.00    +0.000 A 
ATOM     16  C   UNL     1      48.099   3.325  17.112  0.00  0.00    +0.000 A 
ENDBRANCH  10  11
ENDBRANCH   9  10
ENDBRANCH   8   9
ENDBRANCH   5   8
ENDBRANCH   1   2
BRANCH   1  19
ATOM     17  C   UNL     1      46.422   6.928  11.396  0.00  0.00    +0.000 C 
ATOM     18  O   UNL     1      45.781   7.849  11.892  0.00  0.00    +0.000 OA
ATOM     19  N   UNL     1      47.791   6.948  11.383  0.00  0.00    +0.000 N 
ATOM     20  H   UNL     1      48.315   6.185  10.979  0.00  0.00    +0.000 HD
BRANCH  17  28
ATOM     21  C   UNL     1      44.526   4.343  12.684  0.00  0.00    +0.000 A 
ATOM     22  N   UNL     1      43.788   3.235  12.903  0.00  0.00    +0.000 NA
ATOM     23  C   UNL     1      43.453   2.480  11.855  0.00  0.00    +0.000 A 
ATOM     24  N   UNL     1      43.773   2.696  10.584  0.00  0.00    +0.000 NA
ATOM     25  C   UNL     1      44.521   3.798  10.408  0.00  0.00    +0.000 A 
ATOM     26  S   UNL     1      45.020   4.221   8.842  0.00  0.00    +0.000 S 
ATOM     27  C   UNL     1      45.834   5.593   9.421  0.00  0.00    +0.000 A 
ATOM     28  C   UNL     1      45.748   5.763  10.798  0.00  0.00    +0.000 A 
ATOM     29  C   UNL     1      44.957   4.686  11.390  0.00  0.00    +0.000 A 
BRANCH  21  31
ATOM     30  C   UNL     1      46.136   4.787  14.307  0.00  0.00    +0.000 C 
ATOM     31  O   UNL     1      44.852   5.122  13.777  0.00  0.00    +0.000 OA
ENDBRANCH  21  31
ENDBRANCH  17  28
ENDBRANCH   1  19
TORSDOF 8
ENDMDL
MODEL 8
REMARK VINA RESULT:    -6.816      3.071      5.051
REMARK INTER + INTRA:         -11.364
REMARK INTER:                 -10.081
REMARK INTRA:                  -1.283
REMARK UNBOUND:                -1.360
REMARK  Name = 
REMARK  9 active torsions:
REMARK  status: ('A' for Active; 'I' for Inactive)
REMARK    1  A    between atoms: C_1  and  O_2
REMARK    2  A    between atoms: O_2  and  C_3
REMARK    3  A    between atoms: C_10  and  C_11
REMARK    4  A    between atoms: N_13  and  C_14
REMARK    5  A    between atoms: C_14  and  C_15
REMARK    6  A    between atoms: C_18  and  C_19
REMARK    7  A    between atoms: C_19  and  C_20
REMARK    8  A    between atoms: C_20  and  C_21
REMARK    9  A    between atoms: C_21  and  C_22
REMARK                            x       y       z     vdW  Elec       q    Type
REMARK                         _______ _______ _______ _____ _____    ______ ____
ROOT
ATOM      1  C   UNL     1      47.692   5.931  14.280  0.00  0.00    +0.000 C 
ENDROOT
BRANCH   1   2
ATOM      2  C   UNL     1      46.727   5.536  13.194  0.00  0.00    +0.000 A 
ATOM      3  C   UNL     1      46.009   4.333  13.257  0.00  0.00    +0.000 A 
ATOM      4  C   UNL     1      45.067   4.015  12.270  0.00  0.00    +0.000 A 
ATOM      5  C   UNL     1      44.814   4.900  11.213  0.00  0.00    +0.000 A 
ATOM      6  C   UNL     1      45.577   6.073  11.124  0.00  0.00    +0.000 A 
ATOM      7  C   UNL     1      46.532   6.378  12.094  0.00  0.00    +0.000 A 
BRANCH   5   8
ATOM      8  C   UNL     1      43.762   4.617  10.168  0.00  0.00    +0.000 C 
BRANCH   8   9
ATOM      9  C   UNL     1      44.283   3.982   8.873  0.00  0.00    +0.000 C 
BRANCH   9  10
ATOM     10  C   UNL     1      44.674   2.506   9.013  0.00  0.00    +0.000 C 
BRANCH  10  11
ATOM     11  C   UNL     1      45.882   2.187   8.165  0.00  0.00    +0.000 A 
ATOM     12  C   UNL     1      46.571   3.212   7.508  0.00  0.00    +0.000 A 
ATOM     13  C   UNL     1      47.652   2.881   6.707  0.00  0.00    +0.000 A 
ATOM     14  N   UNL     1      48.086   1.617   6.513  0.00  0.00    +0.000 NA
ATOM     15  C   UNL     1      47.405   0.642   7.152  0.00  0.00    +0.000 A 
ATOM     16  C   UNL     1      46.311   0.872   7.975  0.00  0.00    +0.000 A 
ENDBRANCH  10  11
ENDBRANCH   9  10
ENDBRANCH   8   9
ENDBRANCH   5   8
ENDBRANCH   1   2
BRANCH   1  19
ATOM     17  C   UNL     1      49.774   7.177  14.588  0.00  0.00    +0.000 C 
ATOM     18  O   UNL     1      49.887   6.737  15.728  0.00  0.00    +0.000 OA
ATOM     19  N   UNL     1      48.709   6.832  13.801  0.00  0.00    +0.000 N 
ATOM     20  H   UNL     1      48.617   7.202  12.864  0.00  0.00    +0.000 HD
BRANCH  17  28
ATOM     21  C   UNL     1      49.701   9.527  12.056  0.00  0.00    +0.000 A 
ATOM     22  N   UNL     1      49.965  10.471  11.130  0.00  0.00    +0.000 NA
ATOM     23  C   UNL     1      51.194  10.989  11.085  0.00  0.00    +0.000 A 
ATOM     24  N   UNL     1      52.219  10.672  11.869  0.00  0.00    +0.000 NA
ATOM     25  C   UNL     1      51.922   9.717  12.767  0.00  0.00    +0.000 A 
ATOM     26  S   UNL     1      53.121   9.193  13.846  0.00  0.00    +0.000 S 
ATOM     27  C   UNL     1      52.052   8.093  14.573  0.00  0.00    +0.000 A 
ATOM     28  C   UNL     1      50.775   8.098  14.023  0.00  0.00    +0.000 A 
ATOM     29  C   UNL     1      50.698   9.076  12.939  0.00  0.00    +0.000 A 
BRANCH  21  31
ATOM     30  C   UNL     1      47.454  10.009  12.435  0.00  0.00    +0.000 C 
ATOM     31  O   UNL     1      48.420   9.011  12.098  0.00  0.00    +0.000 OA
ENDBRANCH  21  31
ENDBRANCH  17  28
ENDBRANCH   1  19
TORSDOF 8
ENDMDL
MODEL 9
REMARK VINA RESULT:    -6.786      3.441      5.338
REMARK INTER + INTRA:         -11.320
REMARK INTER:                  -9.767
REMARK INTRA:                  -1.553
REMARK UNBOUND:                -1.360
REMARK  Name = 
REMARK  9 active torsions:
REMARK  status: ('A' for Active; 'I' for Inactive)
REMARK    1  A    between atoms: C_1  and  O_2
REMARK    2  A    between atoms: O_2  and  C_3
REMARK    3  A    between atoms: C_10  and  C_11
REMARK    4  A    between atoms: N_13  and  C_14
REMARK    5  A    between atoms: C_14  and  C_15
REMARK    6  A    between atoms: C_18  and  C_19
REMARK    7  A    between atoms: C_19  and  C_20
REMARK    8  A    between atoms: C_20  and  C_21
REMARK    9  A    between atoms: C_21  and  C_22
REMARK                            x       y       z     vdW  Elec       q    Type
REMARK                         _______ _______ _______ _____ _____    ______ ____
ROOT
ATOM      1  C   UNL     1      47.868   3.343  17.245  0.00  0.00    +0.000 C 
ENDROOT
BRANCH   1   2
ATOM      2  C   UNL     1      47.801   4.276  16.066  0.00  0.00    +0.000 A 
ATOM      3  C   UNL     1      47.155   3.907  14.877  0.00  0.00    +0.000 A 
ATOM      4  C   UNL     1      47.045   4.815  13.816  0.00  0.00    +0.000 A 
ATOM      5  C   UNL     1      47.564   6.112  13.930  0.00  0.00    +0.000 A 
ATOM      6  C   UNL     1      48.260   6.455  15.097  0.00  0.00    +0.000 A 
ATOM      7  C   UNL     1      48.390   5.543  16.145  0.00  0.00    +0.000 A 
BRANCH   5   8
ATOM      8  C   UNL     1      47.409   7.134  12.829  0.00  0.00    +0.000 C 
BRANCH   8   9
ATOM      9  C   UNL     1      46.871   6.587  11.501  0.00  0.00    +0.000 C 
BRANCH   9  10
ATOM     10  C   UNL     1      45.353   6.727  11.336  0.00  0.00    +0.000 C 
BRANCH  10  11
ATOM     11  C   UNL     1      44.697   5.371  11.233  0.00  0.00    +0.000 A 
ATOM     12  C   UNL     1      44.944   4.551  10.127  0.00  0.00    +0.000 A 
ATOM     13  C   UNL     1      44.296   3.328  10.045  0.00  0.00    +0.000 A 
ATOM     14  N   UNL     1      43.428   2.874  10.973  0.00  0.00    +0.000 NA
ATOM     15  C   UNL     1      43.199   3.682  12.032  0.00  0.00    +0.000 A 
ATOM     16  C   UNL     1      43.799   4.922  12.203  0.00  0.00    +0.000 A 
ENDBRANCH  10  11
ENDBRANCH   9  10
ENDBRANCH   8   9
ENDBRANCH   5   8
ENDBRANCH   1   2
BRANCH   1  19
ATOM     17  C   UNL     1      50.075   2.312  17.027  0.00  0.00    +0.000 C 
ATOM     18  O   UNL     1      49.711   1.710  16.021  0.00  0.00    +0.000 OA
ATOM     19  N   UNL     1      49.219   3.141  17.701  0.00  0.00    +0.000 N 
ATOM     20  H   UNL     1      49.521   3.630  18.532  0.00  0.00    +0.000 HD
BRANCH  17  28
ATOM     21  C   UNL     1      52.354   4.507  18.414  0.00  0.00    +0.000 A 
ATOM     22  N   UNL     1      53.424   5.123  18.957  0.00  0.00    +0.000 NA
ATOM     23  C   UNL     1      54.502   4.389  19.240  0.00  0.00    +0.000 A 
ATOM     24  N   UNL     1      54.650   3.084  19.042  0.00  0.00    +0.000 NA
ATOM     25  C   UNL     1      53.570   2.509  18.485  0.00  0.00    +0.000 A 
ATOM     26  S   UNL     1      53.592   0.843  18.162  0.00  0.00    +0.000 S 
ATOM     27  C   UNL     1      52.017   0.897  17.532  0.00  0.00    +0.000 A 
ATOM     28  C   UNL     1      51.442   2.163  17.552  0.00  0.00    +0.000 A 
ATOM     29  C   UNL     1      52.376   3.130  18.127  0.00  0.00    +0.000 A 
BRANCH  21  31
ATOM     30  C   UNL     1      50.744   5.932  19.309  0.00  0.00    +0.000 C 
ATOM     31  O   UNL     1      51.242   5.278  18.140  0.00  0.00    +0.000 OA
ENDBRANCH  21  31
ENDBRANCH  17  28
ENDBRANCH   1  19
TORSDOF 8
ENDMDL
