MODEL 1
REMARK VINA RESULT:    -7.031      0.000      0.000
REMARK INTER + INTRA:          -9.228
REMARK INTER:                  -8.881
REMARK INTRA:                  -0.347
REMARK UNBOUND:                -0.347
REMARK  Name = 
REMARK  5 active torsions:
REMARK  status: ('A' for Active; 'I' for Inactive)
REMARK    1  A    between atoms: N_1  and  C_2
REMARK    2  A    between atoms: C_2  and  C_3
REMARK    3  A    between atoms: C_6  and  C_7
REMARK    4  A    between atoms: C_7  and  O_8
REMARK    5  A    between atoms: O_8  and  C_9
REMARK                            x       y       z     vdW  Elec       q    Type
REMARK                         _______ _______ _______ _____ _____    ______ ____
ROOT
ATOM      1  C   UNL     1      46.351   4.582  13.455  0.00  0.00    +0.000 A 
ATOM      2  C   UNL     1      45.847   3.382  12.998  0.00  0.00    +0.000 A 
ATOM      3  N   UNL     1      45.133   3.249  11.862  0.00  0.00    +0.000 NA
ATOM      4  C   UNL     1      44.914   4.377  11.154  0.00  0.00    +0.000 A 
ATOM      5  N   UNL     1      45.375   5.596  11.503  0.00  0.00    +0.000 NA
ATOM      6  C   UNL     1      46.079   5.667  12.649  0.00  0.00    +0.000 A 
ENDROOT
BRANCH   1   7
ATOM      7  C   UNL     1      47.101   4.701  14.740  0.00  0.00    +0.000 C 
BRANCH   7   8
ATOM      8  N   UNL     1      47.530   3.402  15.242  0.00  0.00    +0.000 NA
ATOM      9  H   UNL     1      46.881   3.090  15.963  0.00  0.00    +0.000 HD
ATOM     10  H   UNL     1      48.436   3.498  15.701  0.00  0.00    +0.000 HD
ENDBRANCH   7   8
ENDBRANCH   1   7
BRANCH   4  11
ATOM     11  C   UNL     1      44.105   4.264   9.883  0.00  0.00    +0.000 C 
BRANCH  11  12
ATOM     12  O   UNL     1      44.233   2.948   9.337  0.00  0.00    +0.000 OA
BRANCH  12  13
ATOM     13  C   UNL     1      45.238   2.760   8.429  0.00  0.00    +0.000 A 
ATOM     14  C   UNL     1      45.708   3.711   7.520  0.00  0.00    +0.000 A 
ATOM     15  C   UNL     1      46.748   3.391   6.644  0.00  0.00    +0.000 A 
ATOM     16  C   UNL     1      47.311   2.121   6.678  0.00  0.00    +0.000 A 
ATOM     17  F   UNL     1      48.308   1.821   5.837  0.00  0.00    +0.000 F 
ATOM     18  C   UNL     1      46.854   1.163   7.574  0.00  0.00    +0.000 A 
ATOM     19  C   UNL     1      45.815   1.484   8.449  0.00  0.00    +0.000 A 
ENDBRANCH  12  13
ENDBRANCH  11  12
ENDBRANCH   4  11
TORSDOF 5
ENDMDL
MODEL 2
REMARK VINA RESULT:    -7.018      1.011      1.883
REMARK INTER + INTRA:          -9.212
REMARK INTER:                  -8.841
REMARK INTRA:                  -0.371
REMARK UNBOUND:                -0.347
REMARK  Name = 
REMARK  5 active torsions:
REMARK  status: ('A' for Active; 'I' for Inactive)
REMARK    1  A    between atoms: N_1  and  C_2
REMARK    2  A    between atoms: C_2  and  C_3
REMARK    3  A    between atoms: C_6  and  C_7
REMARK    4  A    between atoms: C_7  and  O_8
REMARK    5  A    between atoms: O_8  and  C_9
REMARK                            x       y       z     vdW  Elec       q    Type
REMARK                         _______ _______ _______ _____ _____    ______ ____
ROOT
ATOM      1  C   UNL     1      46.717   5.403  13.268  0.00  0.00    +0.000 A 
ATOM      2  C   UNL     1      45.943   5.964  12.272  0.00  0.00    +0.000 A 
ATOM      3  N   UNL     1      45.043   5.278  11.541  0.00  0.00    +0.000 NA
ATOM      4  C   UNL     1      44.916   3.964  11.822  0.00  0.00    +0.000 A 
ATOM      5  N   UNL     1      45.610   3.321  12.785  0.00  0.00    +0.000 NA
ATOM      6  C   UNL     1      46.498   4.059  13.480  0.00  0.00    +0.000 A 
ENDROOT
BRANCH   1   7
ATOM      7  C   UNL     1      47.736   6.184  14.029  0.00  0.00    +0.000 C 
BRANCH   7   8
ATOM      8  N   UNL     1      48.001   5.601  15.338  0.00  0.00    +0.000 NA
ATOM      9  H   UNL     1      47.489   6.124  16.047  0.00  0.00    +0.000 HD
ATOM     10  H   UNL     1      48.990   5.711  15.565  0.00  0.00    +0.000 HD
ENDBRANCH   7   8
ENDBRANCH   1   7
BRANCH   4  11
ATOM     11  C   UNL     1      43.925   3.162  11.011  0.00  0.00    +0.000 C 
BRANCH  11  12
ATOM     12  O   UNL     1      43.957   3.583   9.644  0.00  0.00    +0.000 OA
BRANCH  12  13
ATOM     13  C   UNL     1      44.968   3.077   8.875  0.00  0.00    +0.000 A 
ATOM     14  C   UNL     1      45.357   1.736   8.814  0.00  0.00    +0.000 A 
ATOM     15  C   UNL     1      46.409   1.348   7.981  0.00  0.00    +0.000 A 
ATOM     16  C   UNL     1      47.069   2.301   7.216  0.00  0.00    +0.000 A 
ATOM     17  F   UNL     1      48.077   1.923   6.420  0.00  0.00    +0.000 F 
ATOM     18  C   UNL     1      46.698   3.638   7.267  0.00  0.00    +0.000 A 
ATOM     19  C   UNL     1      45.647   4.026   8.099  0.00  0.00    +0.000 A 
ENDBRANCH  12  13
ENDBRANCH  11  12
ENDBRANCH   4  11
TORSDOF 5
ENDMDL
MODEL 3
REMARK VINA RESULT:    -6.964      3.147      5.885
REMARK INTER + INTRA:          -9.144
REMARK INTER:                  -8.736
REMARK INTRA:                  -0.407
REMARK UNBOUND:                -0.347
REMARK  Name = 
REMARK  5 active torsions:
REMARK  status: ('A' for Active; 'I' for Inactive)
REMARK    1  A    between atoms: N_1  and  C_2
REMARK    2  A    between atoms: C_2  and  C_3
REMARK    3  A    between atoms: C_6  and  C_7
REMARK    4  A    between atoms: C_7  and  O_8
REMARK    5  A    between atoms: O_8  and  C_9
REMARK                            x       y       z     vdW  Elec       q    Type
REMARK                         _______ _______ _______ _____ _____    ______ ____
ROOT
ATOM      1  C   UNL     1      46.621   2.357   7.525  0.00  0.00    +0.000 A 
ATOM      2  C   UNL     1      45.829   1.731   8.465  0.00  0.00    +0.000 A 
ATOM      3  N   UNL     1      44.947   2.374   9.256  0.00  0.00    +0.000 NA
ATOM      4  C   UNL     1      44.859   3.711   9.096  0.00  0.00    +0.000 A 
ATOM      5  N   UNL     1      45.574   4.419   8.197  0.00  0.00    +0.000 NA
ATOM      6  C   UNL     1      46.442   3.722   7.437  0.00  0.00    +0.000 A 
ENDROOT
BRANCH   1   7
ATOM      7  C   UNL     1      47.619   1.621   6.696  0.00  0.00    +0.000 C 
BRANCH   7   8
ATOM      8  N   UNL     1      48.672   2.499   6.204  0.00  0.00    +0.000 NA
ATOM      9  H   UNL     1      48.522   2.680   5.213  0.00  0.00    +0.000 HD
ATOM     10  H   UNL     1      49.572   2.021   6.272  0.00  0.00    +0.000 HD
ENDBRANCH   7   8
ENDBRANCH   1   7
BRANCH   4  11
ATOM     11  C   UNL     1      43.889   4.464   9.977  0.00  0.00    +0.000 C 
BRANCH  11  12
ATOM     12  O   UNL     1      44.080   4.090  11.345  0.00  0.00    +0.000 OA
BRANCH  12  13
ATOM     13  C   UNL     1      45.117   4.693  12.002  0.00  0.00    +0.000 A 
ATOM     14  C   UNL     1      45.549   6.009  11.816  0.00  0.00    +0.000 A 
ATOM     15  C   UNL     1      46.624   6.505  12.556  0.00  0.00    +0.000 A 
ATOM     16  C   UNL     1      47.264   5.685  13.477  0.00  0.00    +0.000 A 
ATOM     17  F   UNL     1      48.293   6.167  14.184  0.00  0.00    +0.000 F 
ATOM     18  C   UNL     1      46.849   4.374  13.672  0.00  0.00    +0.000 A 
ATOM     19  C   UNL     1      45.774   3.878  12.932  0.00  0.00    +0.000 A 
ENDBRANCH  12  13
ENDBRANCH  11  12
ENDBRANCH   4  11
TORSDOF 5
ENDMDL
MODEL 4
REMARK VINA RESULT:    -6.614      1.659      2.579
REMARK INTER + INTRA:          -8.701
REMARK INTER:                  -8.324
REMARK INTRA:                  -0.378
REMARK UNBOUND:                -0.347
REMARK  Name = 
REMARK  5 active torsions:
REMARK  status: ('A' for Active; 'I' for Inactive)
REMARK    1  A    between atoms: N_1  and  C_2
REMARK    2  A    between atoms: C_2  and  C_3
REMARK    3  A    between atoms: C_6  and  C_7
REMARK    4  A    between atoms: C_7  and  O_8
REMARK    5  A    between atoms: O_8  and  C_9
REMARK                            x       y       z     vdW  Elec       q    Type
REMARK                         _______ _______ _______ _____ _____    ______ ____
ROOT
ATOM      1  C   UNL     1      45.266   7.256  12.163  0.00  0.00    +0.000 A 
ATOM      2  C   UNL     1      46.115   6.172  12.251  0.00  0.00    +0.000 A 
ATOM      3  N   UNL     1      45.771   4.915  11.905  0.00  0.00    +0.000 NA
ATOM      4  C   UNL     1      44.512   4.740  11.452  0.00  0.00    +0.000 A 
ATOM      5  N   UNL     1      43.608   5.732  11.312  0.00  0.00    +0.000 NA
ATOM      6  C   UNL     1      44.009   6.966  11.677  0.00  0.00    +0.000 A 
ENDROOT
BRANCH   1   7
ATOM      7  C   UNL     1      45.666   8.627  12.596  0.00  0.00    +0.000 C 
BRANCH   7   8
ATOM      8  N   UNL     1      44.523   9.528  12.673  0.00  0.00    +0.000 NA
ATOM      9  H   UNL     1      43.698   9.055  12.307  0.00  0.00    +0.000 HD
ATOM     10  H   UNL     1      44.682  10.331  12.065  0.00  0.00    +0.000 HD
ENDBRANCH   7   8
ENDBRANCH   1   7
BRANCH   4  11
ATOM     11  C   UNL     1      44.090   3.341  11.069  0.00  0.00    +0.000 C 
BRANCH  11  12
ATOM     12  O   UNL     1      43.819   3.279   9.665  0.00  0.00    +0.000 OA
BRANCH  12  13
ATOM     13  C   UNL     1      44.892   3.055   8.848  0.00  0.00    +0.000 A 
ATOM     14  C   UNL     1      45.527   4.010   8.050  0.00  0.00    +0.000 A 
ATOM     15  C   UNL     1      46.621   3.649   7.260  0.00  0.00    +0.000 A 
ATOM     16  C   UNL     1      47.074   2.336   7.269  0.00  0.00    +0.000 A 
ATOM     17  F   UNL     1      48.123   1.996   6.510  0.00  0.00    +0.000 F 
ATOM     18  C   UNL     1      46.453   1.373   8.054  0.00  0.00    +0.000 A 
ATOM     19  C   UNL     1      45.360   1.734   8.844  0.00  0.00    +0.000 A 
ENDBRANCH  12  13
ENDBRANCH  11  12
ENDBRANCH   4  11
TORSDOF 5
ENDMDL
MODEL 5
REMARK VINA RESULT:    -5.931      3.549      5.107
REMARK INTER + INTRA:          -7.838
REMARK INTER:                  -7.574
REMARK INTRA:                  -0.264
REMARK UNBOUND:                -0.347
REMARK  Name = 
REMARK  5 active torsions:
REMARK  status: ('A' for Active; 'I' for Inactive)
REMARK    1  A    between atoms: N_1  and  C_2
REMARK    2  A    between atoms: C_2  and  C_3
REMARK    3  A    between atoms: C_6  and  C_7
REMARK    4  A    between atoms: C_7  and  O_8
REMARK    5  A    between atoms: O_8  and  C_9
REMARK                            x       y       z     vdW  Elec       q    Type
REMARK                         _______ _______ _______ _____ _____    ______ ____
ROOT
ATOM      1  C   UNL     1      48.360   4.547  18.089  0.00  0.00    +0.000 A 
ATOM      2  C   UNL     1      47.407   3.704  17.555  0.00  0.00    +0.000 A 
ATOM      3  N   UNL     1      46.979   3.765  16.278  0.00  0.00    +0.000 NA
ATOM      4  C   UNL     1      47.533   4.720  15.503  0.00  0.00    +0.000 A 
ATOM      5  N   UNL     1      48.483   5.584  15.920  0.00  0.00    +0.000 NA
ATOM      6  C   UNL     1      48.868   5.477  17.207  0.00  0.00    +0.000 A 
ENDROOT
BRANCH   1   7
ATOM      7  C   UNL     1      48.779   4.480  19.520  0.00  0.00    +0.000 C 
BRANCH   7   8
ATOM      8  N   UNL     1      48.334   3.250  20.161  0.00  0.00    +0.000 NA
ATOM      9  H   UNL     1      48.862   3.111  21.022  0.00  0.00    +0.000 HD
ATOM     10  H   UNL     1      48.556   2.455  19.561  0.00  0.00    +0.000 HD
ENDBRANCH   7   8
ENDBRANCH   1   7
BRANCH   4  11
ATOM     11  C   UNL     1      47.066   4.824  14.070  0.00  0.00    +0.000 C 
BRANCH  11  12
ATOM     12  O   UNL     1      45.753   4.269  13.942  0.00  0.00    +0.000 OA
BRANCH  12  13
ATOM     13  C   UNL     1      45.227   4.235  12.681  0.00  0.00    +0.000 A 
ATOM     14  C   UNL     1      44.264   3.333  12.219  0.00  0.00    +0.000 A 
ATOM     15  C   UNL     1      43.807   3.408  10.901  0.00  0.00    +0.000 A 
ATOM     16  C   UNL     1      44.315   4.381  10.051  0.00  0.00    +0.000 A 
ATOM     17  F   UNL     1      43.872   4.448   8.789  0.00  0.00    +0.000 F 
ATOM     18  C   UNL     1      45.274   5.284  10.492  0.00  0.00    +0.000 A 
ATOM     19  C   UNL     1      45.730   5.209  11.809  0.00  0.00    +0.000 A 
ENDBRANCH  12  13
ENDBRANCH  11  12
ENDBRANCH   4  11
TORSDOF 5
ENDMDL
MODEL 6
REMARK VINA RESULT:    -5.647      3.056      5.966
REMARK INTER + INTRA:          -7.480
REMARK INTER:                  -7.193
REMARK INTRA:                  -0.287
REMARK UNBOUND:                -0.347
REMARK  Name = 
REMARK  5 active torsions:
REMARK  status: ('A' for Active; 'I' for Inactive)
REMARK    1  A    between atoms: N_1  and  C_2
REMARK    2  A    between atoms: C_2  and  C_3
REMARK    3  A    between atoms: C_6  and  C_7
REMARK    4  A    between atoms: C_7  and  O_8
REMARK    5  A    between atoms: O_8  and  C_9
REMARK                            x       y       z     vdW  Elec       q    Type
REMARK                         _______ _______ _______ _____ _____    ______ ____
ROOT
ATOM      1  C   UNL     1      45.618   2.863   8.186  0.00  0.00    +0.000 A 
ATOM      2  C   UNL     1      45.047   4.119   8.186  0.00  0.00    +0.000 A 
ATOM      3  N   UNL     1      44.230   4.574   9.157  0.00  0.00    +0.000 NA
ATOM      4  C   UNL     1      43.971   3.724  10.173  0.00  0.00    +0.000 A 
ATOM      5  N   UNL     1      44.490   2.482  10.278  0.00  0.00    +0.000 NA
ATOM      6  C   UNL     1      45.298   2.082   9.276  0.00  0.00    +0.000 A 
ENDROOT
BRANCH   1   7
ATOM      7  C   UNL     1      46.485   2.375   7.073  0.00  0.00    +0.000 C 
BRANCH   7   8
ATOM      8  N   UNL     1      47.070   1.074   7.370  0.00  0.00    +0.000 NA
ATOM      9  H   UNL     1      47.336   1.042   8.353  0.00  0.00    +0.000 HD
ATOM     10  H   UNL     1      47.935   0.961   6.839  0.00  0.00    +0.000 HD
ENDBRANCH   7   8
ENDBRANCH   1   7
BRANCH   4  11
ATOM     11  C   UNL     1      43.047   4.199  11.270  0.00  0.00    +0.000 C 
BRANCH  11  12
ATOM     12  O   UNL     1      43.440   5.502  11.711  0.00  0.00    +0.000 OA
BRANCH  12  13
ATOM     13  C   UNL     1      44.659   5.596  12.324  0.00  0.00    +0.000 A 
ATOM     14  C   UNL     1      45.128   4.764  13.344  0.00  0.00    +0.000 A 
ATOM     15  C   UNL     1      46.401   4.966  13.884  0.00  0.00    +0.000 A 
ATOM     16  C   UNL     1      47.196   5.999  13.406  0.00  0.00    +0.000 A 
ATOM     17  F   UNL     1      48.415   6.187  13.928  0.00  0.00    +0.000 F 
ATOM     18  C   UNL     1      46.744   6.836  12.394  0.00  0.00    +0.000 A 
ATOM     19  C   UNL     1      45.473   6.634  11.854  0.00  0.00    +0.000 A 
ENDBRANCH  12  13
ENDBRANCH  11  12
ENDBRANCH   4  11
TORSDOF 5
ENDMDL
MODEL 7
REMARK VINA RESULT:    -5.473      4.554      6.542
REMARK INTER + INTRA:          -7.260
REMARK INTER:                  -6.977
REMARK INTRA:                  -0.283
REMARK UNBOUND:                -0.347
REMARK  Name = 
REMARK  5 active torsions:
REMARK  status: ('A' for Active; 'I' for Inactive)
REMARK    1  A    between atoms: N_1  and  C_2
REMARK    2  A    between atoms: C_2  and  C_3
REMARK    3  A    between atoms: C_6  and  C_7
REMARK    4  A    between atoms: C_7  and  O_8
REMARK    5  A    between atoms: O_8  and  C_9
REMARK                            x       y       z     vdW  Elec       q    Type
REMARK                         _______ _______ _______ _____ _____    ______ ____
ROOT
ATOM      1  C   UNL     1      51.120   3.182  17.658  0.00  0.00    +0.000 A 
ATOM      2  C   UNL     1      50.479   4.400  17.561  0.00  0.00    +0.000 A 
ATOM      3  N   UNL     1      49.272   4.572  16.987  0.00  0.00    +0.000 NA
ATOM      4  C   UNL     1      48.682   3.468  16.483  0.00  0.00    +0.000 A 
ATOM      5  N   UNL     1      49.214   2.228  16.538  0.00  0.00    +0.000 NA
ATOM      6  C   UNL     1      50.424   2.120  17.122  0.00  0.00    +0.000 A 
ENDROOT
BRANCH   1   7
ATOM      7  C   UNL     1      52.477   3.034  18.262  0.00  0.00    +0.000 C 
BRANCH   7   8
ATOM      8  N   UNL     1      52.804   1.640  18.529  0.00  0.00    +0.000 NA
ATOM      9  H   UNL     1      52.044   1.212  19.056  0.00  0.00    +0.000 HD
ATOM     10  H   UNL     1      53.626   1.593  19.131  0.00  0.00    +0.000 HD
ENDBRANCH   7   8
ENDBRANCH   1   7
BRANCH   4  11
ATOM     11  C   UNL     1      47.334   3.629  15.820  0.00  0.00    +0.000 C 
BRANCH  11  12
ATOM     12  O   UNL     1      47.408   3.211  14.453  0.00  0.00    +0.000 OA
BRANCH  12  13
ATOM     13  C   UNL     1      46.734   3.979  13.545  0.00  0.00    +0.000 A 
ATOM     14  C   UNL     1      45.670   3.555  12.743  0.00  0.00    +0.000 A 
ATOM     15  C   UNL     1      45.063   4.446  11.855  0.00  0.00    +0.000 A 
ATOM     16  C   UNL     1      45.523   5.754  11.768  0.00  0.00    +0.000 A 
ATOM     17  F   UNL     1      44.936   6.602  10.915  0.00  0.00    +0.000 F 
ATOM     18  C   UNL     1      46.580   6.191  12.556  0.00  0.00    +0.000 A 
ATOM     19  C   UNL     1      47.186   5.301  13.444  0.00  0.00    +0.000 A 
ENDBRANCH  12  13
ENDBRANCH  11  12
ENDBRANCH   4  11
TORSDOF 5
ENDMDL
MODEL 8
REMARK VINA RESULT:    -5.180      2.857      3.749
REMARK INTER + INTRA:          -6.891
REMARK INTER:                  -6.603
REMARK INTRA:                  -0.287
REMARK UNBOUND:                -0.347
REMARK  Name = 
REMARK  5 active torsions:
REMARK  status: ('A' for Active; 'I' for Inactive)
REMARK    1  A    between atoms: N_1  and  C_2
REMARK    2  A    between atoms: C_2  and  C_3
REMARK    3  A    between atoms: C_6  and  C_7
REMARK    4  A    between atoms: C_7  and  O_8
REMARK    5  A    between atoms: O_8  and  C_9
REMARK                            x       y       z     vdW  Elec       q    Type
REMARK                         _______ _______ _______ _____ _____    ______ ____
ROOT
ATOM      1  C   UNL     1      46.891   9.370  12.148  0.00  0.00    +0.000 A 
ATOM      2  C   UNL     1      47.677   8.238  12.227  0.00  0.00    +0.000 A 
ATOM      3  N   UNL     1      47.204   6.982  12.097  0.00  0.00    +0.000 NA
ATOM      4  C   UNL     1      45.878   6.859  11.880  0.00  0.00    +0.000 A 
ATOM      5  N   UNL     1      45.024   7.898  11.770  0.00  0.00    +0.000 NA
ATOM      6  C   UNL     1      45.554   9.128  11.912  0.00  0.00    +0.000 A 
ENDROOT
BRANCH   1   7
ATOM      7  C   UNL     1      47.440  10.744  12.340  0.00  0.00    +0.000 C 
BRANCH   7   8
ATOM      8  N   UNL     1      48.123  10.883  13.619  0.00  0.00    +0.000 NA
ATOM      9  H   UNL     1      48.886  10.209  13.667  0.00  0.00    +0.000 HD
ATOM     10  H   UNL     1      47.483  10.638  14.375  0.00  0.00    +0.000 HD
ENDBRANCH   7   8
ENDBRANCH   1   7
BRANCH   4  11
ATOM     11  C   UNL     1      45.314   5.464  11.743  0.00  0.00    +0.000 C 
BRANCH  11  12
ATOM     12  O   UNL     1      44.614   5.338  10.501  0.00  0.00    +0.000 OA
BRANCH  12  13
ATOM     13  C   UNL     1      45.118   4.435   9.607  0.00  0.00    +0.000 A 
ATOM     14  C   UNL     1      45.914   4.736   8.499  0.00  0.00    +0.000 A 
ATOM     15  C   UNL     1      46.369   3.713   7.663  0.00  0.00    +0.000 A 
ATOM     16  C   UNL     1      46.023   2.395   7.936  0.00  0.00    +0.000 A 
ATOM     17  F   UNL     1      46.462   1.420   7.131  0.00  0.00    +0.000 F 
ATOM     18  C   UNL     1      45.231   2.079   9.032  0.00  0.00    +0.000 A 
ATOM     19  C   UNL     1      44.777   3.101   9.867  0.00  0.00    +0.000 A 
ENDBRANCH  12  13
ENDBRANCH  11  12
ENDBRANCH   4  11
TORSDOF 5
ENDMDL
MODEL 9
REMARK VINA RESULT:    -5.162      5.165      8.335
REMARK INTER + INTRA:          -6.867
REMARK INTER:                  -6.632
REMARK INTRA:                  -0.235
REMARK UNBOUND:                -0.347
REMARK  Name = 
REMARK  5 active torsions:
REMARK  status: ('A' for Active; 'I' for Inactive)
REMARK    1  A    between atoms: N_1  and  C_2
REMARK    2  A    between atoms: C_2  and  C_3
REMARK    3  A    between atoms: C_6  and  C_7
REMARK    4  A    between atoms: C_7  and  O_8
REMARK    5  A    between atoms: O_8  and  C_9
REMARK                            x       y       z     vdW  Elec       q    Type
REMARK                         _______ _______ _______ _____ _____    ______ ____
ROOT
ATOM      1  C   UNL     1      44.356   4.986  11.628  0.00  0.00    +0.000 A 
ATOM      2  C   UNL     1      45.230   6.019  11.899  0.00  0.00    +0.000 A 
ATOM      3  N   UNL     1      46.168   5.977  12.867  0.00  0.00    +0.000 NA
ATOM      4  C   UNL     1      46.227   4.844  13.598  0.00  0.00    +0.000 A 
ATOM      5  N   UNL     1      45.432   3.771  13.405  0.00  0.00    +0.000 NA
ATOM      6  C   UNL     1      44.513   3.873  12.426  0.00  0.00    +0.000 A 
ENDROOT
BRANCH   1   7
ATOM      7  C   UNL     1      43.300   5.082  10.577  0.00  0.00    +0.000 C 
BRANCH   7   8
ATOM      8  N   UNL     1      43.773   4.602   9.285  0.00  0.00    +0.000 NA
ATOM      9  H   UNL     1      43.046   4.034   8.853  0.00  0.00    +0.000 HD
ATOM     10  H   UNL     1      44.571   3.982   9.425  0.00  0.00    +0.000 HD
ENDBRANCH   7   8
ENDBRANCH   1   7
BRANCH   4  11
ATOM     11  C   UNL     1      47.259   4.771  14.700  0.00  0.00    +0.000 C 
BRANCH  11  12
ATOM     12  O   UNL     1      46.827   3.858  15.714  0.00  0.00    +0.000 OA
BRANCH  12  13
ATOM     13  C   UNL     1      47.498   3.909  16.904  0.00  0.00    +0.000 A 
ATOM     14  C   UNL     1      48.431   2.973  17.359  0.00  0.00    +0.000 A 
ATOM     15  C   UNL     1      49.051   3.146  18.599  0.00  0.00    +0.000 A 
ATOM     16  C   UNL     1      48.733   4.250  19.380  0.00  0.00    +0.000 A 
ATOM     17  F   UNL     1      49.331   4.410  20.567  0.00  0.00    +0.000 F 
ATOM     18  C   UNL     1      47.807   5.188  18.944  0.00  0.00    +0.000 A 
ATOM     19  C   UNL     1      47.188   5.016  17.705  0.00  0.00    +0.000 A 
ENDBRANCH  12  13
ENDBRANCH  11  12
ENDBRANCH   4  11
TORSDOF 5
ENDMDL
