MODEL 1
REMARK VINA RESULT:    -6.373      0.000      0.000
REMARK INTER + INTRA:          -8.907
REMARK INTER:                  -8.236
REMARK INTRA:                  -0.670
REMARK UNBOUND:                -0.670
REMARK  Name = 
REMARK  7 active torsions:
REMARK  status: ('A' for Active; 'I' for Inactive)
REMARK    1  A    between atoms: C_1  and  C_2
REMARK    2  A    between atoms: C_2  and  C_3
REMARK    3  A    between atoms: C_2  and  C_4
REMARK    4  A    between atoms: C_2  and  C_20
REMARK    5  A    between atoms: C_4  and  N_5
REMARK    6  A    between atoms: C_10  and  C_11
REMARK    7  A    between atoms: C_14  and  C_15
REMARK                            x       y       z     vdW  Elec       q    Type
REMARK                         _______ _______ _______ _____ _____    ______ ____
ROOT
ATOM      1  N   UNL     1      46.333   5.383  12.788  0.00  0.00    +0.000 N 
ATOM      2  C   UNL     1      47.093   6.324  13.461  0.00  0.00    +0.000 A 
ATOM      3  C   UNL     1      46.915   7.692  13.263  0.00  0.00    +0.000 A 
ATOM      4  C   UNL     1      47.672   8.602  13.985  0.00  0.00    +0.000 A 
ATOM      5  C   UNL     1      48.562   8.127  14.931  0.00  0.00    +0.000 A 
ATOM      6  C   UNL     1      48.694   6.750  15.112  0.00  0.00    +0.000 A 
ATOM      7  N   UNL     1      47.979   5.857  14.368  0.00  0.00    +0.000 NA
ATOM      8  H   UNL     1      46.775   4.471  12.763  0.00  0.00    +0.000 HD
ENDROOT
BRANCH   6   9
ATOM      9  C   UNL     1      49.580   6.198  16.167  0.00  0.00    +0.000 A 
ATOM     10  C   UNL     1      50.918   6.613  16.292  0.00  0.00    +0.000 A 
ATOM     11  C   UNL     1      51.778   6.039  17.240  0.00  0.00    +0.000 A 
ATOM     12  C   UNL     1      51.318   5.039  18.097  0.00  0.00    +0.000 A 
ATOM     13  C   UNL     1      49.987   4.618  18.003  0.00  0.00    +0.000 A 
ATOM     14  C   UNL     1      49.136   5.198  17.057  0.00  0.00    +0.000 A 
BRANCH  12  15
ATOM     15  C   UNL     1      52.195   4.434  19.059  0.00  0.00    +0.000 C 
ATOM     16  N   UNL     1      52.896   3.931  19.832  0.00  0.00    +0.000 NA
ENDBRANCH  12  15
ENDBRANCH   6   9
BRANCH   1  17
ATOM     17  C   UNL     1      45.381   5.773  11.760  0.00  0.00    +0.000 C 
BRANCH  17  19
ATOM     18  C   UNL     1      44.157   3.684  12.492  0.00  0.00    +0.000 C 
ATOM     19  C   UNL     1      44.414   4.641  11.304  0.00  0.00    +0.000 C 
ATOM     20  C   UNL     1      43.055   5.317  10.984  0.00  0.00    +0.000 C 
BRANCH  19  21
ATOM     21  C   UNL     1      44.942   3.934  10.046  0.00  0.00    +0.000 A 
ATOM     22  C   UNL     1      44.911   2.542   9.893  0.00  0.00    +0.000 A 
ATOM     23  C   UNL     1      45.445   1.966   8.748  0.00  0.00    +0.000 A 
ATOM     24  N   UNL     1      46.003   2.668   7.743  0.00  0.00    +0.000 NA
ATOM     25  C   UNL     1      46.021   4.006   7.888  0.00  0.00    +0.000 A 
ATOM     26  C   UNL     1      45.508   4.671   8.993  0.00  0.00    +0.000 A 
ENDBRANCH  19  21
ENDBRANCH  17  19
ENDBRANCH   1  17
TORSDOF 5
ENDMDL
MODEL 2
REMARK VINA RESULT:    -5.938      1.848      3.067
REMARK INTER + INTRA:          -8.344
REMARK INTER:                  -7.709
REMARK INTRA:                  -0.634
REMARK UNBOUND:                -0.670
REMARK  Name = 
REMARK  7 active torsions:
REMARK  status: ('A' for Active; 'I' for Inactive)
REMARK    1  A    between atoms: C_1  and  C_2
REMARK    2  A    between atoms: C_2  and  C_3
REMARK    3  A    between atoms: C_2  and  C_4
REMARK    4  A    between atoms: C_2  and  C_20
REMARK    5  A    between atoms: C_4  and  N_5
REMARK    6  A    between atoms: C_10  and  C_11
REMARK    7  A    between atoms: C_14  and  C_15
REMARK                            x       y       z     vdW  Elec       q    Type
REMARK                         _______ _______ _______ _____ _____    ______ ____
ROOT
ATOM      1  N   UNL     1      47.204   5.657  14.182  0.00  0.00    +0.000 N 
ATOM      2  C   UNL     1      47.649   5.041  15.339  0.00  0.00    +0.000 A 
ATOM      3  C   UNL     1      47.081   3.858  15.807  0.00  0.00    +0.000 A 
ATOM      4  C   UNL     1      47.580   3.254  16.951  0.00  0.00    +0.000 A 
ATOM      5  C   UNL     1      48.674   3.820  17.581  0.00  0.00    +0.000 A 
ATOM      6  C   UNL     1      49.225   4.995  17.067  0.00  0.00    +0.000 A 
ATOM      7  N   UNL     1      48.702   5.610  15.967  0.00  0.00    +0.000 NA
ATOM      8  H   UNL     1      47.452   6.640  14.144  0.00  0.00    +0.000 HD
ENDROOT
BRANCH   6   9
ATOM      9  C   UNL     1      50.444   5.594  17.665  0.00  0.00    +0.000 A 
ATOM     10  C   UNL     1      51.724   5.089  17.381  0.00  0.00    +0.000 A 
ATOM     11  C   UNL     1      52.871   5.605  18.003  0.00  0.00    +0.000 A 
ATOM     12  C   UNL     1      52.767   6.650  18.920  0.00  0.00    +0.000 A 
ATOM     13  C   UNL     1      51.505   7.180  19.210  0.00  0.00    +0.000 A 
ATOM     14  C   UNL     1      50.367   6.661  18.584  0.00  0.00    +0.000 A 
BRANCH  12  15
ATOM     15  C   UNL     1      53.932   7.174  19.574  0.00  0.00    +0.000 C 
ATOM     16  N   UNL     1      54.864   7.610  20.107  0.00  0.00    +0.000 NA
ENDBRANCH  12  15
ENDBRANCH   6   9
BRANCH   1  17
ATOM     17  C   UNL     1      46.051   5.155  13.452  0.00  0.00    +0.000 C 
BRANCH  17  19
ATOM     18  C   UNL     1      44.675   7.000  12.401  0.00  0.00    +0.000 C 
ATOM     19  C   UNL     1      45.739   5.911  12.127  0.00  0.00    +0.000 C 
ATOM     20  C   UNL     1      47.038   6.658  11.722  0.00  0.00    +0.000 C 
BRANCH  19  21
ATOM     21  C   UNL     1      45.345   4.931  11.010  0.00  0.00    +0.000 A 
ATOM     22  C   UNL     1      45.640   5.166   9.661  0.00  0.00    +0.000 A 
ATOM     23  C   UNL     1      45.215   4.260   8.698  0.00  0.00    +0.000 A 
ATOM     24  N   UNL     1      44.524   3.137   8.975  0.00  0.00    +0.000 NA
ATOM     25  C   UNL     1      44.251   2.909  10.273  0.00  0.00    +0.000 A 
ATOM     26  C   UNL     1      44.638   3.754  11.304  0.00  0.00    +0.000 A 
ENDBRANCH  19  21
ENDBRANCH  17  19
ENDBRANCH   1  17
TORSDOF 5
ENDMDL
MODEL 3
REMARK VINA RESULT:    -5.881      2.673      4.633
REMARK INTER + INTRA:          -8.270
REMARK INTER:                  -7.276
REMARK INTRA:                  -0.994
REMARK UNBOUND:                -0.670
REMARK  Name = 
REMARK  7 active torsions:
REMARK  status: ('A' for Active; 'I' for Inactive)
REMARK    1  A    between atoms: C_1  and  C_2
REMARK    2  A    between atoms: C_2  and  C_3
REMARK    3  A    between atoms: C_2  and  C_4
REMARK    4  A    between atoms: C_2  and  C_20
REMARK    5  A    between atoms: C_4  and  N_5
REMARK    6  A    between atoms: C_10  and  C_11
REMARK    7  A    between atoms: C_14  and  C_15
REMARK                            x       y       z     vdW  Elec       q    Type
REMARK                         _______ _______ _______ _____ _____    ______ ____
ROOT
ATOM      1  N   UNL     1      49.026   6.664  15.395  0.00  0.00    +0.000 N 
ATOM      2  C   UNL     1      48.827   5.560  16.207  0.00  0.00    +0.000 A 
ATOM      3  C   UNL     1      47.550   5.106  16.531  0.00  0.00    +0.000 A 
ATOM      4  C   UNL     1      47.394   3.975  17.318  0.00  0.00    +0.000 A 
ATOM      5  C   UNL     1      48.523   3.287  17.727  0.00  0.00    +0.000 A 
ATOM      6  C   UNL     1      49.782   3.765  17.363  0.00  0.00    +0.000 A 
ATOM      7  N   UNL     1      49.931   4.903  16.626  0.00  0.00    +0.000 NA
ATOM      8  H   UNL     1      49.946   7.074  15.515  0.00  0.00    +0.000 HD
ENDROOT
BRANCH   6   9
ATOM      9  C   UNL     1      51.015   3.018  17.715  0.00  0.00    +0.000 A 
ATOM     10  C   UNL     1      52.083   3.639  18.386  0.00  0.00    +0.000 A 
ATOM     11  C   UNL     1      53.279   2.957  18.653  0.00  0.00    +0.000 A 
ATOM     12  C   UNL     1      53.433   1.626  18.264  0.00  0.00    +0.000 A 
ATOM     13  C   UNL     1      52.381   0.979  17.608  0.00  0.00    +0.000 A 
ATOM     14  C   UNL     1      51.191   1.668  17.348  0.00  0.00    +0.000 A 
BRANCH  12  15
ATOM     15  C   UNL     1      54.659   0.924  18.519  0.00  0.00    +0.000 C 
ATOM     16  N   UNL     1      55.652   0.368  18.735  0.00  0.00    +0.000 NA
ENDBRANCH  12  15
ENDBRANCH   6   9
BRANCH   1  17
ATOM     17  C   UNL     1      47.911   7.468  14.924  0.00  0.00    +0.000 C 
BRANCH  17  19
ATOM     18  C   UNL     1      47.354   8.759  12.821  0.00  0.00    +0.000 C 
ATOM     19  C   UNL     1      47.619   7.349  13.399  0.00  0.00    +0.000 C 
ATOM     20  C   UNL     1      48.925   6.840  12.733  0.00  0.00    +0.000 C 
BRANCH  19  21
ATOM     21  C   UNL     1      46.484   6.348  13.128  0.00  0.00    +0.000 A 
ATOM     22  C   UNL     1      45.160   6.750  12.911  0.00  0.00    +0.000 A 
ATOM     23  C   UNL     1      44.176   5.789  12.715  0.00  0.00    +0.000 A 
ATOM     24  N   UNL     1      44.409   4.463  12.715  0.00  0.00    +0.000 NA
ATOM     25  C   UNL     1      45.685   4.081  12.912  0.00  0.00    +0.000 A 
ATOM     26  C   UNL     1      46.735   4.966  13.111  0.00  0.00    +0.000 A 
ENDBRANCH  19  21
ENDBRANCH  17  19
ENDBRANCH   1  17
TORSDOF 5
ENDMDL
MODEL 4
REMARK VINA RESULT:    -5.776      4.697      7.925
REMARK INTER + INTRA:          -8.135
REMARK INTER:                  -7.319
REMARK INTRA:                  -0.816
REMARK UNBOUND:                -0.670
REMARK  Name = 
REMARK  7 active torsions:
REMARK  status: ('A' for Active; 'I' for Inactive)
REMARK    1  A    between atoms: C_1  and  C_2
REMARK    2  A    between atoms: C_2  and  C_3
REMARK    3  A    between atoms: C_2  and  C_4
REMARK    4  A    between atoms: C_2  and  C_20
REMARK    5  A    between atoms: C_4  and  N_5
REMARK    6  A    between atoms: C_10  and  C_11
REMARK    7  A    between atoms: C_14  and  C_15
REMARK                            x       y       z     vdW  Elec       q    Type
REMARK                         _______ _______ _______ _____ _____    ______ ____
ROOT
ATOM      1  N   UNL     1      51.221   7.762  12.040  0.00  0.00    +0.000 N 
ATOM      2  C   UNL     1      49.883   8.106  12.139  0.00  0.00    +0.000 A 
ATOM      3  C   UNL     1      49.468   9.435  12.199  0.00  0.00    +0.000 A 
ATOM      4  C   UNL     1      48.116   9.738  12.262  0.00  0.00    +0.000 A 
ATOM      5  C   UNL     1      47.199   8.703  12.213  0.00  0.00    +0.000 A 
ATOM      6  C   UNL     1      47.656   7.388  12.132  0.00  0.00    +0.000 A 
ATOM      7  N   UNL     1      48.989   7.093  12.116  0.00  0.00    +0.000 NA
ATOM      8  H   UNL     1      51.401   6.810  12.340  0.00  0.00    +0.000 HD
ENDROOT
BRANCH   6   9
ATOM      9  C   UNL     1      46.708   6.254  12.000  0.00  0.00    +0.000 A 
ATOM     10  C   UNL     1      45.938   6.074  10.838  0.00  0.00    +0.000 A 
ATOM     11  C   UNL     1      44.986   5.048  10.741  0.00  0.00    +0.000 A 
ATOM     12  C   UNL     1      44.788   4.166  11.803  0.00  0.00    +0.000 A 
ATOM     13  C   UNL     1      45.552   4.315  12.966  0.00  0.00    +0.000 A 
ATOM     14  C   UNL     1      46.500   5.340  13.053  0.00  0.00    +0.000 A 
BRANCH  12  15
ATOM     15  C   UNL     1      43.806   3.123  11.720  0.00  0.00    +0.000 C 
ATOM     16  N   UNL     1      43.025   2.270  11.652  0.00  0.00    +0.000 NA
ENDBRANCH  12  15
ENDBRANCH   6   9
BRANCH   1  17
ATOM     17  C   UNL     1      52.267   8.769  12.099  0.00  0.00    +0.000 C 
BRANCH  17  19
ATOM     18  C   UNL     1      52.203  10.042   9.914  0.00  0.00    +0.000 C 
ATOM     19  C   UNL     1      53.007   9.020  10.752  0.00  0.00    +0.000 C 
ATOM     20  C   UNL     1      54.355   9.703  11.103  0.00  0.00    +0.000 C 
BRANCH  19  21
ATOM     21  C   UNL     1      53.281   7.699  10.015  0.00  0.00    +0.000 A 
ATOM     22  C   UNL     1      54.093   6.690  10.551  0.00  0.00    +0.000 A 
ATOM     23  C   UNL     1      54.333   5.540   9.811  0.00  0.00    +0.000 A 
ATOM     24  N   UNL     1      53.827   5.314   8.584  0.00  0.00    +0.000 NA
ATOM     25  C   UNL     1      53.039   6.281   8.077  0.00  0.00    +0.000 A 
ATOM     26  C   UNL     1      52.738   7.461   8.742  0.00  0.00    +0.000 A 
ENDBRANCH  19  21
ENDBRANCH  17  19
ENDBRANCH   1  17
TORSDOF 5
ENDMDL
MODEL 5
REMARK VINA RESULT:    -5.584      2.089      2.575
REMARK INTER + INTRA:          -7.887
REMARK INTER:                  -7.105
REMARK INTRA:                  -0.782
REMARK UNBOUND:                -0.670
REMARK  Name = 
REMARK  7 active torsions:
REMARK  status: ('A' for Active; 'I' for Inactive)
REMARK    1  A    between atoms: C_1  and  C_2
REMARK    2  A    between atoms: C_2  and  C_3
REMARK    3  A    between atoms: C_2  and  C_4
REMARK    4  A    between atoms: C_2  and  C_20
REMARK    5  A    between atoms: C_4  and  N_5
REMARK    6  A    between atoms: C_10  and  C_11
REMARK    7  A    between atoms: C_14  and  C_15
REMARK                            x       y       z     vdW  Elec       q    Type
REMARK                         _______ _______ _______ _____ _____    ______ ____
ROOT
ATOM      1  N   UNL     1      46.479   6.596  13.435  0.00  0.00    +0.000 N 
ATOM      2  C   UNL     1      47.759   7.042  13.151  0.00  0.00    +0.000 A 
ATOM      3  C   UNL     1      48.166   7.327  11.849  0.00  0.00    +0.000 A 
ATOM      4  C   UNL     1      49.445   7.807  11.611  0.00  0.00    +0.000 A 
ATOM      5  C   UNL     1      50.280   8.040  12.689  0.00  0.00    +0.000 A 
ATOM      6  C   UNL     1      49.826   7.760  13.978  0.00  0.00    +0.000 A 
ATOM      7  N   UNL     1      48.582   7.246  14.203  0.00  0.00    +0.000 NA
ATOM      8  H   UNL     1      46.424   6.118  14.329  0.00  0.00    +0.000 HD
ENDROOT
BRANCH   6   9
ATOM      9  C   UNL     1      50.660   8.066  15.166  0.00  0.00    +0.000 A 
ATOM     10  C   UNL     1      51.479   7.089  15.758  0.00  0.00    +0.000 A 
ATOM     11  C   UNL     1      52.210   7.353  16.926  0.00  0.00    +0.000 A 
ATOM     12  C   UNL     1      52.148   8.610  17.528  0.00  0.00    +0.000 A 
ATOM     13  C   UNL     1      51.351   9.605  16.951  0.00  0.00    +0.000 A 
ATOM     14  C   UNL     1      50.628   9.332  15.785  0.00  0.00    +0.000 A 
BRANCH  12  15
ATOM     15  C   UNL     1      52.879   8.886  18.732  0.00  0.00    +0.000 C 
ATOM     16  N   UNL     1      53.472   9.092  19.705  0.00  0.00    +0.000 NA
ENDBRANCH  12  15
ENDBRANCH   6   9
BRANCH   1  17
ATOM     17  C   UNL     1      45.527   6.302  12.377  0.00  0.00    +0.000 C 
BRANCH  17  19
ATOM     18  C   UNL     1      45.853   3.981  13.331  0.00  0.00    +0.000 C 
ATOM     19  C   UNL     1      45.000   4.836  12.363  0.00  0.00    +0.000 C 
ATOM     20  C   UNL     1      43.566   4.872  12.955  0.00  0.00    +0.000 C 
BRANCH  19  21
ATOM     21  C   UNL     1      44.948   4.279  10.931  0.00  0.00    +0.000 A 
ATOM     22  C   UNL     1      44.432   3.011  10.634  0.00  0.00    +0.000 A 
ATOM     23  C   UNL     1      44.456   2.553   9.323  0.00  0.00    +0.000 A 
ATOM     24  N   UNL     1      44.949   3.259   8.287  0.00  0.00    +0.000 NA
ATOM     25  C   UNL     1      45.434   4.481   8.576  0.00  0.00    +0.000 A 
ATOM     26  C   UNL     1      45.448   5.026   9.852  0.00  0.00    +0.000 A 
ENDBRANCH  19  21
ENDBRANCH  17  19
ENDBRANCH   1  17
TORSDOF 5
ENDMDL
MODEL 6
REMARK VINA RESULT:    -5.447      2.199      8.809
REMARK INTER + INTRA:          -7.709
REMARK INTER:                  -7.007
REMARK INTRA:                  -0.703
REMARK UNBOUND:                -0.670
REMARK  Name = 
REMARK  7 active torsions:
REMARK  status: ('A' for Active; 'I' for Inactive)
REMARK    1  A    between atoms: C_1  and  C_2
REMARK    2  A    between atoms: C_2  and  C_3
REMARK    3  A    between atoms: C_2  and  C_4
REMARK    4  A    between atoms: C_2  and  C_20
REMARK    5  A    between atoms: C_4  and  N_5
REMARK    6  A    between atoms: C_10  and  C_11
REMARK    7  A    between atoms: C_14  and  C_15
REMARK                            x       y       z     vdW  Elec       q    Type
REMARK                         _______ _______ _______ _____ _____    ______ ____
ROOT
ATOM      1  N   UNL     1      50.657   7.215  15.395  0.00  0.00    +0.000 N 
ATOM      2  C   UNL     1      49.972   7.441  14.213  0.00  0.00    +0.000 A 
ATOM      3  C   UNL     1      50.431   8.348  13.259  0.00  0.00    +0.000 A 
ATOM      4  C   UNL     1      49.734   8.518  12.072  0.00  0.00    +0.000 A 
ATOM      5  C   UNL     1      48.614   7.740  11.839  0.00  0.00    +0.000 A 
ATOM      6  C   UNL     1      48.201   6.829  12.812  0.00  0.00    +0.000 A 
ATOM      7  N   UNL     1      48.865   6.697  13.998  0.00  0.00    +0.000 NA
ATOM      8  H   UNL     1      50.067   6.814  16.116  0.00  0.00    +0.000 HD
ENDROOT
BRANCH   6   9
ATOM      9  C   UNL     1      47.052   5.922  12.573  0.00  0.00    +0.000 A 
ATOM     10  C   UNL     1      46.784   4.838  13.426  0.00  0.00    +0.000 A 
ATOM     11  C   UNL     1      45.744   3.934  13.160  0.00  0.00    +0.000 A 
ATOM     12  C   UNL     1      44.937   4.099  12.035  0.00  0.00    +0.000 A 
ATOM     13  C   UNL     1      45.173   5.178  11.177  0.00  0.00    +0.000 A 
ATOM     14  C   UNL     1      46.211   6.075  11.451  0.00  0.00    +0.000 A 
BRANCH  12  15
ATOM     15  C   UNL     1      43.881   3.171  11.745  0.00  0.00    +0.000 C 
ATOM     16  N   UNL     1      43.018   2.434  11.508  0.00  0.00    +0.000 NA
ENDBRANCH  12  15
ENDBRANCH   6   9
BRANCH   1  17
ATOM     17  C   UNL     1      51.835   7.990  15.747  0.00  0.00    +0.000 C 
BRANCH  17  19
ATOM     18  C   UNL     1      53.888   6.513  15.823  0.00  0.00    +0.000 C 
ATOM     19  C   UNL     1      52.841   7.258  16.684  0.00  0.00    +0.000 C 
ATOM     20  C   UNL     1      53.612   8.359  17.459  0.00  0.00    +0.000 C 
BRANCH  19  21
ATOM     21  C   UNL     1      52.107   6.349  17.684  0.00  0.00    +0.000 A 
ATOM     22  C   UNL     1      52.035   4.959  17.527  0.00  0.00    +0.000 A 
ATOM     23  C   UNL     1      51.318   4.202  18.445  0.00  0.00    +0.000 A 
ATOM     24  N   UNL     1      50.671   4.721  19.506  0.00  0.00    +0.000 NA
ATOM     25  C   UNL     1      50.752   6.057  19.659  0.00  0.00    +0.000 A 
ATOM     26  C   UNL     1      51.448   6.893  18.798  0.00  0.00    +0.000 A 
ENDBRANCH  19  21
ENDBRANCH  17  19
ENDBRANCH   1  17
TORSDOF 5
ENDMDL
MODEL 7
REMARK VINA RESULT:    -5.420      2.964      8.584
REMARK INTER + INTRA:          -7.674
REMARK INTER:                  -6.747
REMARK INTRA:                  -0.927
REMARK UNBOUND:                -0.670
REMARK  Name = 
REMARK  7 active torsions:
REMARK  status: ('A' for Active; 'I' for Inactive)
REMARK    1  A    between atoms: C_1  and  C_2
REMARK    2  A    between atoms: C_2  and  C_3
REMARK    3  A    between atoms: C_2  and  C_4
REMARK    4  A    between atoms: C_2  and  C_20
REMARK    5  A    between atoms: C_4  and  N_5
REMARK    6  A    between atoms: C_10  and  C_11
REMARK    7  A    between atoms: C_14  and  C_15
REMARK                            x       y       z     vdW  Elec       q    Type
REMARK                         _______ _______ _______ _____ _____    ______ ____
ROOT
ATOM      1  N   UNL     1      50.425   7.213  15.670  0.00  0.00    +0.000 N 
ATOM      2  C   UNL     1      49.800   7.439  14.455  0.00  0.00    +0.000 A 
ATOM      3  C   UNL     1      50.253   8.412  13.566  0.00  0.00    +0.000 A 
ATOM      4  C   UNL     1      49.621   8.582  12.344  0.00  0.00    +0.000 A 
ATOM      5  C   UNL     1      48.575   7.739  12.011  0.00  0.00    +0.000 A 
ATOM      6  C   UNL     1      48.167   6.765  12.922  0.00  0.00    +0.000 A 
ATOM      7  N   UNL     1      48.763   6.631  14.142  0.00  0.00    +0.000 NA
ATOM      8  H   UNL     1      49.820   6.745  16.337  0.00  0.00    +0.000 HD
ENDROOT
BRANCH   6   9
ATOM      9  C   UNL     1      47.102   5.792  12.576  0.00  0.00    +0.000 A 
ATOM     10  C   UNL     1      46.226   6.015  11.499  0.00  0.00    +0.000 A 
ATOM     11  C   UNL     1      45.171   5.135  11.217  0.00  0.00    +0.000 A 
ATOM     12  C   UNL     1      44.970   4.000  12.001  0.00  0.00    +0.000 A 
ATOM     13  C   UNL     1      45.836   3.746  13.070  0.00  0.00    +0.000 A 
ATOM     14  C   UNL     1      46.887   4.628  13.343  0.00  0.00    +0.000 A 
BRANCH  12  15
ATOM     15  C   UNL     1      43.884   3.101  11.730  0.00  0.00    +0.000 C 
ATOM     16  N   UNL     1      43.001   2.379  11.527  0.00  0.00    +0.000 NA
ENDBRANCH  12  15
ENDBRANCH   6   9
BRANCH   1  17
ATOM     17  C   UNL     1      51.521   8.051  16.126  0.00  0.00    +0.000 C 
BRANCH  17  19
ATOM     18  C   UNL     1      53.488   7.942  17.713  0.00  0.00    +0.000 C 
ATOM     19  C   UNL     1      52.827   7.280  16.481  0.00  0.00    +0.000 C 
ATOM     20  C   UNL     1      52.398   5.856  16.925  0.00  0.00    +0.000 C 
BRANCH  19  21
ATOM     21  C   UNL     1      53.759   7.176  15.263  0.00  0.00    +0.000 A 
ATOM     22  C   UNL     1      53.714   8.086  14.199  0.00  0.00    +0.000 A 
ATOM     23  C   UNL     1      54.556   7.907  13.109  0.00  0.00    +0.000 A 
ATOM     24  N   UNL     1      55.439   6.897  12.998  0.00  0.00    +0.000 NA
ATOM     25  C   UNL     1      55.487   6.030  14.028  0.00  0.00    +0.000 A 
ATOM     26  C   UNL     1      54.690   6.130  15.159  0.00  0.00    +0.000 A 
ENDBRANCH  19  21
ENDBRANCH  17  19
ENDBRANCH   1  17
TORSDOF 5
ENDMDL
MODEL 8
REMARK VINA RESULT:    -5.411      2.779      8.669
REMARK INTER + INTRA:          -7.663
REMARK INTER:                  -6.821
REMARK INTRA:                  -0.842
REMARK UNBOUND:                -0.670
REMARK  Name = 
REMARK  7 active torsions:
REMARK  status: ('A' for Active; 'I' for Inactive)
REMARK    1  A    between atoms: C_1  and  C_2
REMARK    2  A    between atoms: C_2  and  C_3
REMARK    3  A    between atoms: C_2  and  C_4
REMARK    4  A    between atoms: C_2  and  C_20
REMARK    5  A    between atoms: C_4  and  N_5
REMARK    6  A    between atoms: C_10  and  C_11
REMARK    7  A    between atoms: C_14  and  C_15
REMARK                            x       y       z     vdW  Elec       q    Type
REMARK                         _______ _______ _______ _____ _____    ______ ____
ROOT
ATOM      1  N   UNL     1      50.614   7.264  15.369  0.00  0.00    +0.000 N 
ATOM      2  C   UNL     1      49.940   7.472  14.178  0.00  0.00    +0.000 A 
ATOM      3  C   UNL     1      50.407   8.364  13.215  0.00  0.00    +0.000 A 
ATOM      4  C   UNL     1      49.721   8.516  12.020  0.00  0.00    +0.000 A 
ATOM      5  C   UNL     1      48.604   7.734  11.788  0.00  0.00    +0.000 A 
ATOM      6  C   UNL     1      48.183   6.838  12.770  0.00  0.00    +0.000 A 
ATOM      7  N   UNL     1      48.835   6.724  13.964  0.00  0.00    +0.000 NA
ATOM      8  H   UNL     1      50.018   6.874  16.091  0.00  0.00    +0.000 HD
ENDROOT
BRANCH   6   9
ATOM      9  C   UNL     1      47.036   5.926  12.534  0.00  0.00    +0.000 A 
ATOM     10  C   UNL     1      46.773   4.842  13.389  0.00  0.00    +0.000 A 
ATOM     11  C   UNL     1      45.736   3.934  13.126  0.00  0.00    +0.000 A 
ATOM     12  C   UNL     1      44.927   4.095  12.002  0.00  0.00    +0.000 A 
ATOM     13  C   UNL     1      45.158   5.173  11.142  0.00  0.00    +0.000 A 
ATOM     14  C   UNL     1      46.193   6.074  11.413  0.00  0.00    +0.000 A 
BRANCH  12  15
ATOM     15  C   UNL     1      43.874   3.162  11.715  0.00  0.00    +0.000 C 
ATOM     16  N   UNL     1      43.020   2.409  11.499  0.00  0.00    +0.000 NA
ENDBRANCH  12  15
ENDBRANCH   6   9
BRANCH   1  17
ATOM     17  C   UNL     1      51.789   8.045  15.721  0.00  0.00    +0.000 C 
BRANCH  17  19
ATOM     18  C   UNL     1      52.801   9.146  17.762  0.00  0.00    +0.000 C 
ATOM     19  C   UNL     1      51.557   9.101  16.842  0.00  0.00    +0.000 C 
ATOM     20  C   UNL     1      51.477  10.484  16.143  0.00  0.00    +0.000 C 
BRANCH  19  21
ATOM     21  C   UNL     1      50.244   8.833  17.594  0.00  0.00    +0.000 A 
ATOM     22  C   UNL     1      50.148   7.899  18.634  0.00  0.00    +0.000 A 
ATOM     23  C   UNL     1      48.919   7.675  19.242  0.00  0.00    +0.000 A 
ATOM     24  N   UNL     1      47.782   8.310  18.898  0.00  0.00    +0.000 NA
ATOM     25  C   UNL     1      47.881   9.215  17.906  0.00  0.00    +0.000 A 
ATOM     26  C   UNL     1      49.064   9.510  17.244  0.00  0.00    +0.000 A 
ENDBRANCH  19  21
ENDBRANCH  17  19
ENDBRANCH   1  17
TORSDOF 5
ENDMDL
MODEL 9
REMARK VINA RESULT:    -5.213      2.774      9.180
REMARK INTER + INTRA:          -7.407
REMARK INTER:                  -6.333
REMARK INTRA:                  -1.074
REMARK UNBOUND:                -0.670
REMARK  Name = 
REMARK  7 active torsions:
REMARK  status: ('A' for Active; 'I' for Inactive)
REMARK    1  A    between atoms: C_1  and  C_2
REMARK    2  A    between atoms: C_2  and  C_3
REMARK    3  A    between atoms: C_2  and  C_4
REMARK    4  A    between atoms: C_2  and  C_20
REMARK    5  A    between atoms: C_4  and  N_5
REMARK    6  A    between atoms: C_10  and  C_11
REMARK    7  A    between atoms: C_14  and  C_15
REMARK                            x       y       z     vdW  Elec       q    Type
REMARK                         _______ _______ _______ _____ _____    ______ ____
ROOT
ATOM      1  N   UNL     1      49.431   4.808  17.645  0.00  0.00    +0.000 N 
ATOM      2  C   UNL     1      49.327   5.701  16.592  0.00  0.00    +0.000 A 
ATOM      3  C   UNL     1      50.208   6.771  16.446  0.00  0.00    +0.000 A 
ATOM      4  C   UNL     1      50.092   7.621  15.357  0.00  0.00    +0.000 A 
ATOM      5  C   UNL     1      49.124   7.357  14.405  0.00  0.00    +0.000 A 
ATOM      6  C   UNL     1      48.275   6.264  14.580  0.00  0.00    +0.000 A 
ATOM      7  N   UNL     1      48.364   5.456  15.676  0.00  0.00    +0.000 NA
ATOM      8  H   UNL     1      48.564   4.310  17.820  0.00  0.00    +0.000 HD
ENDROOT
BRANCH   6   9
ATOM      9  C   UNL     1      47.273   5.899  13.548  0.00  0.00    +0.000 A 
ATOM     10  C   UNL     1      46.439   4.778  13.699  0.00  0.00    +0.000 A 
ATOM     11  C   UNL     1      45.544   4.388  12.692  0.00  0.00    +0.000 A 
ATOM     12  C   UNL     1      45.454   5.118  11.507  0.00  0.00    +0.000 A 
ATOM     13  C   UNL     1      46.263   6.245  11.336  0.00  0.00    +0.000 A 
ATOM     14  C   UNL     1      47.151   6.629  12.347  0.00  0.00    +0.000 A 
BRANCH  12  15
ATOM     15  C   UNL     1      44.553   4.717  10.463  0.00  0.00    +0.000 C 
ATOM     16  N   UNL     1      43.829   4.408   9.614  0.00  0.00    +0.000 NA
ENDBRANCH  12  15
ENDBRANCH   6   9
BRANCH   1  17
ATOM     17  C   UNL     1      50.401   5.002  18.709  0.00  0.00    +0.000 C 
BRANCH  17  19
ATOM     18  C   UNL     1      48.667   4.433  20.462  0.00  0.00    +0.000 C 
ATOM     19  C   UNL     1      49.791   5.425  20.079  0.00  0.00    +0.000 C 
ATOM     20  C   UNL     1      50.910   5.251  21.139  0.00  0.00    +0.000 C 
BRANCH  19  21
ATOM     21  C   UNL     1      49.335   6.893  20.053  0.00  0.00    +0.000 A 
ATOM     22  C   UNL     1      50.238   7.961  19.973  0.00  0.00    +0.000 A 
ATOM     23  C   UNL     1      49.759   9.265  19.999  0.00  0.00    +0.000 A 
ATOM     24  N   UNL     1      48.454   9.586  20.093  0.00  0.00    +0.000 NA
ATOM     25  C   UNL     1      47.590   8.556  20.158  0.00  0.00    +0.000 A 
ATOM     26  C   UNL     1      47.973   7.222  20.135  0.00  0.00    +0.000 A 
ENDBRANCH  19  21
ENDBRANCH  17  19
ENDBRANCH   1  17
TORSDOF 5
ENDMDL
