MODEL 1
REMARK VINA RESULT:    -8.360      0.000      0.000
REMARK INTER + INTRA:         -10.341
REMARK INTER:                 -10.315
REMARK INTRA:                  -0.026
REMARK UNBOUND:                -0.026
REMARK  Name = 
REMARK  6 active torsions:
REMARK  status: ('A' for Active; 'I' for Inactive)
REMARK    1  A    between atoms: C_1  and  O_2
REMARK    2  A    between atoms: O_2  and  C_3
REMARK    3  A    between atoms: C_5  and  C_6
REMARK    4  A    between atoms: C_6  and  N_7
REMARK    5  A    between atoms: C_11  and  C_12
REMARK    6  A    between atoms: C_15  and  C_16
REMARK                            x       y       z     vdW  Elec       q    Type
REMARK                         _______ _______ _______ _____ _____    ______ ____
ROOT
ATOM      1  N   UNL     1      43.807   4.845   9.807  0.00  0.00    +0.000 N 
ATOM      2  C   UNL     1      44.604   3.864   9.245  0.00  0.00    +0.000 A 
ATOM      3  N   UNL     1      44.592   2.613   9.715  0.00  0.00    +0.000 NA
ATOM      4  C   UNL     1      45.374   1.716   9.071  0.00  0.00    +0.000 A 
ATOM      5  C   UNL     1      46.156   2.003   7.970  0.00  0.00    +0.000 A 
ATOM      6  C   UNL     1      46.127   3.328   7.568  0.00  0.00    +0.000 A 
ATOM      7  C   UNL     1      46.885   3.890   6.403  0.00  0.00    +0.000 C 
ATOM      8  N   UNL     1      45.356   4.252   8.208  0.00  0.00    +0.000 NA
ATOM      9  H   UNL     1      44.201   5.738   9.533  0.00  0.00    +0.000 HD
ENDROOT
BRANCH   5  10
ATOM     10  C   UNL     1      46.978   0.947   7.341  0.00  0.00    +0.000 C 
ATOM     11  N   UNL     1      46.688  -0.356   7.651  0.00  0.00    +0.000 N 
ATOM     12  O   UNL     1      47.893   1.199   6.569  0.00  0.00    +0.000 OA
ATOM     13  H   UNL     1      45.865  -0.660   8.152  0.00  0.00    +0.000 HD
ATOM     14  H   UNL     1      47.221  -1.066   7.161  0.00  0.00    +0.000 HD
ENDBRANCH   5  10
BRANCH   1  15
ATOM     15  C   UNL     1      43.528   4.690  11.217  0.00  0.00    +0.000 C 
BRANCH  15  18
ATOM     16  C   UNL     1      46.506   4.653  13.575  0.00  0.00    +0.000 A 
ATOM     17  C   UNL     1      45.391   4.218  12.873  0.00  0.00    +0.000 A 
ATOM     18  C   UNL     1      44.733   5.119  12.024  0.00  0.00    +0.000 A 
ATOM     19  C   UNL     1      45.233   6.419  11.929  0.00  0.00    +0.000 A 
ATOM     20  C   UNL     1      46.356   6.757  12.668  0.00  0.00    +0.000 A 
ATOM     21  N   UNL     1      47.005   5.904  13.487  0.00  0.00    +0.000 NA
BRANCH  16  23
ATOM     22  C   UNL     1      47.255   4.190  15.741  0.00  0.00    +0.000 C 
ATOM     23  O   UNL     1      47.120   3.730  14.399  0.00  0.00    +0.000 OA
ENDBRANCH  16  23
ENDBRANCH  15  18
ENDBRANCH   1  15
TORSDOF 4
ENDMDL
MODEL 2
REMARK VINA RESULT:    -7.670      1.549      2.195
REMARK INTER + INTRA:          -9.490
REMARK INTER:                  -9.421
REMARK INTRA:                  -0.069
REMARK UNBOUND:                -0.026
REMARK  Name = 
REMARK  6 active torsions:
REMARK  status: ('A' for Active; 'I' for Inactive)
REMARK    1  A    between atoms: C_1  and  O_2
REMARK    2  A    between atoms: O_2  and  C_3
REMARK    3  A    between atoms: C_5  and  C_6
REMARK    4  A    between atoms: C_6  and  N_7
REMARK    5  A    between atoms: C_11  and  C_12
REMARK    6  A    between atoms: C_15  and  C_16
REMARK                            x       y       z     vdW  Elec       q    Type
REMARK                         _______ _______ _______ _____ _____    ______ ____
ROOT
ATOM      1  N   UNL     1      44.409   2.551  10.814  0.00  0.00    +0.000 N 
ATOM      2  C   UNL     1      45.098   2.616   9.616  0.00  0.00    +0.000 A 
ATOM      3  N   UNL     1      45.330   3.788   9.016  0.00  0.00    +0.000 NA
ATOM      4  C   UNL     1      46.050   3.751   7.871  0.00  0.00    +0.000 A 
ATOM      5  C   UNL     1      46.563   2.602   7.303  0.00  0.00    +0.000 A 
ATOM      6  C   UNL     1      46.254   1.433   7.977  0.00  0.00    +0.000 A 
ATOM      7  C   UNL     1      46.693   0.060   7.565  0.00  0.00    +0.000 C 
ATOM      8  N   UNL     1      45.520   1.443   9.126  0.00  0.00    +0.000 NA
ATOM      9  H   UNL     1      44.074   1.599  10.910  0.00  0.00    +0.000 HD
ENDROOT
BRANCH   5  10
ATOM     10  C   UNL     1      47.337   2.672   6.044  0.00  0.00    +0.000 C 
ATOM     11  N   UNL     1      48.692   2.492   6.117  0.00  0.00    +0.000 N 
ATOM     12  O   UNL     1      46.809   2.886   4.961  0.00  0.00    +0.000 OA
ATOM     13  H   UNL     1      49.187   2.164   6.935  0.00  0.00    +0.000 HD
ATOM     14  H   UNL     1      49.195   2.481   5.236  0.00  0.00    +0.000 HD
ENDBRANCH   5  10
BRANCH   1  15
ATOM     15  C   UNL     1      43.423   3.587  11.022  0.00  0.00    +0.000 C 
BRANCH  15  18
ATOM     16  C   UNL     1      45.753   5.858  12.982  0.00  0.00    +0.000 A 
ATOM     17  C   UNL     1      45.161   4.701  12.497  0.00  0.00    +0.000 A 
ATOM     18  C   UNL     1      44.088   4.815  11.601  0.00  0.00    +0.000 A 
ATOM     19  C   UNL     1      43.663   6.096  11.243  0.00  0.00    +0.000 A 
ATOM     20  C   UNL     1      44.322   7.191  11.779  0.00  0.00    +0.000 A 
ATOM     21  N   UNL     1      45.358   7.102  12.638  0.00  0.00    +0.000 NA
BRANCH  16  23
ATOM     22  C   UNL     1      46.852   4.390  14.432  0.00  0.00    +0.000 C 
ATOM     23  O   UNL     1      46.806   5.694  13.862  0.00  0.00    +0.000 OA
ENDBRANCH  16  23
ENDBRANCH  15  18
ENDBRANCH   1  15
TORSDOF 4
ENDMDL
MODEL 3
REMARK VINA RESULT:    -7.624      2.180      3.140
REMARK INTER + INTRA:          -9.432
REMARK INTER:                  -9.275
REMARK INTRA:                  -0.157
REMARK UNBOUND:                -0.026
REMARK  Name = 
REMARK  6 active torsions:
REMARK  status: ('A' for Active; 'I' for Inactive)
REMARK    1  A    between atoms: C_1  and  O_2
REMARK    2  A    between atoms: O_2  and  C_3
REMARK    3  A    between atoms: C_5  and  C_6
REMARK    4  A    between atoms: C_6  and  N_7
REMARK    5  A    between atoms: C_11  and  C_12
REMARK    6  A    between atoms: C_15  and  C_16
REMARK                            x       y       z     vdW  Elec       q    Type
REMARK                         _______ _______ _______ _____ _____    ______ ____
ROOT
ATOM      1  N   UNL     1      44.393   2.746  10.806  0.00  0.00    +0.000 N 
ATOM      2  C   UNL     1      45.095   2.755   9.614  0.00  0.00    +0.000 A 
ATOM      3  N   UNL     1      45.380   3.902   8.989  0.00  0.00    +0.000 NA
ATOM      4  C   UNL     1      46.108   3.808   7.853  0.00  0.00    +0.000 A 
ATOM      5  C   UNL     1      46.580   2.626   7.317  0.00  0.00    +0.000 A 
ATOM      6  C   UNL     1      46.217   1.487   8.016  0.00  0.00    +0.000 A 
ATOM      7  C   UNL     1      46.604   0.088   7.640  0.00  0.00    +0.000 C 
ATOM      8  N   UNL     1      45.474   1.555   9.156  0.00  0.00    +0.000 NA
ATOM      9  H   UNL     1      44.018   1.811  10.921  0.00  0.00    +0.000 HD
ENDROOT
BRANCH   5  10
ATOM     10  C   UNL     1      47.367   2.636   6.065  0.00  0.00    +0.000 C 
ATOM     11  N   UNL     1      48.722   2.462   6.162  0.00  0.00    +0.000 N 
ATOM     12  O   UNL     1      46.851   2.794   4.967  0.00  0.00    +0.000 OA
ATOM     13  H   UNL     1      49.208   2.176   7.001  0.00  0.00    +0.000 HD
ATOM     14  H   UNL     1      49.235   2.408   5.288  0.00  0.00    +0.000 HD
ENDBRANCH   5  10
BRANCH   1  15
ATOM     15  C   UNL     1      43.447   3.826  10.980  0.00  0.00    +0.000 C 
BRANCH  15  18
ATOM     16  C   UNL     1      44.554   7.379  11.742  0.00  0.00    +0.000 A 
ATOM     17  C   UNL     1      43.909   6.317  11.126  0.00  0.00    +0.000 A 
ATOM     18  C   UNL     1      44.143   5.017  11.598  0.00  0.00    +0.000 A 
ATOM     19  C   UNL     1      45.023   4.855  12.671  0.00  0.00    +0.000 A 
ATOM     20  C   UNL     1      45.617   5.981  13.222  0.00  0.00    +0.000 A 
ATOM     21  N   UNL     1      45.400   7.238  12.784  0.00  0.00    +0.000 NA
BRANCH  16  23
ATOM     22  C   UNL     1      45.057   9.658  11.879  0.00  0.00    +0.000 C 
ATOM     23  O   UNL     1      44.291   8.639  11.242  0.00  0.00    +0.000 OA
ENDBRANCH  16  23
ENDBRANCH  15  18
ENDBRANCH   1  15
TORSDOF 4
ENDMDL
MODEL 4
REMARK VINA RESULT:    -7.480      1.788      6.711
REMARK INTER + INTRA:          -9.255
REMARK INTER:                  -8.717
REMARK INTRA:                  -0.538
REMARK UNBOUND:                -0.026
REMARK  Name = 
REMARK  6 active torsions:
REMARK  status: ('A' for Active; 'I' for Inactive)
REMARK    1  A    between atoms: C_1  and  O_2
REMARK    2  A    between atoms: O_2  and  C_3
REMARK    3  A    between atoms: C_5  and  C_6
REMARK    4  A    between atoms: C_6  and  N_7
REMARK    5  A    between atoms: C_11  and  C_12
REMARK    6  A    between atoms: C_15  and  C_16
REMARK                            x       y       z     vdW  Elec       q    Type
REMARK                         _______ _______ _______ _____ _____    ______ ____
ROOT
ATOM      1  N   UNL     1      43.935   4.217  11.652  0.00  0.00    +0.000 N 
ATOM      2  C   UNL     1      45.012   4.863  12.231  0.00  0.00    +0.000 A 
ATOM      3  N   UNL     1      45.377   6.086  11.836  0.00  0.00    +0.000 NA
ATOM      4  C   UNL     1      46.416   6.651  12.493  0.00  0.00    +0.000 A 
ATOM      5  C   UNL     1      47.100   6.060  13.537  0.00  0.00    +0.000 A 
ATOM      6  C   UNL     1      46.671   4.785  13.863  0.00  0.00    +0.000 A 
ATOM      7  C   UNL     1      47.248   3.936  14.956  0.00  0.00    +0.000 C 
ATOM      8  N   UNL     1      45.634   4.190  13.208  0.00  0.00    +0.000 NA
ATOM      9  H   UNL     1      44.039   3.229  11.855  0.00  0.00    +0.000 HD
ENDROOT
BRANCH   5  10
ATOM     10  C   UNL     1      48.226   6.766  14.186  0.00  0.00    +0.000 C 
ATOM     11  N   UNL     1      47.948   7.537  15.283  0.00  0.00    +0.000 N 
ATOM     12  O   UNL     1      49.376   6.683  13.777  0.00  0.00    +0.000 OA
ATOM     13  H   UNL     1      47.065   7.542  15.776  0.00  0.00    +0.000 HD
ATOM     14  H   UNL     1      48.742   7.961  15.751  0.00  0.00    +0.000 HD
ENDBRANCH   5  10
BRANCH   1  15
ATOM     15  C   UNL     1      43.679   4.549  10.269  0.00  0.00    +0.000 C 
BRANCH  15  18
ATOM     16  C   UNL     1      46.014   3.370   7.513  0.00  0.00    +0.000 A 
ATOM     17  C   UNL     1      45.236   4.213   8.293  0.00  0.00    +0.000 A 
ATOM     18  C   UNL     1      44.522   3.671   9.371  0.00  0.00    +0.000 A 
ATOM     19  C   UNL     1      44.628   2.298   9.606  0.00  0.00    +0.000 A 
ATOM     20  C   UNL     1      45.435   1.539   8.772  0.00  0.00    +0.000 A 
ATOM     21  N   UNL     1      46.132   2.044   7.733  0.00  0.00    +0.000 NA
BRANCH  16  23
ATOM     22  C   UNL     1      47.064   3.013   5.455  0.00  0.00    +0.000 C 
ATOM     23  O   UNL     1      46.697   3.951   6.462  0.00  0.00    +0.000 OA
ENDBRANCH  16  23
ENDBRANCH  15  18
ENDBRANCH   1  15
TORSDOF 4
ENDMDL
MODEL 5
REMARK VINA RESULT:    -7.051      3.238      8.040
REMARK INTER + INTRA:          -8.726
REMARK INTER:                  -8.363
REMARK INTRA:                  -0.363
REMARK UNBOUND:                -0.026
REMARK  Name = 
REMARK  6 active torsions:
REMARK  status: ('A' for Active; 'I' for Inactive)
REMARK    1  A    between atoms: C_1  and  O_2
REMARK    2  A    between atoms: O_2  and  C_3
REMARK    3  A    between atoms: C_5  and  C_6
REMARK    4  A    between atoms: C_6  and  N_7
REMARK    5  A    between atoms: C_11  and  C_12
REMARK    6  A    between atoms: C_15  and  C_16
REMARK                            x       y       z     vdW  Elec       q    Type
REMARK                         _______ _______ _______ _____ _____    ______ ____
ROOT
ATOM      1  N   UNL     1      46.830   3.633  14.191  0.00  0.00    +0.000 N 
ATOM      2  C   UNL     1      47.434   3.796  15.424  0.00  0.00    +0.000 A 
ATOM      3  N   UNL     1      47.084   4.798  16.237  0.00  0.00    +0.000 NA
ATOM      4  C   UNL     1      47.702   4.847  17.439  0.00  0.00    +0.000 A 
ATOM      5  C   UNL     1      48.643   3.936  17.877  0.00  0.00    +0.000 A 
ATOM      6  C   UNL     1      48.963   2.948  16.961  0.00  0.00    +0.000 A 
ATOM      7  C   UNL     1      49.951   1.844  17.196  0.00  0.00    +0.000 C 
ATOM      8  N   UNL     1      48.362   2.884  15.739  0.00  0.00    +0.000 NA
ATOM      9  H   UNL     1      47.446   3.051  13.634  0.00  0.00    +0.000 HD
ENDROOT
BRANCH   5  10
ATOM     10  C   UNL     1      49.261   4.083  19.212  0.00  0.00    +0.000 C 
ATOM     11  N   UNL     1      48.566   3.608  20.293  0.00  0.00    +0.000 N 
ATOM     12  O   UNL     1      50.353   4.610  19.375  0.00  0.00    +0.000 OA
ATOM     13  H   UNL     1      47.739   3.030  20.238  0.00  0.00    +0.000 HD
ATOM     14  H   UNL     1      49.035   3.662  21.191  0.00  0.00    +0.000 HD
ENDBRANCH   5  10
BRANCH   1  15
ATOM     15  C   UNL     1      46.373   4.848  13.555  0.00  0.00    +0.000 C 
BRANCH  15  18
ATOM     16  C   UNL     1      43.877   3.270  11.165  0.00  0.00    +0.000 A 
ATOM     17  C   UNL     1      45.060   3.501  11.851  0.00  0.00    +0.000 A 
ATOM     18  C   UNL     1      45.117   4.566  12.761  0.00  0.00    +0.000 A 
ATOM     19  C   UNL     1      43.972   5.349  12.931  0.00  0.00    +0.000 A 
ATOM     20  C   UNL     1      42.836   5.035  12.201  0.00  0.00    +0.000 A 
ATOM     21  N   UNL     1      42.761   4.012  11.324  0.00  0.00    +0.000 NA
BRANCH  16  23
ATOM     22  C   UNL     1      44.732   2.417   9.163  0.00  0.00    +0.000 C 
ATOM     23  O   UNL     1      43.871   2.210  10.279  0.00  0.00    +0.000 OA
ENDBRANCH  16  23
ENDBRANCH  15  18
ENDBRANCH   1  15
TORSDOF 4
ENDMDL
MODEL 6
REMARK VINA RESULT:    -7.023      2.115      6.630
REMARK INTER + INTRA:          -8.692
REMARK INTER:                  -8.780
REMARK INTRA:                   0.088
REMARK UNBOUND:                -0.026
REMARK  Name = 
REMARK  6 active torsions:
REMARK  status: ('A' for Active; 'I' for Inactive)
REMARK    1  A    between atoms: C_1  and  O_2
REMARK    2  A    between atoms: O_2  and  C_3
REMARK    3  A    between atoms: C_5  and  C_6
REMARK    4  A    between atoms: C_6  and  N_7
REMARK    5  A    between atoms: C_11  and  C_12
REMARK    6  A    between atoms: C_15  and  C_16
REMARK                            x       y       z     vdW  Elec       q    Type
REMARK                         _______ _______ _______ _____ _____    ______ ____
ROOT
ATOM      1  N   UNL     1      44.897   3.393  11.405  0.00  0.00    +0.000 N 
ATOM      2  C   UNL     1      45.091   4.743  11.633  0.00  0.00    +0.000 A 
ATOM      3  N   UNL     1      44.248   5.655  11.139  0.00  0.00    +0.000 NA
ATOM      4  C   UNL     1      44.499   6.946  11.454  0.00  0.00    +0.000 A 
ATOM      5  C   UNL     1      45.543   7.372  12.250  0.00  0.00    +0.000 A 
ATOM      6  C   UNL     1      46.380   6.364  12.697  0.00  0.00    +0.000 A 
ATOM      7  C   UNL     1      47.579   6.567  13.574  0.00  0.00    +0.000 C 
ATOM      8  N   UNL     1      46.154   5.056  12.384  0.00  0.00    +0.000 NA
ATOM      9  H   UNL     1      45.785   2.934  11.574  0.00  0.00    +0.000 HD
ENDROOT
BRANCH   5  10
ATOM     10  C   UNL     1      45.730   8.812  12.530  0.00  0.00    +0.000 C 
ATOM     11  N   UNL     1      44.622   9.547  12.860  0.00  0.00    +0.000 N 
ATOM     12  O   UNL     1      46.825   9.355  12.474  0.00  0.00    +0.000 OA
ATOM     13  H   UNL     1      43.715   9.157  13.077  0.00  0.00    +0.000 HD
ATOM     14  H   UNL     1      44.781  10.517  13.110  0.00  0.00    +0.000 HD
ENDBRANCH   5  10
BRANCH   1  15
ATOM     15  C   UNL     1      44.246   3.058  10.159  0.00  0.00    +0.000 C 
BRANCH  15  18
ATOM     16  C   UNL     1      46.727   1.937   7.509  0.00  0.00    +0.000 A 
ATOM     17  C   UNL     1      45.819   1.876   8.556  0.00  0.00    +0.000 A 
ATOM     18  C   UNL     1      45.260   3.069   9.037  0.00  0.00    +0.000 A 
ATOM     19  C   UNL     1      45.651   4.268   8.436  0.00  0.00    +0.000 A 
ATOM     20  C   UNL     1      46.563   4.225   7.393  0.00  0.00    +0.000 A 
ATOM     21  N   UNL     1      47.108   3.088   6.914  0.00  0.00    +0.000 NA
BRANCH  16  23
ATOM     22  C   UNL     1      46.611  -0.393   7.658  0.00  0.00    +0.000 C 
ATOM     23  O   UNL     1      47.251   0.736   7.071  0.00  0.00    +0.000 OA
ENDBRANCH  16  23
ENDBRANCH  15  18
ENDBRANCH   1  15
TORSDOF 4
ENDMDL
MODEL 7
REMARK VINA RESULT:    -7.013      1.981      7.009
REMARK INTER + INTRA:          -8.679
REMARK INTER:                  -8.246
REMARK INTRA:                  -0.433
REMARK UNBOUND:                -0.026
REMARK  Name = 
REMARK  6 active torsions:
REMARK  status: ('A' for Active; 'I' for Inactive)
REMARK    1  A    between atoms: C_1  and  O_2
REMARK    2  A    between atoms: O_2  and  C_3
REMARK    3  A    between atoms: C_5  and  C_6
REMARK    4  A    between atoms: C_6  and  N_7
REMARK    5  A    between atoms: C_11  and  C_12
REMARK    6  A    between atoms: C_15  and  C_16
REMARK                            x       y       z     vdW  Elec       q    Type
REMARK                         _______ _______ _______ _____ _____    ______ ____
ROOT
ATOM      1  N   UNL     1      46.132   6.087  11.399  0.00  0.00    +0.000 N 
ATOM      2  C   UNL     1      46.555   5.745  12.671  0.00  0.00    +0.000 A 
ATOM      3  N   UNL     1      46.166   4.602  13.244  0.00  0.00    +0.000 NA
ATOM      4  C   UNL     1      46.669   4.338  14.471  0.00  0.00    +0.000 A 
ATOM      5  C   UNL     1      47.554   5.153  15.150  0.00  0.00    +0.000 A 
ATOM      6  C   UNL     1      47.882   6.327  14.493  0.00  0.00    +0.000 A 
ATOM      7  C   UNL     1      48.820   7.372  15.018  0.00  0.00    +0.000 C 
ATOM      8  N   UNL     1      47.379   6.620  13.261  0.00  0.00    +0.000 NA
ATOM      9  H   UNL     1      46.264   7.087  11.302  0.00  0.00    +0.000 HD
ENDROOT
BRANCH   5  10
ATOM     10  C   UNL     1      48.041   4.770  16.493  0.00  0.00    +0.000 C 
ATOM     11  N   UNL     1      47.305   5.171  17.577  0.00  0.00    +0.000 N 
ATOM     12  O   UNL     1      49.066   4.122  16.660  0.00  0.00    +0.000 OA
ATOM     13  H   UNL     1      46.379   5.572  17.528  0.00  0.00    +0.000 HD
ATOM     14  H   UNL     1      47.622   4.844  18.484  0.00  0.00    +0.000 HD
ENDBRANCH   5  10
BRANCH   1  15
ATOM     15  C   UNL     1      44.828   5.589  11.021  0.00  0.00    +0.000 C 
BRANCH  15  18
ATOM     16  C   UNL     1      45.787   3.702   7.866  0.00  0.00    +0.000 A 
ATOM     17  C   UNL     1      45.653   4.741   8.777  0.00  0.00    +0.000 A 
ATOM     18  C   UNL     1      44.981   4.500   9.983  0.00  0.00    +0.000 A 
ATOM     19  C   UNL     1      44.472   3.219  10.209  0.00  0.00    +0.000 A 
ATOM     20  C   UNL     1      44.660   2.246   9.239  0.00  0.00    +0.000 A 
ATOM     21  N   UNL     1      45.308   2.458   8.075  0.00  0.00    +0.000 NA
BRANCH  16  23
ATOM     22  C   UNL     1      46.876   2.818   5.996  0.00  0.00    +0.000 C 
ATOM     23  O   UNL     1      46.456   3.988   6.692  0.00  0.00    +0.000 OA
ENDBRANCH  16  23
ENDBRANCH  15  18
ENDBRANCH   1  15
TORSDOF 4
ENDMDL
MODEL 8
REMARK VINA RESULT:    -6.661      3.808      6.414
REMARK INTER + INTRA:          -8.245
REMARK INTER:                  -7.820
REMARK INTRA:                  -0.425
REMARK UNBOUND:                -0.026
REMARK  Name = 
REMARK  6 active torsions:
REMARK  status: ('A' for Active; 'I' for Inactive)
REMARK    1  A    between atoms: C_1  and  O_2
REMARK    2  A    between atoms: O_2  and  C_3
REMARK    3  A    between atoms: C_5  and  C_6
REMARK    4  A    between atoms: C_6  and  N_7
REMARK    5  A    between atoms: C_11  and  C_12
REMARK    6  A    between atoms: C_15  and  C_16
REMARK                            x       y       z     vdW  Elec       q    Type
REMARK                         _______ _______ _______ _____ _____    ______ ____
ROOT
ATOM      1  N   UNL     1      47.242   3.716  15.650  0.00  0.00    +0.000 N 
ATOM      2  C   UNL     1      46.842   4.345  14.485  0.00  0.00    +0.000 A 
ATOM      3  N   UNL     1      47.441   5.463  14.063  0.00  0.00    +0.000 NA
ATOM      4  C   UNL     1      47.007   5.978  12.890  0.00  0.00    +0.000 A 
ATOM      5  C   UNL     1      46.012   5.423  12.109  0.00  0.00    +0.000 A 
ATOM      6  C   UNL     1      45.430   4.282  12.635  0.00  0.00    +0.000 A 
ATOM      7  C   UNL     1      44.334   3.496  11.980  0.00  0.00    +0.000 C 
ATOM      8  N   UNL     1      45.843   3.751  13.820  0.00  0.00    +0.000 NA
ATOM      9  H   UNL     1      46.478   3.116  15.940  0.00  0.00    +0.000 HD
ENDROOT
BRANCH   5  10
ATOM     10  C   UNL     1      45.610   6.070  10.841  0.00  0.00    +0.000 C 
ATOM     11  N   UNL     1      44.648   7.044  10.900  0.00  0.00    +0.000 N 
ATOM     12  O   UNL     1      46.101   5.763   9.763  0.00  0.00    +0.000 OA
ATOM     13  H   UNL     1      44.302   7.463  11.752  0.00  0.00    +0.000 HD
ATOM     14  H   UNL     1      44.433   7.519  10.029  0.00  0.00    +0.000 HD
ENDBRANCH   5  10
BRANCH   1  15
ATOM     15  C   UNL     1      47.779   4.584  16.674  0.00  0.00    +0.000 C 
BRANCH  15  18
ATOM     16  C   UNL     1      50.799   2.387  17.371  0.00  0.00    +0.000 A 
ATOM     17  C   UNL     1      49.507   2.760  17.031  0.00  0.00    +0.000 A 
ATOM     18  C   UNL     1      49.166   4.120  17.059  0.00  0.00    +0.000 A 
ATOM     19  C   UNL     1      50.150   5.037  17.432  0.00  0.00    +0.000 A 
ATOM     20  C   UNL     1      51.415   4.566  17.750  0.00  0.00    +0.000 A 
ATOM     21  N   UNL     1      51.762   3.263  17.726  0.00  0.00    +0.000 NA
BRANCH  16  23
ATOM     22  C   UNL     1      52.422   0.743  17.727  0.00  0.00    +0.000 C 
ATOM     23  O   UNL     1      51.086   1.036  17.329  0.00  0.00    +0.000 OA
ENDBRANCH  16  23
ENDBRANCH  15  18
ENDBRANCH   1  15
TORSDOF 4
ENDMDL
MODEL 9
REMARK VINA RESULT:    -6.516      2.763      7.539
REMARK INTER + INTRA:          -8.065
REMARK INTER:                  -7.667
REMARK INTRA:                  -0.399
REMARK UNBOUND:                -0.026
REMARK  Name = 
REMARK  6 active torsions:
REMARK  status: ('A' for Active; 'I' for Inactive)
REMARK    1  A    between atoms: C_1  and  O_2
REMARK    2  A    between atoms: O_2  and  C_3
REMARK    3  A    between atoms: C_5  and  C_6
REMARK    4  A    between atoms: C_6  and  N_7
REMARK    5  A    between atoms: C_11  and  C_12
REMARK    6  A    between atoms: C_15  and  C_16
REMARK                            x       y       z     vdW  Elec       q    Type
REMARK                         _______ _______ _______ _____ _____    ______ ____
ROOT
ATOM      1  N   UNL     1      46.881   5.750  13.641  0.00  0.00    +0.000 N 
ATOM      2  C   UNL     1      47.373   5.186  14.805  0.00  0.00    +0.000 A 
ATOM      3  N   UNL     1      46.940   3.996  15.231  0.00  0.00    +0.000 NA
ATOM      4  C   UNL     1      47.512   3.510  16.357  0.00  0.00    +0.000 A 
ATOM      5  C   UNL     1      48.507   4.149  17.070  0.00  0.00    +0.000 A 
ATOM      6  C   UNL     1      48.876   5.387  16.571  0.00  0.00    +0.000 A 
ATOM      7  C   UNL     1      49.931   6.273  17.163  0.00  0.00    +0.000 C 
ATOM      8  N   UNL     1      48.306   5.902  15.446  0.00  0.00    +0.000 NA
ATOM      9  H   UNL     1      47.085   6.742  13.684  0.00  0.00    +0.000 HD
ENDROOT
BRANCH   5  10
ATOM     10  C   UNL     1      49.064   3.530  18.293  0.00  0.00    +0.000 C 
ATOM     11  N   UNL     1      50.148   2.704  18.152  0.00  0.00    +0.000 N 
ATOM     12  O   UNL     1      48.591   3.729  19.403  0.00  0.00    +0.000 OA
ATOM     13  H   UNL     1      50.691   2.604  17.306  0.00  0.00    +0.000 HD
ATOM     14  H   UNL     1      50.553   2.341  19.009  0.00  0.00    +0.000 HD
ENDBRANCH   5  10
BRANCH   1  15
ATOM     15  C   UNL     1      45.518   5.404  13.308  0.00  0.00    +0.000 C 
BRANCH  15  18
ATOM     16  C   UNL     1      44.811   3.496  10.100  0.00  0.00    +0.000 A 
ATOM     17  C   UNL     1      44.889   3.790  11.454  0.00  0.00    +0.000 A 
ATOM     18  C   UNL     1      45.432   5.022  11.848  0.00  0.00    +0.000 A 
ATOM     19  C   UNL     1      45.873   5.895  10.851  0.00  0.00    +0.000 A 
ATOM     20  C   UNL     1      45.749   5.511   9.525  0.00  0.00    +0.000 A 
ATOM     21  N   UNL     1      45.226   4.334   9.127  0.00  0.00    +0.000 NA
BRANCH  16  23
ATOM     22  C   UNL     1      45.050   1.568   8.800  0.00  0.00    +0.000 C 
ATOM     23  O   UNL     1      44.269   2.271   9.762  0.00  0.00    +0.000 OA
ENDBRANCH  16  23
ENDBRANCH  15  18
ENDBRANCH   1  15
TORSDOF 4
ENDMDL
