MODEL 1
REMARK VINA RESULT:    -8.782      0.000      0.000
REMARK INTER + INTRA:         -11.935
REMARK INTER:                 -11.349
REMARK INTRA:                  -0.586
REMARK UNBOUND:                -0.586
REMARK  Name = 
REMARK  8 active torsions:
REMARK  status: ('A' for Active; 'I' for Inactive)
REMARK    1  A    between atoms: C_1  and  C_2
REMARK    2  A    between atoms: C_2  and  C_3
REMARK    3  A    between atoms: C_2  and  C_4
REMARK    4  A    between atoms: C_2  and  C_5
REMARK    5  A    between atoms: N_7  and  C_8
REMARK    6  A    between atoms: C_8  and  C_9
REMARK    7  A    between atoms: C_12  and  C_13
REMARK    8  A    between atoms: C_22  and  C_23
REMARK                            x       y       z     vdW  Elec       q    Type
REMARK                         _______ _______ _______ _____ _____    ______ ____
ROOT
ATOM      1  C   UNL     1      46.346   7.344  12.140  0.00  0.00    +0.000 A 
ATOM      2  C   UNL     1      45.578   6.994  11.039  0.00  0.00    +0.000 A 
ATOM      3  N   UNL     1      45.247   5.663  11.119  0.00  0.00    +0.000 N 
ATOM      4  C   UNL     1      45.788   5.122  12.260  0.00  0.00    +0.000 A 
ATOM      5  N   UNL     1      45.665   3.839  12.658  0.00  0.00    +0.000 NA
ATOM      6  C   UNL     1      46.285   3.584  13.842  0.00  0.00    +0.000 A 
ATOM      7  C   UNL     1      46.983   4.505  14.620  0.00  0.00    +0.000 A 
ATOM      8  C   UNL     1      47.081   5.815  14.151  0.00  0.00    +0.000 A 
ATOM      9  C   UNL     1      46.467   6.143  12.924  0.00  0.00    +0.000 A 
ENDROOT
BRANCH   7  10
ATOM     10  C   UNL     1      47.577   4.055  15.904  0.00  0.00    +0.000 C 
ATOM     11  N   UNL     1      47.296   4.756  17.046  0.00  0.00    +0.000 N 
ATOM     12  O   UNL     1      48.303   3.069  15.953  0.00  0.00    +0.000 OA
ATOM     13  H   UNL     1      46.695   5.559  17.108  0.00  0.00    +0.000 HD
ATOM     14  H   UNL     1      47.706   4.412  17.906  0.00  0.00    +0.000 HD
ENDBRANCH   7  10
BRANCH   1  16
ATOM     15  C   UNL     1      47.152   8.917  13.971  0.00  0.00    +0.000 C 
ATOM     16  C   UNL     1      46.929   8.721  12.455  0.00  0.00    +0.000 C 
ATOM     17  C   UNL     1      45.963   9.829  11.986  0.00  0.00    +0.000 C 
ATOM     18  C   UNL     1      48.299   8.903  11.767  0.00  0.00    +0.000 C 
ENDBRANCH   1  16
BRANCH   3  19
ATOM     19  C   UNL     1      44.313   4.996  10.220  0.00  0.00    +0.000 C 
BRANCH  19  20
ATOM     20  C   UNL     1      44.957   3.979   9.320  0.00  0.00    +0.000 A 
ATOM     21  C   UNL     1      45.870   4.339   8.325  0.00  0.00    +0.000 A 
ATOM     22  C   UNL     1      46.545   3.348   7.616  0.00  0.00    +0.000 A 
ATOM     23  C   UNL     1      46.285   2.020   7.925  0.00  0.00    +0.000 A 
ATOM     24  N   UNL     1      45.383   1.624   8.860  0.00  0.00    +0.000 NA
ATOM     25  C   UNL     1      44.749   2.615   9.525  0.00  0.00    +0.000 A 
ATOM     26  F   UNL     1      43.881   2.231  10.474  0.00  0.00    +0.000 F 
BRANCH  23  27
ATOM     27  C   UNL     1      47.064   0.942   7.235  0.00  0.00    +0.000 C 
ATOM     28  N   UNL     1      46.778  -0.343   7.614  0.00  0.00    +0.000 N 
ATOM     29  O   UNL     1      47.919   1.184   6.391  0.00  0.00    +0.000 OA
ATOM     30  H   UNL     1      46.087  -0.524   8.331  0.00  0.00    +0.000 HD
ATOM     31  H   UNL     1      47.300  -1.104   7.203  0.00  0.00    +0.000 HD
ENDBRANCH  23  27
ENDBRANCH  19  20
ENDBRANCH   3  19
TORSDOF 5
ENDMDL
MODEL 2
REMARK VINA RESULT:    -7.582      3.354      7.095
REMARK INTER + INTRA:         -10.383
REMARK INTER:                  -9.471
REMARK INTRA:                  -0.913
REMARK UNBOUND:                -0.586
REMARK  Name = 
REMARK  8 active torsions:
REMARK  status: ('A' for Active; 'I' for Inactive)
REMARK    1  A    between atoms: C_1  and  C_2
REMARK    2  A    between atoms: C_2  and  C_3
REMARK    3  A    between atoms: C_2  and  C_4
REMARK    4  A    between atoms: C_2  and  C_5
REMARK    5  A    between atoms: N_7  and  C_8
REMARK    6  A    between atoms: C_8  and  C_9
REMARK    7  A    between atoms: C_12  and  C_13
REMARK    8  A    between atoms: C_22  and  C_23
REMARK                            x       y       z     vdW  Elec       q    Type
REMARK                         _______ _______ _______ _____ _____    ______ ____
ROOT
ATOM      1  C   UNL     1      48.466   6.956  13.850  0.00  0.00    +0.000 A 
ATOM      2  C   UNL     1      48.648   6.525  15.156  0.00  0.00    +0.000 A 
ATOM      3  N   UNL     1      47.739   5.533  15.439  0.00  0.00    +0.000 N 
ATOM      4  C   UNL     1      46.954   5.301  14.337  0.00  0.00    +0.000 A 
ATOM      5  N   UNL     1      45.958   4.394  14.257  0.00  0.00    +0.000 NA
ATOM      6  C   UNL     1      45.360   4.362  13.034  0.00  0.00    +0.000 A 
ATOM      7  C   UNL     1      45.697   5.146  11.933  0.00  0.00    +0.000 A 
ATOM      8  C   UNL     1      46.731   6.070  12.081  0.00  0.00    +0.000 A 
ATOM      9  C   UNL     1      47.387   6.160  13.327  0.00  0.00    +0.000 A 
ENDROOT
BRANCH   7  10
ATOM     10  C   UNL     1      44.952   4.957  10.663  0.00  0.00    +0.000 C 
ATOM     11  N   UNL     1      45.507   5.407   9.496  0.00  0.00    +0.000 N 
ATOM     12  O   UNL     1      43.859   4.402  10.649  0.00  0.00    +0.000 OA
ATOM     13  H   UNL     1      46.404   5.851   9.406  0.00  0.00    +0.000 HD
ATOM     14  H   UNL     1      44.978   5.248   8.647  0.00  0.00    +0.000 HD
ENDBRANCH   7  10
BRANCH   1  16
ATOM     15  C   UNL     1      49.834   7.531  11.783  0.00  0.00    +0.000 C 
ATOM     16  C   UNL     1      49.257   8.042  13.122  0.00  0.00    +0.000 C 
ATOM     17  C   UNL     1      50.446   8.507  13.987  0.00  0.00    +0.000 C 
ATOM     18  C   UNL     1      48.351   9.248  12.794  0.00  0.00    +0.000 C 
ENDBRANCH   1  16
BRANCH   3  19
ATOM     19  C   UNL     1      47.750   4.739  16.660  0.00  0.00    +0.000 C 
BRANCH  19  20
ATOM     20  C   UNL     1      48.989   3.905  16.833  0.00  0.00    +0.000 A 
ATOM     21  C   UNL     1      50.101   4.367  17.543  0.00  0.00    +0.000 A 
ATOM     22  C   UNL     1      51.164   3.503  17.797  0.00  0.00    +0.000 A 
ATOM     23  C   UNL     1      51.083   2.198  17.330  0.00  0.00    +0.000 A 
ATOM     24  N   UNL     1      50.038   1.717  16.609  0.00  0.00    +0.000 NA
ATOM     25  C   UNL     1      49.027   2.585  16.384  0.00  0.00    +0.000 A 
ATOM     26  F   UNL     1      47.975   2.106  15.701  0.00  0.00    +0.000 F 
BRANCH  23  27
ATOM     27  C   UNL     1      52.177   1.231  17.668  0.00  0.00    +0.000 C 
ATOM     28  N   UNL     1      51.776   0.025  18.179  0.00  0.00    +0.000 N 
ATOM     29  O   UNL     1      53.363   1.498  17.514  0.00  0.00    +0.000 OA
ATOM     30  H   UNL     1      50.793  -0.169  18.325  0.00  0.00    +0.000 HD
ATOM     31  H   UNL     1      52.477  -0.649  18.455  0.00  0.00    +0.000 HD
ENDBRANCH  23  27
ENDBRANCH  19  20
ENDBRANCH   3  19
TORSDOF 5
ENDMDL
MODEL 3
REMARK VINA RESULT:    -6.930      1.666      2.200
REMARK INTER + INTRA:          -9.541
REMARK INTER:                  -8.706
REMARK INTRA:                  -0.835
REMARK UNBOUND:                -0.586
REMARK  Name = 
REMARK  8 active torsions:
REMARK  status: ('A' for Active; 'I' for Inactive)
REMARK    1  A    between atoms: C_1  and  C_2
REMARK    2  A    between atoms: C_2  and  C_3
REMARK    3  A    between atoms: C_2  and  C_4
REMARK    4  A    between atoms: C_2  and  C_5
REMARK    5  A    between atoms: N_7  and  C_8
REMARK    6  A    between atoms: C_8  and  C_9
REMARK    7  A    between atoms: C_12  and  C_13
REMARK    8  A    between atoms: C_22  and  C_23
REMARK                            x       y       z     vdW  Elec       q    Type
REMARK                         _______ _______ _______ _____ _____    ______ ____
ROOT
ATOM      1  C   UNL     1      47.869   7.420  13.532  0.00  0.00    +0.000 A 
ATOM      2  C   UNL     1      46.826   7.224  12.639  0.00  0.00    +0.000 A 
ATOM      3  N   UNL     1      46.145   6.079  12.978  0.00  0.00    +0.000 N 
ATOM      4  C   UNL     1      46.726   5.510  14.086  0.00  0.00    +0.000 A 
ATOM      5  N   UNL     1      46.318   4.377  14.694  0.00  0.00    +0.000 NA
ATOM      6  C   UNL     1      47.064   4.057  15.786  0.00  0.00    +0.000 A 
ATOM      7  C   UNL     1      48.142   4.783  16.287  0.00  0.00    +0.000 A 
ATOM      8  C   UNL     1      48.520   5.943  15.610  0.00  0.00    +0.000 A 
ATOM      9  C   UNL     1      47.792   6.326  14.464  0.00  0.00    +0.000 A 
ENDROOT
BRANCH   7  10
ATOM     10  C   UNL     1      48.827   4.298  17.511  0.00  0.00    +0.000 C 
ATOM     11  N   UNL     1      48.137   3.503  18.386  0.00  0.00    +0.000 N 
ATOM     12  O   UNL     1      49.996   4.592  17.740  0.00  0.00    +0.000 OA
ATOM     13  H   UNL     1      47.189   3.191  18.272  0.00  0.00    +0.000 HD
ATOM     14  H   UNL     1      48.641   3.178  19.203  0.00  0.00    +0.000 HD
ENDBRANCH   7  10
BRANCH   1  16
ATOM     15  C   UNL     1      50.334   8.052  13.524  0.00  0.00    +0.000 C 
ATOM     16  C   UNL     1      48.878   8.568  13.530  0.00  0.00    +0.000 C 
ATOM     17  C   UNL     1      48.703   9.434  14.794  0.00  0.00    +0.000 C 
ATOM     18  C   UNL     1      48.703   9.445  12.271  0.00  0.00    +0.000 C 
ENDBRANCH   1  16
BRANCH   3  19
ATOM     19  C   UNL     1      44.896   5.655  12.359  0.00  0.00    +0.000 C 
BRANCH  19  20
ATOM     20  C   UNL     1      45.081   4.902  11.071  0.00  0.00    +0.000 A 
ATOM     21  C   UNL     1      45.552   5.521   9.910  0.00  0.00    +0.000 A 
ATOM     22  C   UNL     1      45.842   4.750   8.786  0.00  0.00    +0.000 A 
ATOM     23  C   UNL     1      45.650   3.377   8.858  0.00  0.00    +0.000 A 
ATOM     24  N   UNL     1      45.164   2.738   9.954  0.00  0.00    +0.000 NA
ATOM     25  C   UNL     1      44.896   3.520  11.022  0.00  0.00    +0.000 A 
ATOM     26  F   UNL     1      44.447   2.891  12.120  0.00  0.00    +0.000 F 
BRANCH  23  27
ATOM     27  C   UNL     1      46.038   2.521   7.691  0.00  0.00    +0.000 C 
ATOM     28  N   UNL     1      46.392   1.231   7.982  0.00  0.00    +0.000 N 
ATOM     29  O   UNL     1      46.056   2.945   6.541  0.00  0.00    +0.000 OA
ATOM     30  H   UNL     1      46.396   0.905   8.941  0.00  0.00    +0.000 HD
ATOM     31  H   UNL     1      46.695   0.623   7.234  0.00  0.00    +0.000 HD
ENDBRANCH  23  27
ENDBRANCH  19  20
ENDBRANCH   3  19
TORSDOF 5
ENDMDL
MODEL 4
REMARK VINA RESULT:    -6.866      3.843      5.446
REMARK INTER + INTRA:          -9.459
REMARK INTER:                  -8.494
REMARK INTRA:                  -0.964
REMARK UNBOUND:                -0.586
REMARK  Name = 
REMARK  8 active torsions:
REMARK  status: ('A' for Active; 'I' for Inactive)
REMARK    1  A    between atoms: C_1  and  C_2
REMARK    2  A    between atoms: C_2  and  C_3
REMARK    3  A    between atoms: C_2  and  C_4
REMARK    4  A    between atoms: C_2  and  C_5
REMARK    5  A    between atoms: N_7  and  C_8
REMARK    6  A    between atoms: C_8  and  C_9
REMARK    7  A    between atoms: C_12  and  C_13
REMARK    8  A    between atoms: C_22  and  C_23
REMARK                            x       y       z     vdW  Elec       q    Type
REMARK                         _______ _______ _______ _____ _____    ______ ____
ROOT
ATOM      1  C   UNL     1      48.850   8.479  16.270  0.00  0.00    +0.000 A 
ATOM      2  C   UNL     1      48.770   8.255  14.904  0.00  0.00    +0.000 A 
ATOM      3  N   UNL     1      48.687   6.903  14.667  0.00  0.00    +0.000 N 
ATOM      4  C   UNL     1      48.712   6.226  15.862  0.00  0.00    +0.000 A 
ATOM      5  N   UNL     1      48.648   4.886  16.008  0.00  0.00    +0.000 NA
ATOM      6  C   UNL     1      48.670   4.488  17.310  0.00  0.00    +0.000 A 
ATOM      7  C   UNL     1      48.739   5.322  18.424  0.00  0.00    +0.000 A 
ATOM      8  C   UNL     1      48.810   6.697  18.207  0.00  0.00    +0.000 A 
ATOM      9  C   UNL     1      48.800   7.175  16.880  0.00  0.00    +0.000 A 
ENDROOT
BRANCH   7  10
ATOM     10  C   UNL     1      48.727   4.713  19.777  0.00  0.00    +0.000 C 
ATOM     11  N   UNL     1      48.363   3.400  19.910  0.00  0.00    +0.000 N 
ATOM     12  O   UNL     1      49.043   5.365  20.767  0.00  0.00    +0.000 OA
ATOM     13  H   UNL     1      48.113   2.782  19.158  0.00  0.00    +0.000 HD
ATOM     14  H   UNL     1      48.381   3.013  20.846  0.00  0.00    +0.000 HD
ENDBRANCH   7  10
BRANCH   1  16
ATOM     15  C   UNL     1      48.990  11.002  15.970  0.00  0.00    +0.000 C 
ATOM     16  C   UNL     1      48.956   9.830  16.976  0.00  0.00    +0.000 C 
ATOM     17  C   UNL     1      50.256   9.898  17.804  0.00  0.00    +0.000 C 
ATOM     18  C   UNL     1      47.741  10.059  17.899  0.00  0.00    +0.000 C 
ENDBRANCH   1  16
BRANCH   3  19
ATOM     19  C   UNL     1      48.425   6.316  13.360  0.00  0.00    +0.000 C 
BRANCH  19  20
ATOM     20  C   UNL     1      46.966   6.098  13.072  0.00  0.00    +0.000 A 
ATOM     21  C   UNL     1      46.132   7.133  12.640  0.00  0.00    +0.000 A 
ATOM     22  C   UNL     1      44.826   6.849  12.249  0.00  0.00    +0.000 A 
ATOM     23  C   UNL     1      44.390   5.532  12.303  0.00  0.00    +0.000 A 
ATOM     24  N   UNL     1      45.155   4.500  12.746  0.00  0.00    +0.000 NA
ATOM     25  C   UNL     1      46.416   4.817  13.116  0.00  0.00    +0.000 A 
ATOM     26  F   UNL     1      47.188   3.797  13.523  0.00  0.00    +0.000 F 
BRANCH  23  27
ATOM     27  C   UNL     1      43.018   5.193  11.805  0.00  0.00    +0.000 C 
ATOM     28  N   UNL     1      42.108   6.216  11.809  0.00  0.00    +0.000 N 
ATOM     29  O   UNL     1      42.713   4.067  11.429  0.00  0.00    +0.000 OA
ATOM     30  H   UNL     1      42.369   7.134  12.147  0.00  0.00    +0.000 HD
ATOM     31  H   UNL     1      41.159   6.030  11.515  0.00  0.00    +0.000 HD
ENDBRANCH  23  27
ENDBRANCH  19  20
ENDBRANCH   3  19
TORSDOF 5
ENDMDL
MODEL 5
REMARK VINA RESULT:    -6.783      2.282      3.897
REMARK INTER + INTRA:          -9.351
REMARK INTER:                  -8.661
REMARK INTRA:                  -0.691
REMARK UNBOUND:                -0.586
REMARK  Name = 
REMARK  8 active torsions:
REMARK  status: ('A' for Active; 'I' for Inactive)
REMARK    1  A    between atoms: C_1  and  C_2
REMARK    2  A    between atoms: C_2  and  C_3
REMARK    3  A    between atoms: C_2  and  C_4
REMARK    4  A    between atoms: C_2  and  C_5
REMARK    5  A    between atoms: N_7  and  C_8
REMARK    6  A    between atoms: C_8  and  C_9
REMARK    7  A    between atoms: C_12  and  C_13
REMARK    8  A    between atoms: C_22  and  C_23
REMARK                            x       y       z     vdW  Elec       q    Type
REMARK                         _______ _______ _______ _____ _____    ______ ____
ROOT
ATOM      1  C   UNL     1      46.096   5.162  13.292  0.00  0.00    +0.000 A 
ATOM      2  C   UNL     1      45.333   4.262  12.563  0.00  0.00    +0.000 A 
ATOM      3  N   UNL     1      44.595   4.945  11.626  0.00  0.00    +0.000 N 
ATOM      4  C   UNL     1      44.857   6.289  11.725  0.00  0.00    +0.000 A 
ATOM      5  N   UNL     1      44.308   7.257  10.961  0.00  0.00    +0.000 NA
ATOM      6  C   UNL     1      44.767   8.502  11.263  0.00  0.00    +0.000 A 
ATOM      7  C   UNL     1      45.711   8.817  12.238  0.00  0.00    +0.000 A 
ATOM      8  C   UNL     1      46.236   7.773  13.000  0.00  0.00    +0.000 A 
ATOM      9  C   UNL     1      45.796   6.458  12.743  0.00  0.00    +0.000 A 
ENDROOT
BRANCH   7  10
ATOM     10  C   UNL     1      46.116  10.234  12.414  0.00  0.00    +0.000 C 
ATOM     11  N   UNL     1      45.188  11.219  12.208  0.00  0.00    +0.000 N 
ATOM     12  O   UNL     1      47.260  10.528  12.745  0.00  0.00    +0.000 OA
ATOM     13  H   UNL     1      44.225  11.075  11.959  0.00  0.00    +0.000 HD
ATOM     14  H   UNL     1      45.495  12.173  12.352  0.00  0.00    +0.000 HD
ENDBRANCH   7  10
BRANCH   1  16
ATOM     15  C   UNL     1      46.345   4.812  15.801  0.00  0.00    +0.000 C 
ATOM     16  C   UNL     1      47.061   4.838  14.432  0.00  0.00    +0.000 C 
ATOM     17  C   UNL     1      48.168   5.908  14.514  0.00  0.00    +0.000 C 
ATOM     18  C   UNL     1      47.698   3.447  14.227  0.00  0.00    +0.000 C 
ENDBRANCH   1  16
BRANCH   3  19
ATOM     19  C   UNL     1      43.808   4.305  10.580  0.00  0.00    +0.000 C 
BRANCH  19  20
ATOM     20  C   UNL     1      44.636   3.685   9.489  0.00  0.00    +0.000 A 
ATOM     21  C   UNL     1      45.403   4.455   8.610  0.00  0.00    +0.000 A 
ATOM     22  C   UNL     1      46.263   3.826   7.713  0.00  0.00    +0.000 A 
ATOM     23  C   UNL     1      46.329   2.439   7.721  0.00  0.00    +0.000 A 
ATOM     24  N   UNL     1      45.579   1.651   8.534  0.00  0.00    +0.000 NA
ATOM     25  C   UNL     1      44.758   2.299   9.389  0.00  0.00    +0.000 A 
ATOM     26  F   UNL     1      44.039   1.527  10.219  0.00  0.00    +0.000 F 
BRANCH  23  27
ATOM     27  C   UNL     1      47.311   1.747   6.824  0.00  0.00    +0.000 C 
ATOM     28  N   UNL     1      48.402   2.484   6.446  0.00  0.00    +0.000 N 
ATOM     29  O   UNL     1      47.150   0.597   6.434  0.00  0.00    +0.000 OA
ATOM     30  H   UNL     1      48.506   3.442   6.757  0.00  0.00    +0.000 HD
ATOM     31  H   UNL     1      49.076   2.075   5.814  0.00  0.00    +0.000 HD
ENDBRANCH  23  27
ENDBRANCH  19  20
ENDBRANCH   3  19
TORSDOF 5
ENDMDL
MODEL 6
REMARK VINA RESULT:    -6.636      3.229      7.894
REMARK INTER + INTRA:          -9.162
REMARK INTER:                  -8.498
REMARK INTRA:                  -0.663
REMARK UNBOUND:                -0.586
REMARK  Name = 
REMARK  8 active torsions:
REMARK  status: ('A' for Active; 'I' for Inactive)
REMARK    1  A    between atoms: C_1  and  C_2
REMARK    2  A    between atoms: C_2  and  C_3
REMARK    3  A    between atoms: C_2  and  C_4
REMARK    4  A    between atoms: C_2  and  C_5
REMARK    5  A    between atoms: N_7  and  C_8
REMARK    6  A    between atoms: C_8  and  C_9
REMARK    7  A    between atoms: C_12  and  C_13
REMARK    8  A    between atoms: C_22  and  C_23
REMARK                            x       y       z     vdW  Elec       q    Type
REMARK                         _______ _______ _______ _____ _____    ______ ____
ROOT
ATOM      1  C   UNL     1      47.773   6.593  13.835  0.00  0.00    +0.000 A 
ATOM      2  C   UNL     1      47.913   5.892  15.023  0.00  0.00    +0.000 A 
ATOM      3  N   UNL     1      47.186   4.728  14.954  0.00  0.00    +0.000 N 
ATOM      4  C   UNL     1      46.563   4.648  13.732  0.00  0.00    +0.000 A 
ATOM      5  N   UNL     1      45.767   3.639  13.319  0.00  0.00    +0.000 NA
ATOM      6  C   UNL     1      45.300   3.810  12.052  0.00  0.00    +0.000 A 
ATOM      7  C   UNL     1      45.583   4.883  11.209  0.00  0.00    +0.000 A 
ATOM      8  C   UNL     1      46.406   5.897  11.697  0.00  0.00    +0.000 A 
ATOM      9  C   UNL     1      46.917   5.785  13.007  0.00  0.00    +0.000 A 
ENDROOT
BRANCH   7  10
ATOM     10  C   UNL     1      45.006   4.892   9.842  0.00  0.00    +0.000 C 
ATOM     11  N   UNL     1      43.666   4.658   9.686  0.00  0.00    +0.000 N 
ATOM     12  O   UNL     1      45.708   5.112   8.861  0.00  0.00    +0.000 OA
ATOM     13  H   UNL     1      43.010   4.491  10.429  0.00  0.00    +0.000 HD
ATOM     14  H   UNL     1      43.304   4.686   8.741  0.00  0.00    +0.000 HD
ENDBRANCH   7  10
BRANCH   1  16
ATOM     15  C   UNL     1      49.252   8.499  14.645  0.00  0.00    +0.000 C 
ATOM     16  C   UNL     1      48.409   7.937  13.479  0.00  0.00    +0.000 C 
ATOM     17  C   UNL     1      47.314   8.977  13.162  0.00  0.00    +0.000 C 
ATOM     18  C   UNL     1      49.352   7.790  12.266  0.00  0.00    +0.000 C 
ENDBRANCH   1  16
BRANCH   3  19
ATOM     19  C   UNL     1      47.234   3.672  15.956  0.00  0.00    +0.000 C 
BRANCH  19  20
ATOM     20  C   UNL     1      48.177   3.954  17.093  0.00  0.00    +0.000 A 
ATOM     21  C   UNL     1      49.514   3.548  17.066  0.00  0.00    +0.000 A 
ATOM     22  C   UNL     1      50.380   3.960  18.076  0.00  0.00    +0.000 A 
ATOM     23  C   UNL     1      49.880   4.768  19.088  0.00  0.00    +0.000 A 
ATOM     24  N   UNL     1      48.582   5.160  19.171  0.00  0.00    +0.000 NA
ATOM     25  C   UNL     1      47.775   4.740  18.172  0.00  0.00    +0.000 A 
ATOM     26  F   UNL     1      46.498   5.151  18.230  0.00  0.00    +0.000 F 
BRANCH  23  27
ATOM     27  C   UNL     1      50.815   5.293  20.136  0.00  0.00    +0.000 C 
ATOM     28  N   UNL     1      51.703   4.389  20.656  0.00  0.00    +0.000 N 
ATOM     29  O   UNL     1      50.785   6.455  20.523  0.00  0.00    +0.000 OA
ATOM     30  H   UNL     1      51.696   3.426  20.344  0.00  0.00    +0.000 HD
ATOM     31  H   UNL     1      52.331   4.685  21.390  0.00  0.00    +0.000 HD
ENDBRANCH  23  27
ENDBRANCH  19  20
ENDBRANCH   3  19
TORSDOF 5
ENDMDL
MODEL 7
REMARK VINA RESULT:    -6.478      4.093      7.897
REMARK INTER + INTRA:          -8.957
REMARK INTER:                  -8.259
REMARK INTRA:                  -0.697
REMARK UNBOUND:                -0.586
REMARK  Name = 
REMARK  8 active torsions:
REMARK  status: ('A' for Active; 'I' for Inactive)
REMARK    1  A    between atoms: C_1  and  C_2
REMARK    2  A    between atoms: C_2  and  C_3
REMARK    3  A    between atoms: C_2  and  C_4
REMARK    4  A    between atoms: C_2  and  C_5
REMARK    5  A    between atoms: N_7  and  C_8
REMARK    6  A    between atoms: C_8  and  C_9
REMARK    7  A    between atoms: C_12  and  C_13
REMARK    8  A    between atoms: C_22  and  C_23
REMARK                            x       y       z     vdW  Elec       q    Type
REMARK                         _______ _______ _______ _____ _____    ______ ____
ROOT
ATOM      1  C   UNL     1      44.914   5.327  12.046  0.00  0.00    +0.000 A 
ATOM      2  C   UNL     1      46.037   4.713  12.580  0.00  0.00    +0.000 A 
ATOM      3  N   UNL     1      46.948   5.673  12.951  0.00  0.00    +0.000 N 
ATOM      4  C   UNL     1      46.444   6.919  12.666  0.00  0.00    +0.000 A 
ATOM      5  N   UNL     1      47.070   8.092  12.898  0.00  0.00    +0.000 NA
ATOM      6  C   UNL     1      46.327   9.175  12.538  0.00  0.00    +0.000 A 
ATOM      7  C   UNL     1      45.045   9.148  11.994  0.00  0.00    +0.000 A 
ATOM      8  C   UNL     1      44.455   7.904  11.772  0.00  0.00    +0.000 A 
ATOM      9  C   UNL     1      45.176   6.741  12.115  0.00  0.00    +0.000 A 
ENDROOT
BRANCH   7  10
ATOM     10  C   UNL     1      44.371  10.434  11.684  0.00  0.00    +0.000 C 
ATOM     11  N   UNL     1      43.055  10.591  12.028  0.00  0.00    +0.000 N 
ATOM     12  O   UNL     1      44.976  11.349  11.137  0.00  0.00    +0.000 OA
ATOM     13  H   UNL     1      42.486   9.910  12.498  0.00  0.00    +0.000 HD
ATOM     14  H   UNL     1      42.631  11.486  11.816  0.00  0.00    +0.000 HD
ENDBRANCH   7  10
BRANCH   1  16
ATOM     15  C   UNL     1      43.486   3.221  12.092  0.00  0.00    +0.000 C 
ATOM     16  C   UNL     1      43.658   4.642  11.509  0.00  0.00    +0.000 C 
ATOM     17  C   UNL     1      43.742   4.501   9.975  0.00  0.00    +0.000 C 
ATOM     18  C   UNL     1      42.395   5.444  11.887  0.00  0.00    +0.000 C 
ENDBRANCH   1  16
BRANCH   3  19
ATOM     19  C   UNL     1      48.169   5.397  13.696  0.00  0.00    +0.000 C 
BRANCH  19  20
ATOM     20  C   UNL     1      47.977   5.359  15.186  0.00  0.00    +0.000 A 
ATOM     21  C   UNL     1      47.232   4.355  15.813  0.00  0.00    +0.000 A 
ATOM     22  C   UNL     1      47.205   4.283  17.204  0.00  0.00    +0.000 A 
ATOM     23  C   UNL     1      47.925   5.221  17.930  0.00  0.00    +0.000 A 
ATOM     24  N   UNL     1      48.635   6.232  17.364  0.00  0.00    +0.000 NA
ATOM     25  C   UNL     1      48.637   6.267  16.013  0.00  0.00    +0.000 A 
ATOM     26  F   UNL     1      49.364   7.243  15.447  0.00  0.00    +0.000 F 
BRANCH  23  27
ATOM     27  C   UNL     1      47.979   5.108  19.423  0.00  0.00    +0.000 C 
ATOM     28  N   UNL     1      48.622   4.006  19.919  0.00  0.00    +0.000 N 
ATOM     29  O   UNL     1      47.468   5.939  20.165  0.00  0.00    +0.000 OA
ATOM     30  H   UNL     1      49.016   3.316  19.292  0.00  0.00    +0.000 HD
ATOM     31  H   UNL     1      48.656   3.866  20.920  0.00  0.00    +0.000 HD
ENDBRANCH  23  27
ENDBRANCH  19  20
ENDBRANCH   3  19
TORSDOF 5
ENDMDL
MODEL 8
REMARK VINA RESULT:    -6.100      4.321      6.413
REMARK INTER + INTRA:          -8.468
REMARK INTER:                  -7.727
REMARK INTRA:                  -0.742
REMARK UNBOUND:                -0.586
REMARK  Name = 
REMARK  8 active torsions:
REMARK  status: ('A' for Active; 'I' for Inactive)
REMARK    1  A    between atoms: C_1  and  C_2
REMARK    2  A    between atoms: C_2  and  C_3
REMARK    3  A    between atoms: C_2  and  C_4
REMARK    4  A    between atoms: C_2  and  C_5
REMARK    5  A    between atoms: N_7  and  C_8
REMARK    6  A    between atoms: C_8  and  C_9
REMARK    7  A    between atoms: C_12  and  C_13
REMARK    8  A    between atoms: C_22  and  C_23
REMARK                            x       y       z     vdW  Elec       q    Type
REMARK                         _______ _______ _______ _____ _____    ______ ____
ROOT
ATOM      1  C   UNL     1      45.978   5.661  12.588  0.00  0.00    +0.000 A 
ATOM      2  C   UNL     1      46.429   6.892  12.136  0.00  0.00    +0.000 A 
ATOM      3  N   UNL     1      47.351   7.393  13.022  0.00  0.00    +0.000 N 
ATOM      4  C   UNL     1      47.518   6.510  14.061  0.00  0.00    +0.000 A 
ATOM      5  N   UNL     1      48.347   6.678  15.112  0.00  0.00    +0.000 NA
ATOM      6  C   UNL     1      48.328   5.632  15.982  0.00  0.00    +0.000 A 
ATOM      7  C   UNL     1      47.565   4.473  15.858  0.00  0.00    +0.000 A 
ATOM      8  C   UNL     1      46.721   4.361  14.752  0.00  0.00    +0.000 A 
ATOM      9  C   UNL     1      46.688   5.416  13.816  0.00  0.00    +0.000 A 
ENDROOT
BRANCH   7  10
ATOM     10  C   UNL     1      47.689   3.417  16.894  0.00  0.00    +0.000 C 
ATOM     11  N   UNL     1      48.938   3.003  17.271  0.00  0.00    +0.000 N 
ATOM     12  O   UNL     1      46.696   2.923  17.416  0.00  0.00    +0.000 OA
ATOM     13  H   UNL     1      49.807   3.364  16.918  0.00  0.00    +0.000 HD
ATOM     14  H   UNL     1      48.986   2.292  17.991  0.00  0.00    +0.000 HD
ENDBRANCH   7  10
BRANCH   1  16
ATOM     15  C   UNL     1      45.309   3.259  12.077  0.00  0.00    +0.000 C 
ATOM     16  C   UNL     1      44.950   4.752  11.914  0.00  0.00    +0.000 C 
ATOM     17  C   UNL     1      44.890   5.047  10.401  0.00  0.00    +0.000 C 
ATOM     18  C   UNL     1      43.552   4.954  12.538  0.00  0.00    +0.000 C 
ENDBRANCH   1  16
BRANCH   3  19
ATOM     19  C   UNL     1      48.151   8.587  12.783  0.00  0.00    +0.000 C 
BRANCH  19  20
ATOM     20  C   UNL     1      49.575   8.298  12.398  0.00  0.00    +0.000 A 
ATOM     21  C   UNL     1      49.910   7.732  11.164  0.00  0.00    +0.000 A 
ATOM     22  C   UNL     1      51.250   7.618  10.798  0.00  0.00    +0.000 A 
ATOM     23  C   UNL     1      52.218   8.075  11.682  0.00  0.00    +0.000 A 
ATOM     24  N   UNL     1      51.940   8.601  12.903  0.00  0.00    +0.000 NA
ATOM     25  C   UNL     1      50.630   8.694  13.220  0.00  0.00    +0.000 A 
ATOM     26  F   UNL     1      50.346   9.244  14.411  0.00  0.00    +0.000 F 
BRANCH  23  27
ATOM     27  C   UNL     1      53.659   8.041  11.271  0.00  0.00    +0.000 C 
ATOM     28  N   UNL     1      54.297   6.837  11.412  0.00  0.00    +0.000 N 
ATOM     29  O   UNL     1      54.246   9.029  10.846  0.00  0.00    +0.000 OA
ATOM     30  H   UNL     1      53.804   6.037  11.789  0.00  0.00    +0.000 HD
ATOM     31  H   UNL     1      55.278   6.771  11.181  0.00  0.00    +0.000 HD
ENDBRANCH  23  27
ENDBRANCH  19  20
ENDBRANCH   3  19
TORSDOF 5
ENDMDL
MODEL 9
REMARK VINA RESULT:    -6.062      4.283      8.516
REMARK INTER + INTRA:          -8.419
REMARK INTER:                  -7.453
REMARK INTRA:                  -0.966
REMARK UNBOUND:                -0.586
REMARK  Name = 
REMARK  8 active torsions:
REMARK  status: ('A' for Active; 'I' for Inactive)
REMARK    1  A    between atoms: C_1  and  C_2
REMARK    2  A    between atoms: C_2  and  C_3
REMARK    3  A    between atoms: C_2  and  C_4
REMARK    4  A    between atoms: C_2  and  C_5
REMARK    5  A    between atoms: N_7  and  C_8
REMARK    6  A    between atoms: C_8  and  C_9
REMARK    7  A    between atoms: C_12  and  C_13
REMARK    8  A    between atoms: C_22  and  C_23
REMARK                            x       y       z     vdW  Elec       q    Type
REMARK                         _______ _______ _______ _____ _____    ______ ____
ROOT
ATOM      1  C   UNL     1      46.091   5.739  12.593  0.00  0.00    +0.000 A 
ATOM      2  C   UNL     1      47.311   5.587  13.234  0.00  0.00    +0.000 A 
ATOM      3  N   UNL     1      47.903   6.818  13.384  0.00  0.00    +0.000 N 
ATOM      4  C   UNL     1      47.090   7.787  12.849  0.00  0.00    +0.000 A 
ATOM      5  N   UNL     1      47.355   9.110  12.822  0.00  0.00    +0.000 NA
ATOM      6  C   UNL     1      46.362   9.844  12.250  0.00  0.00    +0.000 A 
ATOM      7  C   UNL     1      45.166   9.348  11.736  0.00  0.00    +0.000 A 
ATOM      8  C   UNL     1      44.953   7.970  11.787  0.00  0.00    +0.000 A 
ATOM      9  C   UNL     1      45.949   7.152  12.360  0.00  0.00    +0.000 A 
ENDROOT
BRANCH   7  10
ATOM     10  C   UNL     1      44.179  10.301  11.170  0.00  0.00    +0.000 C 
ATOM     11  N   UNL     1      43.147  10.733  11.958  0.00  0.00    +0.000 N 
ATOM     12  O   UNL     1      44.282  10.708  10.017  0.00  0.00    +0.000 OA
ATOM     13  H   UNL     1      42.993  10.475  12.917  0.00  0.00    +0.000 HD
ATOM     14  H   UNL     1      42.501  11.395  11.544  0.00  0.00    +0.000 HD
ENDBRANCH   7  10
BRANCH   1  16
ATOM     15  C   UNL     1      43.736   4.830  12.921  0.00  0.00    +0.000 C 
ATOM     16  C   UNL     1      45.101   4.633  12.225  0.00  0.00    +0.000 C 
ATOM     17  C   UNL     1      45.648   3.260  12.665  0.00  0.00    +0.000 C 
ATOM     18  C   UNL     1      44.837   4.623  10.704  0.00  0.00    +0.000 C 
ENDBRANCH   1  16
BRANCH   3  19
ATOM     19  C   UNL     1      49.114   7.054  14.159  0.00  0.00    +0.000 C 
BRANCH  19  20
ATOM     20  C   UNL     1      48.857   7.403  15.598  0.00  0.00    +0.000 A 
ATOM     21  C   UNL     1      48.642   8.719  16.016  0.00  0.00    +0.000 A 
ATOM     22  C   UNL     1      48.265   8.972  17.333  0.00  0.00    +0.000 A 
ATOM     23  C   UNL     1      48.117   7.896  18.198  0.00  0.00    +0.000 A 
ATOM     24  N   UNL     1      48.347   6.605  17.843  0.00  0.00    +0.000 NA
ATOM     25  C   UNL     1      48.710   6.401  16.558  0.00  0.00    +0.000 A 
ATOM     26  F   UNL     1      48.907   5.125  16.193  0.00  0.00    +0.000 F 
BRANCH  23  27
ATOM     27  C   UNL     1      47.629   8.139  19.593  0.00  0.00    +0.000 C 
ATOM     28  N   UNL     1      47.144   9.394  19.850  0.00  0.00    +0.000 N 
ATOM     29  O   UNL     1      47.670   7.279  20.465  0.00  0.00    +0.000 OA
ATOM     30  H   UNL     1      47.141  10.101  19.125  0.00  0.00    +0.000 HD
ATOM     31  H   UNL     1      46.834   9.620  20.786  0.00  0.00    +0.000 HD
ENDBRANCH  23  27
ENDBRANCH  19  20
ENDBRANCH   3  19
TORSDOF 5
ENDMDL
