MODEL 1
REMARK VINA RESULT:    -7.608      0.000      0.000
REMARK INTER + INTRA:         -11.523
REMARK INTER:                 -10.277
REMARK INTRA:                  -1.246
REMARK UNBOUND:                -1.246
REMARK  Name = 
REMARK  8 active torsions:
REMARK  status: ('A' for Active; 'I' for Inactive)
REMARK    1  A    between atoms: C_1  and  C_2
REMARK    2  A    between atoms: C_5  and  C_6
REMARK    3  A    between atoms: C_6  and  O_7
REMARK    4  A    between atoms: O_7  and  C_8
REMARK    5  A    between atoms: C_11  and  C_12
REMARK    6  A    between atoms: C_12  and  N_13
REMARK    7  A    between atoms: C_14  and  C_16
REMARK    8  A    between atoms: C_28  and  C_29
REMARK                            x       y       z     vdW  Elec       q    Type
REMARK                         _______ _______ _______ _____ _____    ______ ____
ROOT
ATOM      1  C   UNL     1      45.002   3.862  12.540  0.00  0.00    +0.000 A 
ATOM      2  C   UNL     1      44.812   5.232  12.605  0.00  0.00    +0.000 A 
ATOM      3  C   UNL     1      45.805   6.012  13.201  0.00  0.00    +0.000 A 
ATOM      4  C   UNL     1      46.933   5.386  13.745  0.00  0.00    +0.000 A 
ATOM      5  C   UNL     1      46.996   3.999  13.652  0.00  0.00    +0.000 A 
ATOM      6  N   UNL     1      46.058   3.222  13.071  0.00  0.00    +0.000 NA
ENDROOT
BRANCH   1   7
ATOM      7  O   UNL     1      44.039   3.116  11.902  0.00  0.00    +0.000 OA
BRANCH   7   8
ATOM      8  C   UNL     1      43.734   3.637  10.598  0.00  0.00    +0.000 C 
BRANCH   8  13
ATOM      9  C   UNL     1      47.532   1.713   6.697  0.00  0.00    +0.000 C 
ATOM     10  C   UNL     1      46.521   2.177   7.700  0.00  0.00    +0.000 A 
ATOM     11  C   UNL     1      45.648   1.280   8.291  0.00  0.00    +0.000 A 
ATOM     12  C   UNL     1      44.750   1.756   9.237  0.00  0.00    +0.000 A 
ATOM     13  C   UNL     1      44.720   3.116   9.574  0.00  0.00    +0.000 A 
ATOM     14  C   UNL     1      45.623   3.959   8.913  0.00  0.00    +0.000 A 
ATOM     15  C   UNL     1      45.685   5.444   9.130  0.00  0.00    +0.000 C 
ATOM     16  N   UNL     1      46.515   3.497   7.995  0.00  0.00    +0.000 NA
ENDBRANCH   8  13
ENDBRANCH   7   8
ENDBRANCH   1   7
BRANCH   4  17
ATOM     17  C   UNL     1      48.060   6.141  14.388  0.00  0.00    +0.000 C 
BRANCH  17  18
ATOM     18  N   UNL     1      47.947   6.248  15.824  0.00  0.00    +0.000 N 
ATOM     19  C   UNL     1      48.951   5.873  16.686  0.00  0.00    +0.000 C 
ATOM     20  O   UNL     1      50.051   5.482  16.316  0.00  0.00    +0.000 OA
ATOM     21  H   UNL     1      47.000   6.181  16.184  0.00  0.00    +0.000 HD
BRANCH  19  22
ATOM     22  C   UNL     1      48.650   6.018  18.115  0.00  0.00    +0.000 A 
ATOM     23  C   UNL     1      48.789   4.931  18.967  0.00  0.00    +0.000 A 
ATOM     24  S   UNL     1      48.384   5.283  20.586  0.00  0.00    +0.000 S 
ATOM     25  C   UNL     1      47.981   6.890  20.193  0.00  0.00    +0.000 A 
ATOM     26  N   UNL     1      47.520   7.750  21.139  0.00  0.00    +0.000 NA
ATOM     27  C   UNL     1      47.243   8.931  20.694  0.00  0.00    +0.000 A 
ATOM     28  N   UNL     1      47.392   9.334  19.393  0.00  0.00    +0.000 N 
ATOM     29  C   UNL     1      47.883   8.507  18.414  0.00  0.00    +0.000 A 
ATOM     30  O   UNL     1      48.069   8.913  17.267  0.00  0.00    +0.000 OA
ATOM     31  C   UNL     1      48.184   7.163  18.853  0.00  0.00    +0.000 A 
ATOM     32  H   UNL     1      47.174  10.280  19.119  0.00  0.00    +0.000 HD
ENDBRANCH  19  22
ENDBRANCH  17  18
ENDBRANCH   4  17
TORSDOF 6
ENDMDL
MODEL 2
REMARK VINA RESULT:    -7.547      3.798      8.904
REMARK INTER + INTRA:         -11.440
REMARK INTER:                 -10.354
REMARK INTRA:                  -1.086
REMARK UNBOUND:                -1.246
REMARK  Name = 
REMARK  8 active torsions:
REMARK  status: ('A' for Active; 'I' for Inactive)
REMARK    1  A    between atoms: C_1  and  C_2
REMARK    2  A    between atoms: C_5  and  C_6
REMARK    3  A    between atoms: C_6  and  O_7
REMARK    4  A    between atoms: O_7  and  C_8
REMARK    5  A    between atoms: C_11  and  C_12
REMARK    6  A    between atoms: C_12  and  N_13
REMARK    7  A    between atoms: C_14  and  C_16
REMARK    8  A    between atoms: C_28  and  C_29
REMARK                            x       y       z     vdW  Elec       q    Type
REMARK                         _______ _______ _______ _____ _____    ______ ____
ROOT
ATOM      1  C   UNL     1      49.892   6.392  16.275  0.00  0.00    +0.000 A 
ATOM      2  C   UNL     1      50.656   7.293  15.552  0.00  0.00    +0.000 A 
ATOM      3  C   UNL     1      50.155   7.763  14.336  0.00  0.00    +0.000 A 
ATOM      4  C   UNL     1      48.925   7.282  13.872  0.00  0.00    +0.000 A 
ATOM      5  C   UNL     1      48.265   6.350  14.667  0.00  0.00    +0.000 A 
ATOM      6  N   UNL     1      48.719   5.889  15.851  0.00  0.00    +0.000 NA
ENDROOT
BRANCH   1   7
ATOM      7  O   UNL     1      50.376   5.981  17.494  0.00  0.00    +0.000 OA
BRANCH   7   8
ATOM      8  C   UNL     1      49.754   4.764  17.936  0.00  0.00    +0.000 C 
BRANCH   8  13
ATOM      9  C   UNL     1      53.406   0.313  17.501  0.00  0.00    +0.000 C 
ATOM     10  C   UNL     1      52.482   1.482  17.650  0.00  0.00    +0.000 A 
ATOM     11  C   UNL     1      52.897   2.635  18.293  0.00  0.00    +0.000 A 
ATOM     12  C   UNL     1      52.011   3.701  18.378  0.00  0.00    +0.000 A 
ATOM     13  C   UNL     1      50.723   3.605  17.835  0.00  0.00    +0.000 A 
ATOM     14  C   UNL     1      50.375   2.395  17.220  0.00  0.00    +0.000 A 
ATOM     15  C   UNL     1      49.022   2.120  16.632  0.00  0.00    +0.000 C 
ATOM     16  N   UNL     1      51.243   1.351  17.122  0.00  0.00    +0.000 NA
ENDBRANCH   8  13
ENDBRANCH   7   8
ENDBRANCH   1   7
BRANCH   4  17
ATOM     17  C   UNL     1      48.298   7.742  12.588  0.00  0.00    +0.000 C 
BRANCH  17  18
ATOM     18  N   UNL     1      47.556   6.712  11.898  0.00  0.00    +0.000 N 
ATOM     19  C   UNL     1      46.248   6.866  11.500  0.00  0.00    +0.000 C 
ATOM     20  O   UNL     1      45.619   7.909  11.631  0.00  0.00    +0.000 OA
ATOM     21  H   UNL     1      47.851   5.762  12.104  0.00  0.00    +0.000 HD
BRANCH  19  22
ATOM     22  C   UNL     1      45.641   5.704  10.844  0.00  0.00    +0.000 A 
ATOM     23  C   UNL     1      45.767   5.538   9.471  0.00  0.00    +0.000 A 
ATOM     24  S   UNL     1      44.989   4.139   8.883  0.00  0.00    +0.000 S 
ATOM     25  C   UNL     1      44.432   3.728  10.439  0.00  0.00    +0.000 A 
ATOM     26  N   UNL     1      43.660   2.629  10.641  0.00  0.00    +0.000 NA
ATOM     27  C   UNL     1      43.302   2.450  11.870  0.00  0.00    +0.000 A 
ATOM     28  N   UNL     1      43.651   3.263  12.916  0.00  0.00    +0.000 N 
ATOM     29  C   UNL     1      44.455   4.364  12.760  0.00  0.00    +0.000 A 
ATOM     30  O   UNL     1      44.809   5.041  13.725  0.00  0.00    +0.000 OA
ATOM     31  C   UNL     1      44.863   4.627  11.397  0.00  0.00    +0.000 A 
ATOM     32  H   UNL     1      43.352   3.051  13.855  0.00  0.00    +0.000 HD
ENDBRANCH  19  22
ENDBRANCH  17  18
ENDBRANCH   4  17
TORSDOF 6
ENDMDL
MODEL 3
REMARK VINA RESULT:    -7.483      3.584      4.992
REMARK INTER + INTRA:         -11.353
REMARK INTER:                 -10.067
REMARK INTRA:                  -1.286
REMARK UNBOUND:                -1.246
REMARK  Name = 
REMARK  8 active torsions:
REMARK  status: ('A' for Active; 'I' for Inactive)
REMARK    1  A    between atoms: C_1  and  C_2
REMARK    2  A    between atoms: C_5  and  C_6
REMARK    3  A    between atoms: C_6  and  O_7
REMARK    4  A    between atoms: O_7  and  C_8
REMARK    5  A    between atoms: C_11  and  C_12
REMARK    6  A    between atoms: C_12  and  N_13
REMARK    7  A    between atoms: C_14  and  C_16
REMARK    8  A    between atoms: C_28  and  C_29
REMARK                            x       y       z     vdW  Elec       q    Type
REMARK                         _______ _______ _______ _____ _____    ______ ____
ROOT
ATOM      1  C   UNL     1      46.783   4.379  14.710  0.00  0.00    +0.000 A 
ATOM      2  C   UNL     1      47.461   5.512  14.293  0.00  0.00    +0.000 A 
ATOM      3  C   UNL     1      48.306   6.152  15.201  0.00  0.00    +0.000 A 
ATOM      4  C   UNL     1      48.409   5.655  16.506  0.00  0.00    +0.000 A 
ATOM      5  C   UNL     1      47.651   4.532  16.821  0.00  0.00    +0.000 A 
ATOM      6  N   UNL     1      46.837   3.887  15.960  0.00  0.00    +0.000 NA
ENDROOT
BRANCH   1   7
ATOM      7  O   UNL     1      45.997   3.731  13.787  0.00  0.00    +0.000 OA
BRANCH   7   8
ATOM      8  C   UNL     1      45.134   4.641  13.085  0.00  0.00    +0.000 C 
BRANCH   8  13
ATOM      9  C   UNL     1      45.159   3.518   7.421  0.00  0.00    +0.000 C 
ATOM     10  C   UNL     1      45.119   3.780   8.895  0.00  0.00    +0.000 A 
ATOM     11  C   UNL     1      44.626   2.827   9.769  0.00  0.00    +0.000 A 
ATOM     12  C   UNL     1      44.639   3.107  11.129  0.00  0.00    +0.000 A 
ATOM     13  C   UNL     1      45.129   4.332  11.603  0.00  0.00    +0.000 A 
ATOM     14  C   UNL     1      45.590   5.249  10.649  0.00  0.00    +0.000 A 
ATOM     15  C   UNL     1      46.103   6.618  10.992  0.00  0.00    +0.000 C 
ATOM     16  N   UNL     1      45.593   4.975   9.316  0.00  0.00    +0.000 NA
ENDBRANCH   8  13
ENDBRANCH   7   8
ENDBRANCH   1   7
BRANCH   4  17
ATOM     17  C   UNL     1      49.305   6.264  17.546  0.00  0.00    +0.000 C 
BRANCH  17  18
ATOM     18  N   UNL     1      50.363   5.386  17.991  0.00  0.00    +0.000 N 
ATOM     19  C   UNL     1      51.583   5.301  17.362  0.00  0.00    +0.000 C 
ATOM     20  O   UNL     1      51.908   6.007  16.415  0.00  0.00    +0.000 OA
ATOM     21  H   UNL     1      50.049   4.549  18.473  0.00  0.00    +0.000 HD
BRANCH  19  22
ATOM     22  C   UNL     1      52.526   4.331  17.930  0.00  0.00    +0.000 A 
ATOM     23  C   UNL     1      53.671   4.774  18.578  0.00  0.00    +0.000 A 
ATOM     24  S   UNL     1      54.652   3.508  19.162  0.00  0.00    +0.000 S 
ATOM     25  C   UNL     1      53.594   2.327  18.541  0.00  0.00    +0.000 A 
ATOM     26  N   UNL     1      53.865   1.003  18.671  0.00  0.00    +0.000 NA
ATOM     27  C   UNL     1      52.979   0.224  18.140  0.00  0.00    +0.000 A 
ATOM     28  N   UNL     1      51.846   0.648  17.499  0.00  0.00    +0.000 N 
ATOM     29  C   UNL     1      51.519   1.975  17.373  0.00  0.00    +0.000 A 
ATOM     30  O   UNL     1      50.462   2.328  16.850  0.00  0.00    +0.000 OA
ATOM     31  C   UNL     1      52.491   2.892  17.927  0.00  0.00    +0.000 A 
ATOM     32  H   UNL     1      51.186  -0.017  17.125  0.00  0.00    +0.000 HD
ENDBRANCH  19  22
ENDBRANCH  17  18
ENDBRANCH   4  17
TORSDOF 6
ENDMDL
MODEL 4
REMARK VINA RESULT:    -7.459      1.514      2.114
REMARK INTER + INTRA:         -11.321
REMARK INTER:                 -10.268
REMARK INTRA:                  -1.053
REMARK UNBOUND:                -1.246
REMARK  Name = 
REMARK  8 active torsions:
REMARK  status: ('A' for Active; 'I' for Inactive)
REMARK    1  A    between atoms: C_1  and  C_2
REMARK    2  A    between atoms: C_5  and  C_6
REMARK    3  A    between atoms: C_6  and  O_7
REMARK    4  A    between atoms: O_7  and  C_8
REMARK    5  A    between atoms: C_11  and  C_12
REMARK    6  A    between atoms: C_12  and  N_13
REMARK    7  A    between atoms: C_14  and  C_16
REMARK    8  A    between atoms: C_28  and  C_29
REMARK                            x       y       z     vdW  Elec       q    Type
REMARK                         _______ _______ _______ _____ _____    ______ ____
ROOT
ATOM      1  C   UNL     1      44.923   3.907  12.732  0.00  0.00    +0.000 A 
ATOM      2  C   UNL     1      44.714   5.272  12.827  0.00  0.00    +0.000 A 
ATOM      3  C   UNL     1      45.770   6.077  13.259  0.00  0.00    +0.000 A 
ATOM      4  C   UNL     1      46.984   5.478  13.618  0.00  0.00    +0.000 A 
ATOM      5  C   UNL     1      47.063   4.093  13.517  0.00  0.00    +0.000 A 
ATOM      6  N   UNL     1      46.065   3.293  13.090  0.00  0.00    +0.000 NA
ENDROOT
BRANCH   1   7
ATOM      7  O   UNL     1      43.890   3.137  12.254  0.00  0.00    +0.000 OA
BRANCH   7   8
ATOM      8  C   UNL     1      43.452   3.572  10.957  0.00  0.00    +0.000 C 
BRANCH   8  13
ATOM      9  C   UNL     1      47.183   1.887   6.884  0.00  0.00    +0.000 C 
ATOM     10  C   UNL     1      46.190   2.288   7.931  0.00  0.00    +0.000 A 
ATOM     11  C   UNL     1      45.364   1.346   8.521  0.00  0.00    +0.000 A 
ATOM     12  C   UNL     1      44.482   1.766   9.508  0.00  0.00    +0.000 A 
ATOM     13  C   UNL     1      44.421   3.113   9.887  0.00  0.00    +0.000 A 
ATOM     14  C   UNL     1      45.275   4.004   9.225  0.00  0.00    +0.000 A 
ATOM     15  C   UNL     1      45.299   5.483   9.485  0.00  0.00    +0.000 C 
ATOM     16  N   UNL     1      46.152   3.598   8.267  0.00  0.00    +0.000 NA
ENDBRANCH   8  13
ENDBRANCH   7   8
ENDBRANCH   1   7
BRANCH   4  17
ATOM     17  C   UNL     1      48.180   6.261  14.075  0.00  0.00    +0.000 C 
BRANCH  17  18
ATOM     18  N   UNL     1      48.228   6.473  15.503  0.00  0.00    +0.000 N 
ATOM     19  C   UNL     1      49.405   6.615  16.203  0.00  0.00    +0.000 C 
ATOM     20  O   UNL     1      50.509   6.644  15.673  0.00  0.00    +0.000 OA
ATOM     21  H   UNL     1      47.446   6.083  16.020  0.00  0.00    +0.000 HD
BRANCH  19  22
ATOM     22  C   UNL     1      49.266   6.788  17.653  0.00  0.00    +0.000 A 
ATOM     23  C   UNL     1      49.445   8.042  18.222  0.00  0.00    +0.000 A 
ATOM     24  S   UNL     1      49.257   8.050  19.917  0.00  0.00    +0.000 S 
ATOM     25  C   UNL     1      48.962   6.372  19.947  0.00  0.00    +0.000 A 
ATOM     26  N   UNL     1      48.748   5.718  21.118  0.00  0.00    +0.000 NA
ATOM     27  C   UNL     1      48.550   4.447  20.988  0.00  0.00    +0.000 A 
ATOM     28  N   UNL     1      48.540   3.772  19.796  0.00  0.00    +0.000 N 
ATOM     29  C   UNL     1      48.721   4.400  18.589  0.00  0.00    +0.000 A 
ATOM     30  O   UNL     1      48.642   3.783  17.527  0.00  0.00    +0.000 OA
ATOM     31  C   UNL     1      48.973   5.822  18.679  0.00  0.00    +0.000 A 
ATOM     32  H   UNL     1      48.359   2.781  19.766  0.00  0.00    +0.000 HD
ENDBRANCH  19  22
ENDBRANCH  17  18
ENDBRANCH   4  17
TORSDOF 6
ENDMDL
MODEL 5
REMARK VINA RESULT:    -7.421      1.551      2.093
REMARK INTER + INTRA:         -11.269
REMARK INTER:                 -10.167
REMARK INTRA:                  -1.102
REMARK UNBOUND:                -1.246
REMARK  Name = 
REMARK  8 active torsions:
REMARK  status: ('A' for Active; 'I' for Inactive)
REMARK    1  A    between atoms: C_1  and  C_2
REMARK    2  A    between atoms: C_5  and  C_6
REMARK    3  A    between atoms: C_6  and  O_7
REMARK    4  A    between atoms: O_7  and  C_8
REMARK    5  A    between atoms: C_11  and  C_12
REMARK    6  A    between atoms: C_12  and  N_13
REMARK    7  A    between atoms: C_14  and  C_16
REMARK    8  A    between atoms: C_28  and  C_29
REMARK                            x       y       z     vdW  Elec       q    Type
REMARK                         _______ _______ _______ _____ _____    ______ ____
ROOT
ATOM      1  C   UNL     1      45.651   5.746  11.714  0.00  0.00    +0.000 A 
ATOM      2  C   UNL     1      46.893   6.271  12.025  0.00  0.00    +0.000 A 
ATOM      3  C   UNL     1      47.513   5.855  13.205  0.00  0.00    +0.000 A 
ATOM      4  C   UNL     1      46.846   4.958  14.048  0.00  0.00    +0.000 A 
ATOM      5  C   UNL     1      45.585   4.528  13.648  0.00  0.00    +0.000 A 
ATOM      6  N   UNL     1      44.969   4.903  12.509  0.00  0.00    +0.000 NA
ENDROOT
BRANCH   1   7
ATOM      7  O   UNL     1      45.080   6.126  10.523  0.00  0.00    +0.000 OA
BRANCH   7   8
ATOM      8  C   UNL     1      44.209   5.112   9.997  0.00  0.00    +0.000 C 
BRANCH   8  13
ATOM      9  C   UNL     1      47.180   1.162   7.012  0.00  0.00    +0.000 C 
ATOM     10  C   UNL     1      46.441   2.217   7.775  0.00  0.00    +0.000 A 
ATOM     11  C   UNL     1      46.601   3.557   7.467  0.00  0.00    +0.000 A 
ATOM     12  C   UNL     1      45.869   4.493   8.185  0.00  0.00    +0.000 A 
ATOM     13  C   UNL     1      44.999   4.090   9.207  0.00  0.00    +0.000 A 
ATOM     14  C   UNL     1      44.913   2.717   9.470  0.00  0.00    +0.000 A 
ATOM     15  C   UNL     1      44.061   2.130  10.559  0.00  0.00    +0.000 C 
ATOM     16  N   UNL     1      45.616   1.792   8.760  0.00  0.00    +0.000 NA
ENDBRANCH   8  13
ENDBRANCH   7   8
ENDBRANCH   1   7
BRANCH   4  17
ATOM     17  C   UNL     1      47.440   4.439  15.326  0.00  0.00    +0.000 C 
BRANCH  17  18
ATOM     18  N   UNL     1      47.521   5.428  16.375  0.00  0.00    +0.000 N 
ATOM     19  C   UNL     1      48.705   6.006  16.772  0.00  0.00    +0.000 C 
ATOM     20  O   UNL     1      49.782   5.788  16.229  0.00  0.00    +0.000 OA
ATOM     21  H   UNL     1      46.798   5.361  17.084  0.00  0.00    +0.000 HD
BRANCH  19  22
ATOM     22  C   UNL     1      48.606   6.967  17.877  0.00  0.00    +0.000 A 
ATOM     23  C   UNL     1      48.768   6.536  19.187  0.00  0.00    +0.000 A 
ATOM     24  S   UNL     1      48.608   7.786  20.336  0.00  0.00    +0.000 S 
ATOM     25  C   UNL     1      48.285   8.936  19.121  0.00  0.00    +0.000 A 
ATOM     26  N   UNL     1      48.021  10.231  19.432  0.00  0.00    +0.000 NA
ATOM     27  C   UNL     1      47.783  10.986  18.410  0.00  0.00    +0.000 A 
ATOM     28  N   UNL     1      47.793  10.566  17.106  0.00  0.00    +0.000 N 
ATOM     29  C   UNL     1      48.085   9.274  16.747  0.00  0.00    +0.000 A 
ATOM     30  O   UNL     1      48.152   8.937  15.565  0.00  0.00    +0.000 OA
ATOM     31  C   UNL     1      48.333   8.380  17.856  0.00  0.00    +0.000 A 
ATOM     32  H   UNL     1      47.617  11.215  16.355  0.00  0.00    +0.000 HD
ENDBRANCH  19  22
ENDBRANCH  17  18
ENDBRANCH   4  17
TORSDOF 6
ENDMDL
MODEL 6
REMARK VINA RESULT:    -7.417      2.707      3.938
REMARK INTER + INTRA:         -11.265
REMARK INTER:                 -10.365
REMARK INTRA:                  -0.899
REMARK UNBOUND:                -1.246
REMARK  Name = 
REMARK  8 active torsions:
REMARK  status: ('A' for Active; 'I' for Inactive)
REMARK    1  A    between atoms: C_1  and  C_2
REMARK    2  A    between atoms: C_5  and  C_6
REMARK    3  A    between atoms: C_6  and  O_7
REMARK    4  A    between atoms: O_7  and  C_8
REMARK    5  A    between atoms: C_11  and  C_12
REMARK    6  A    between atoms: C_12  and  N_13
REMARK    7  A    between atoms: C_14  and  C_16
REMARK    8  A    between atoms: C_28  and  C_29
REMARK                            x       y       z     vdW  Elec       q    Type
REMARK                         _______ _______ _______ _____ _____    ______ ____
ROOT
ATOM      1  C   UNL     1      45.855   3.759  12.873  0.00  0.00    +0.000 A 
ATOM      2  C   UNL     1      45.505   5.097  12.800  0.00  0.00    +0.000 A 
ATOM      3  C   UNL     1      46.257   6.021  13.527  0.00  0.00    +0.000 A 
ATOM      4  C   UNL     1      47.308   5.565  14.332  0.00  0.00    +0.000 A 
ATOM      5  C   UNL     1      47.543   4.194  14.354  0.00  0.00    +0.000 A 
ATOM      6  N   UNL     1      46.840   3.281  13.653  0.00  0.00    +0.000 NA
ENDROOT
BRANCH   1   7
ATOM      7  O   UNL     1      45.136   2.871  12.110  0.00  0.00    +0.000 OA
BRANCH   7   8
ATOM      8  C   UNL     1      44.392   3.533  11.074  0.00  0.00    +0.000 C 
BRANCH   8  13
ATOM      9  C   UNL     1      46.969   2.841   5.953  0.00  0.00    +0.000 C 
ATOM     10  C   UNL     1      46.276   2.983   7.273  0.00  0.00    +0.000 A 
ATOM     11  C   UNL     1      45.709   1.886   7.897  0.00  0.00    +0.000 A 
ATOM     12  C   UNL     1      45.104   2.067   9.134  0.00  0.00    +0.000 A 
ATOM     13  C   UNL     1      45.059   3.334   9.730  0.00  0.00    +0.000 A 
ATOM     14  C   UNL     1      45.638   4.395   9.022  0.00  0.00    +0.000 A 
ATOM     15  C   UNL     1      45.633   5.818   9.503  0.00  0.00    +0.000 C 
ATOM     16  N   UNL     1      46.244   4.223   7.815  0.00  0.00    +0.000 NA
ENDBRANCH   8  13
ENDBRANCH   7   8
ENDBRANCH   1   7
BRANCH   4  17
ATOM     17  C   UNL     1      48.184   6.484  15.134  0.00  0.00    +0.000 C 
BRANCH  17  18
ATOM     18  N   UNL     1      49.294   5.818  15.777  0.00  0.00    +0.000 N 
ATOM     19  C   UNL     1      49.244   5.357  17.072  0.00  0.00    +0.000 C 
ATOM     20  O   UNL     1      48.239   5.405  17.771  0.00  0.00    +0.000 OA
ATOM     21  H   UNL     1      50.211   6.086  15.433  0.00  0.00    +0.000 HD
BRANCH  19  22
ATOM     22  C   UNL     1      50.475   4.736  17.574  0.00  0.00    +0.000 A 
ATOM     23  C   UNL     1      51.444   5.517  18.191  0.00  0.00    +0.000 A 
ATOM     24  S   UNL     1      52.808   4.629  18.698  0.00  0.00    +0.000 S 
ATOM     25  C   UNL     1      52.162   3.179  18.082  0.00  0.00    +0.000 A 
ATOM     26  N   UNL     1      52.853   2.012  18.161  0.00  0.00    +0.000 NA
ATOM     27  C   UNL     1      52.244   0.997  17.641  0.00  0.00    +0.000 A 
ATOM     28  N   UNL     1      51.006   1.040  17.056  0.00  0.00    +0.000 N 
ATOM     29  C   UNL     1      50.262   2.191  16.983  0.00  0.00    +0.000 A 
ATOM     30  O   UNL     1      49.125   2.190  16.512  0.00  0.00    +0.000 OA
ATOM     31  C   UNL     1      50.909   3.365  17.528  0.00  0.00    +0.000 A 
ATOM     32  H   UNL     1      50.581   0.203  16.687  0.00  0.00    +0.000 HD
ENDBRANCH  19  22
ENDBRANCH  17  18
ENDBRANCH   4  17
TORSDOF 6
ENDMDL
MODEL 7
REMARK VINA RESULT:    -7.351      3.276      9.104
REMARK INTER + INTRA:         -11.175
REMARK INTER:                  -9.883
REMARK INTRA:                  -1.292
REMARK UNBOUND:                -1.246
REMARK  Name = 
REMARK  8 active torsions:
REMARK  status: ('A' for Active; 'I' for Inactive)
REMARK    1  A    between atoms: C_1  and  C_2
REMARK    2  A    between atoms: C_5  and  C_6
REMARK    3  A    between atoms: C_6  and  O_7
REMARK    4  A    between atoms: O_7  and  C_8
REMARK    5  A    between atoms: C_11  and  C_12
REMARK    6  A    between atoms: C_12  and  N_13
REMARK    7  A    between atoms: C_14  and  C_16
REMARK    8  A    between atoms: C_28  and  C_29
REMARK                            x       y       z     vdW  Elec       q    Type
REMARK                         _______ _______ _______ _____ _____    ______ ____
ROOT
ATOM      1  C   UNL     1      49.457   7.804  15.580  0.00  0.00    +0.000 A 
ATOM      2  C   UNL     1      48.349   8.625  15.462  0.00  0.00    +0.000 A 
ATOM      3  C   UNL     1      47.669   8.651  14.243  0.00  0.00    +0.000 A 
ATOM      4  C   UNL     1      48.148   7.882  13.176  0.00  0.00    +0.000 A 
ATOM      5  C   UNL     1      49.293   7.124  13.403  0.00  0.00    +0.000 A 
ATOM      6  N   UNL     1      49.962   7.071  14.573  0.00  0.00    +0.000 NA
ENDROOT
BRANCH   1   7
ATOM      7  O   UNL     1      50.083   7.751  16.804  0.00  0.00    +0.000 OA
BRANCH   7   8
ATOM      8  C   UNL     1      49.384   6.901  17.727  0.00  0.00    +0.000 C 
BRANCH   8  13
ATOM      9  C   UNL     1      51.322   1.474  17.357  0.00  0.00    +0.000 C 
ATOM     10  C   UNL     1      50.848   2.889  17.488  0.00  0.00    +0.000 A 
ATOM     11  C   UNL     1      51.661   3.858  18.048  0.00  0.00    +0.000 A 
ATOM     12  C   UNL     1      51.185   5.161  18.118  0.00  0.00    +0.000 A 
ATOM     13  C   UNL     1      49.906   5.482  17.642  0.00  0.00    +0.000 A 
ATOM     14  C   UNL     1      49.140   4.437  17.110  0.00  0.00    +0.000 A 
ATOM     15  C   UNL     1      47.738   4.609  16.601  0.00  0.00    +0.000 C 
ATOM     16  N   UNL     1      49.606   3.161  17.026  0.00  0.00    +0.000 NA
ENDBRANCH   8  13
ENDBRANCH   7   8
ENDBRANCH   1   7
BRANCH   4  17
ATOM     17  C   UNL     1      47.474   7.830  11.836  0.00  0.00    +0.000 C 
BRANCH  17  18
ATOM     18  N   UNL     1      46.736   6.610  11.601  0.00  0.00    +0.000 N 
ATOM     19  C   UNL     1      45.364   6.568  11.513  0.00  0.00    +0.000 C 
ATOM     20  O   UNL     1      44.651   7.564  11.557  0.00  0.00    +0.000 OA
ATOM     21  H   UNL     1      47.188   5.765  11.935  0.00  0.00    +0.000 HD
BRANCH  19  22
ATOM     22  C   UNL     1      44.780   5.239  11.306  0.00  0.00    +0.000 A 
ATOM     23  C   UNL     1      43.996   4.663  12.297  0.00  0.00    +0.000 A 
ATOM     24  S   UNL     1      43.413   3.114  11.886  0.00  0.00    +0.000 S 
ATOM     25  C   UNL     1      44.216   3.150  10.385  0.00  0.00    +0.000 A 
ATOM     26  N   UNL     1      44.156   2.095   9.531  0.00  0.00    +0.000 NA
ATOM     27  C   UNL     1      44.824   2.260   8.436  0.00  0.00    +0.000 A 
ATOM     28  N   UNL     1      45.538   3.383   8.113  0.00  0.00    +0.000 N 
ATOM     29  C   UNL     1      45.599   4.481   8.934  0.00  0.00    +0.000 A 
ATOM     30  O   UNL     1      46.193   5.504   8.592  0.00  0.00    +0.000 OA
ATOM     31  C   UNL     1      44.890   4.341  10.187  0.00  0.00    +0.000 A 
ATOM     32  H   UNL     1      46.020   3.451   7.231  0.00  0.00    +0.000 HD
ENDBRANCH  19  22
ENDBRANCH  17  18
ENDBRANCH   4  17
TORSDOF 6
ENDMDL
MODEL 8
REMARK VINA RESULT:    -7.063      3.867      5.201
REMARK INTER + INTRA:         -10.786
REMARK INTER:                  -9.767
REMARK INTRA:                  -1.019
REMARK UNBOUND:                -1.246
REMARK  Name = 
REMARK  8 active torsions:
REMARK  status: ('A' for Active; 'I' for Inactive)
REMARK    1  A    between atoms: C_1  and  C_2
REMARK    2  A    between atoms: C_5  and  C_6
REMARK    3  A    between atoms: C_6  and  O_7
REMARK    4  A    between atoms: O_7  and  C_8
REMARK    5  A    between atoms: C_11  and  C_12
REMARK    6  A    between atoms: C_12  and  N_13
REMARK    7  A    between atoms: C_14  and  C_16
REMARK    8  A    between atoms: C_28  and  C_29
REMARK                            x       y       z     vdW  Elec       q    Type
REMARK                         _______ _______ _______ _____ _____    ______ ____
ROOT
ATOM      1  C   UNL     1      47.369   5.460  14.432  0.00  0.00    +0.000 A 
ATOM      2  C   UNL     1      48.134   6.085  15.402  0.00  0.00    +0.000 A 
ATOM      3  C   UNL     1      48.472   5.363  16.549  0.00  0.00    +0.000 A 
ATOM      4  C   UNL     1      47.997   4.055  16.697  0.00  0.00    +0.000 A 
ATOM      5  C   UNL     1      47.206   3.545  15.673  0.00  0.00    +0.000 A 
ATOM      6  N   UNL     1      46.875   4.215  14.550  0.00  0.00    +0.000 NA
ENDROOT
BRANCH   1   7
ATOM      7  O   UNL     1      47.091   6.167  13.287  0.00  0.00    +0.000 OA
BRANCH   7   8
ATOM      8  C   UNL     1      45.689   6.152  12.974  0.00  0.00    +0.000 C 
BRANCH   8  13
ATOM      9  C   UNL     1      44.720   3.548   7.911  0.00  0.00    +0.000 C 
ATOM     10  C   UNL     1      45.011   4.238   9.208  0.00  0.00    +0.000 A 
ATOM     11  C   UNL     1      45.873   5.320   9.256  0.00  0.00    +0.000 A 
ATOM     12  C   UNL     1      46.086   5.943  10.479  0.00  0.00    +0.000 A 
ATOM     13  C   UNL     1      45.450   5.478  11.639  0.00  0.00    +0.000 A 
ATOM     14  C   UNL     1      44.610   4.365  11.506  0.00  0.00    +0.000 A 
ATOM     15  C   UNL     1      43.894   3.722  12.658  0.00  0.00    +0.000 C 
ATOM     16  N   UNL     1      44.387   3.758  10.308  0.00  0.00    +0.000 NA
ENDBRANCH   8  13
ENDBRANCH   7   8
ENDBRANCH   1   7
BRANCH   4  17
ATOM     17  C   UNL     1      48.323   3.195  17.884  0.00  0.00    +0.000 C 
BRANCH  17  18
ATOM     18  N   UNL     1      49.737   2.962  18.066  0.00  0.00    +0.000 N 
ATOM     19  C   UNL     1      50.481   2.167  17.225  0.00  0.00    +0.000 C 
ATOM     20  O   UNL     1      50.031   1.643  16.213  0.00  0.00    +0.000 OA
ATOM     21  H   UNL     1      50.061   3.023  19.026  0.00  0.00    +0.000 HD
BRANCH  19  22
ATOM     22  C   UNL     1      51.896   2.015  17.580  0.00  0.00    +0.000 A 
ATOM     23  C   UNL     1      52.442   0.746  17.728  0.00  0.00    +0.000 A 
ATOM     24  S   UNL     1      54.093   0.764  18.153  0.00  0.00    +0.000 S 
ATOM     25  C   UNL     1      54.124   2.466  18.182  0.00  0.00    +0.000 A 
ATOM     26  N   UNL     1      55.254   3.143  18.512  0.00  0.00    +0.000 NA
ATOM     27  C   UNL     1      55.126   4.429  18.505  0.00  0.00    +0.000 A 
ATOM     28  N   UNL     1      53.974   5.101  18.191  0.00  0.00    +0.000 N 
ATOM     29  C   UNL     1      52.819   4.456  17.822  0.00  0.00    +0.000 A 
ATOM     30  O   UNL     1      51.816   5.084  17.481  0.00  0.00    +0.000 OA
ATOM     31  C   UNL     1      52.900   3.012  17.840  0.00  0.00    +0.000 A 
ATOM     32  H   UNL     1      53.950   6.109  18.186  0.00  0.00    +0.000 HD
ENDBRANCH  19  22
ENDBRANCH  17  18
ENDBRANCH   4  17
TORSDOF 6
ENDMDL
MODEL 9
REMARK VINA RESULT:    -6.823      2.633      3.475
REMARK INTER + INTRA:         -10.463
REMARK INTER:                  -9.509
REMARK INTRA:                  -0.953
REMARK UNBOUND:                -1.246
REMARK  Name = 
REMARK  8 active torsions:
REMARK  status: ('A' for Active; 'I' for Inactive)
REMARK    1  A    between atoms: C_1  and  C_2
REMARK    2  A    between atoms: C_5  and  C_6
REMARK    3  A    between atoms: C_6  and  O_7
REMARK    4  A    between atoms: O_7  and  C_8
REMARK    5  A    between atoms: C_11  and  C_12
REMARK    6  A    between atoms: C_12  and  N_13
REMARK    7  A    between atoms: C_14  and  C_16
REMARK    8  A    between atoms: C_28  and  C_29
REMARK                            x       y       z     vdW  Elec       q    Type
REMARK                         _______ _______ _______ _____ _____    ______ ____
ROOT
ATOM      1  C   UNL     1      44.965   5.059  11.841  0.00  0.00    +0.000 A 
ATOM      2  C   UNL     1      44.625   6.386  11.638  0.00  0.00    +0.000 A 
ATOM      3  C   UNL     1      45.434   7.373  12.206  0.00  0.00    +0.000 A 
ATOM      4  C   UNL     1      46.530   6.991  12.989  0.00  0.00    +0.000 A 
ATOM      5  C   UNL     1      46.750   5.628  13.153  0.00  0.00    +0.000 A 
ATOM      6  N   UNL     1      45.994   4.654  12.606  0.00  0.00    +0.000 NA
ENDROOT
BRANCH   1   7
ATOM      7  O   UNL     1      44.188   4.103  11.231  0.00  0.00    +0.000 OA
BRANCH   7   8
ATOM      8  C   UNL     1      43.907   4.435   9.862  0.00  0.00    +0.000 C 
BRANCH   8  13
ATOM      9  C   UNL     1      47.960   2.247   6.379  0.00  0.00    +0.000 C 
ATOM     10  C   UNL     1      46.935   2.850   7.289  0.00  0.00    +0.000 A 
ATOM     11  C   UNL     1      46.887   4.218   7.492  0.00  0.00    +0.000 A 
ATOM     12  C   UNL     1      45.897   4.730   8.322  0.00  0.00    +0.000 A 
ATOM     13  C   UNL     1      44.979   3.878   8.949  0.00  0.00    +0.000 A 
ATOM     14  C   UNL     1      45.112   2.504   8.708  0.00  0.00    +0.000 A 
ATOM     15  C   UNL     1      44.236   1.460   9.339  0.00  0.00    +0.000 C 
ATOM     16  N   UNL     1      46.070   1.997   7.885  0.00  0.00    +0.000 NA
ENDBRANCH   8  13
ENDBRANCH   7   8
ENDBRANCH   1   7
BRANCH   4  17
ATOM     17  C   UNL     1      47.467   7.979  13.623  0.00  0.00    +0.000 C 
BRANCH  17  18
ATOM     18  N   UNL     1      48.592   7.368  14.293  0.00  0.00    +0.000 N 
ATOM     19  C   UNL     1      49.068   7.802  15.508  0.00  0.00    +0.000 C 
ATOM     20  O   UNL     1      48.543   8.695  16.163  0.00  0.00    +0.000 OA
ATOM     21  H   UNL     1      49.271   6.932  13.677  0.00  0.00    +0.000 HD
BRANCH  19  22
ATOM     22  C   UNL     1      50.240   7.087  16.025  0.00  0.00    +0.000 A 
ATOM     23  C   UNL     1      51.513   7.605  15.825  0.00  0.00    +0.000 A 
ATOM     24  S   UNL     1      52.751   6.635  16.483  0.00  0.00    +0.000 S 
ATOM     25  C   UNL     1      51.628   5.476  17.028  0.00  0.00    +0.000 A 
ATOM     26  N   UNL     1      52.037   4.347  17.664  0.00  0.00    +0.000 NA
ATOM     27  C   UNL     1      51.076   3.554  18.008  0.00  0.00    +0.000 A 
ATOM     28  N   UNL     1      49.745   3.789  17.783  0.00  0.00    +0.000 N 
ATOM     29  C   UNL     1      49.289   4.930  17.172  0.00  0.00    +0.000 A 
ATOM     30  O   UNL     1      48.085   5.149  17.040  0.00  0.00    +0.000 OA
ATOM     31  C   UNL     1      50.326   5.842  16.741  0.00  0.00    +0.000 A 
ATOM     32  H   UNL     1      49.046   3.134  18.097  0.00  0.00    +0.000 HD
ENDBRANCH  19  22
ENDBRANCH  17  18
ENDBRANCH   4  17
TORSDOF 6
ENDMDL
