MODEL 1
REMARK VINA RESULT:    -8.354      0.000      0.000
REMARK INTER + INTRA:         -10.888
REMARK INTER:                 -11.040
REMARK INTRA:                   0.152
REMARK UNBOUND:                 0.152
REMARK  Name = 
REMARK  6 active torsions:
REMARK  status: ('A' for Active; 'I' for Inactive)
REMARK    1  A    between atoms: C_2  and  C_18
REMARK    2  A    between atoms: N_3  and  C_4
REMARK    3  A    between atoms: C_4  and  C_5
REMARK    4  A    between atoms: C_8  and  C_9
REMARK    5  A    between atoms: C_9  and  N_10
REMARK    6  A    between atoms: C_13  and  O_14
REMARK                            x       y       z     vdW  Elec       q    Type
REMARK                         _______ _______ _______ _____ _____    ______ ____
ROOT
ATOM      1  O   UNL     1      46.089   3.903  14.075  0.00  0.00    +0.000 OA
ATOM      2  C   UNL     1      46.376   5.086  14.221  0.00  0.00    +0.000 C 
ATOM      3  N   UNL     1      45.651   6.102  13.657  0.00  0.00    +0.000 N 
ATOM      4  H   UNL     1      45.879   7.066  13.850  0.00  0.00    +0.000 HD
ENDROOT
BRANCH   2   5
ATOM      5  C   UNL     1      47.556   5.506  14.981  0.00  0.00    +0.000 A 
ATOM      6  C   UNL     1      48.449   6.430  14.459  0.00  0.00    +0.000 A 
ATOM      7  S   UNL     1      49.710   6.830  15.541  0.00  0.00    +0.000 S 
ATOM      8  C   UNL     1      49.120   5.749  16.717  0.00  0.00    +0.000 A 
ATOM      9  N   UNL     1      49.729   5.615  17.929  0.00  0.00    +0.000 NA
ATOM     10  C   UNL     1      49.165   4.762  18.714  0.00  0.00    +0.000 A 
ATOM     11  N   UNL     1      48.058   4.017  18.402  0.00  0.00    +0.000 N 
ATOM     12  C   UNL     1      47.433   4.093  17.184  0.00  0.00    +0.000 A 
ATOM     13  O   UNL     1      46.469   3.382  16.924  0.00  0.00    +0.000 OA
ATOM     14  C   UNL     1      47.988   5.086  16.286  0.00  0.00    +0.000 A 
ATOM     15  H   UNL     1      47.667   3.357  19.057  0.00  0.00    +0.000 HD
ENDBRANCH   2   5
BRANCH   3  16
ATOM     16  C   UNL     1      44.419   5.879  12.942  0.00  0.00    +0.000 C 
BRANCH  16  17
ATOM     17  C   UNL     1      44.603   4.956  11.764  0.00  0.00    +0.000 A 
ATOM     18  C   UNL     1      45.343   5.387  10.669  0.00  0.00    +0.000 A 
ATOM     19  C   UNL     1      45.547   4.513   9.604  0.00  0.00    +0.000 A 
ATOM     20  C   UNL     1      44.995   3.229   9.640  0.00  0.00    +0.000 A 
ATOM     21  C   UNL     1      44.232   2.903  10.756  0.00  0.00    +0.000 A 
ATOM     22  N   UNL     1      44.027   3.727  11.814  0.00  0.00    +0.000 NA
BRANCH  20  23
ATOM     23  C   UNL     1      45.247   2.229   8.537  0.00  0.00    +0.000 C 
BRANCH  23  24
ATOM     24  N   UNL     1      46.421   2.505   7.699  0.00  0.00    +0.000 NA
ATOM     25  C   UNL     1      46.071   3.304   6.510  0.00  0.00    +0.000 C 
ATOM     26  C   UNL     1      47.002   2.849   5.384  0.00  0.00    +0.000 C 
ATOM     27  C   UNL     1      47.934   1.846   6.039  0.00  0.00    +0.000 C 
ATOM     28  C   UNL     1      47.109   1.302   7.204  0.00  0.00    +0.000 C 
BRANCH  27  29
ATOM     29  O   UNL     1      49.094   2.529   6.520  0.00  0.00    +0.000 OA
ATOM     30  H   UNL     1      49.850   1.957   6.284  0.00  0.00    +0.000 HD
ENDBRANCH  27  29
ENDBRANCH  23  24
ENDBRANCH  20  23
ENDBRANCH  16  17
ENDBRANCH   3  16
TORSDOF 6
ENDMDL
MODEL 2
REMARK VINA RESULT:    -7.857      2.214      3.368
REMARK INTER + INTRA:         -10.231
REMARK INTER:                  -9.641
REMARK INTRA:                  -0.590
REMARK UNBOUND:                 0.152
REMARK  Name = 
REMARK  6 active torsions:
REMARK  status: ('A' for Active; 'I' for Inactive)
REMARK    1  A    between atoms: C_2  and  C_18
REMARK    2  A    between atoms: N_3  and  C_4
REMARK    3  A    between atoms: C_4  and  C_5
REMARK    4  A    between atoms: C_8  and  C_9
REMARK    5  A    between atoms: C_9  and  N_10
REMARK    6  A    between atoms: C_13  and  O_14
REMARK                            x       y       z     vdW  Elec       q    Type
REMARK                         _______ _______ _______ _____ _____    ______ ____
ROOT
ATOM      1  O   UNL     1      47.157   4.595  13.959  0.00  0.00    +0.000 OA
ATOM      2  C   UNL     1      47.193   5.820  13.933  0.00  0.00    +0.000 C 
ATOM      3  N   UNL     1      46.154   6.586  13.476  0.00  0.00    +0.000 N 
ATOM      4  H   UNL     1      46.195   7.593  13.527  0.00  0.00    +0.000 HD
ENDROOT
BRANCH   2   5
ATOM      5  C   UNL     1      48.383   6.565  14.351  0.00  0.00    +0.000 A 
ATOM      6  C   UNL     1      48.769   6.606  15.683  0.00  0.00    +0.000 A 
ATOM      7  S   UNL     1      50.223   7.467  15.934  0.00  0.00    +0.000 S 
ATOM      8  C   UNL     1      50.353   7.844  14.279  0.00  0.00    +0.000 A 
ATOM      9  N   UNL     1      51.409   8.555  13.792  0.00  0.00    +0.000 NA
ATOM     10  C   UNL     1      51.370   8.759  12.520  0.00  0.00    +0.000 A 
ATOM     11  N   UNL     1      50.369   8.333  11.685  0.00  0.00    +0.000 N 
ATOM     12  C   UNL     1      49.272   7.645  12.135  0.00  0.00    +0.000 A 
ATOM     13  O   UNL     1      48.377   7.313  11.366  0.00  0.00    +0.000 OA
ATOM     14  C   UNL     1      49.298   7.332  13.549  0.00  0.00    +0.000 A 
ATOM     15  H   UNL     1      50.390   8.531  10.696  0.00  0.00    +0.000 HD
ENDBRANCH   2   5
BRANCH   3  16
ATOM     16  C   UNL     1      44.880   6.027  13.096  0.00  0.00    +0.000 C 
BRANCH  16  17
ATOM     17  C   UNL     1      44.998   5.079  11.930  0.00  0.00    +0.000 A 
ATOM     18  C   UNL     1      44.641   3.746  12.095  0.00  0.00    +0.000 A 
ATOM     19  C   UNL     1      44.710   2.887  11.001  0.00  0.00    +0.000 A 
ATOM     20  C   UNL     1      45.150   3.366   9.764  0.00  0.00    +0.000 A 
ATOM     21  C   UNL     1      45.531   4.702   9.706  0.00  0.00    +0.000 A 
ATOM     22  N   UNL     1      45.462   5.567  10.750  0.00  0.00    +0.000 NA
BRANCH  20  23
ATOM     23  C   UNL     1      45.178   2.484   8.539  0.00  0.00    +0.000 C 
BRANCH  23  24
ATOM     24  N   UNL     1      46.360   2.641   7.682  0.00  0.00    +0.000 NA
ATOM     25  C   UNL     1      46.052   3.400   6.455  0.00  0.00    +0.000 C 
ATOM     26  C   UNL     1      46.944   2.830   5.350  0.00  0.00    +0.000 C 
ATOM     27  C   UNL     1      47.816   1.805   6.051  0.00  0.00    +0.000 C 
ATOM     28  C   UNL     1      46.967   1.374   7.246  0.00  0.00    +0.000 C 
BRANCH  27  29
ATOM     29  O   UNL     1      49.020   2.435   6.490  0.00  0.00    +0.000 OA
ATOM     30  H   UNL     1      49.260   1.989   7.325  0.00  0.00    +0.000 HD
ENDBRANCH  27  29
ENDBRANCH  23  24
ENDBRANCH  20  23
ENDBRANCH  16  17
ENDBRANCH   3  16
TORSDOF 6
ENDMDL
MODEL 3
REMARK VINA RESULT:    -7.740      4.135      9.136
REMARK INTER + INTRA:         -10.076
REMARK INTER:                  -9.369
REMARK INTRA:                  -0.707
REMARK UNBOUND:                 0.152
REMARK  Name = 
REMARK  6 active torsions:
REMARK  status: ('A' for Active; 'I' for Inactive)
REMARK    1  A    between atoms: C_2  and  C_18
REMARK    2  A    between atoms: N_3  and  C_4
REMARK    3  A    between atoms: C_4  and  C_5
REMARK    4  A    between atoms: C_8  and  C_9
REMARK    5  A    between atoms: C_9  and  N_10
REMARK    6  A    between atoms: C_13  and  O_14
REMARK                            x       y       z     vdW  Elec       q    Type
REMARK                         _______ _______ _______ _____ _____    ______ ____
ROOT
ATOM      1  O   UNL     1      47.229   3.141  14.008  0.00  0.00    +0.000 OA
ATOM      2  C   UNL     1      46.819   4.194  14.484  0.00  0.00    +0.000 C 
ATOM      3  N   UNL     1      46.700   4.406  15.831  0.00  0.00    +0.000 N 
ATOM      4  H   UNL     1      46.417   5.307  16.188  0.00  0.00    +0.000 HD
ENDROOT
BRANCH   2   5
ATOM      5  C   UNL     1      46.374   5.302  13.634  0.00  0.00    +0.000 A 
ATOM      6  C   UNL     1      47.192   6.399  13.406  0.00  0.00    +0.000 A 
ATOM      7  S   UNL     1      46.506   7.534  12.329  0.00  0.00    +0.000 S 
ATOM      8  C   UNL     1      45.084   6.612  12.172  0.00  0.00    +0.000 A 
ATOM      9  N   UNL     1      44.067   7.006  11.354  0.00  0.00    +0.000 NA
ATOM     10  C   UNL     1      43.059   6.204  11.337  0.00  0.00    +0.000 A 
ATOM     11  N   UNL     1      42.959   5.049  12.069  0.00  0.00    +0.000 N 
ATOM     12  C   UNL     1      43.941   4.631  12.930  0.00  0.00    +0.000 A 
ATOM     13  O   UNL     1      43.802   3.614  13.599  0.00  0.00    +0.000 OA
ATOM     14  C   UNL     1      45.126   5.464  12.938  0.00  0.00    +0.000 A 
ATOM     15  H   UNL     1      42.138   4.465  12.021  0.00  0.00    +0.000 HD
ENDBRANCH   2   5
BRANCH   3  16
ATOM     16  C   UNL     1      47.159   3.457  16.814  0.00  0.00    +0.000 C 
BRANCH  16  17
ATOM     17  C   UNL     1      48.640   3.577  17.074  0.00  0.00    +0.000 A 
ATOM     18  C   UNL     1      49.190   4.829  17.321  0.00  0.00    +0.000 A 
ATOM     19  C   UNL     1      50.549   4.927  17.604  0.00  0.00    +0.000 A 
ATOM     20  C   UNL     1      51.343   3.776  17.619  0.00  0.00    +0.000 A 
ATOM     21  C   UNL     1      50.715   2.574  17.314  0.00  0.00    +0.000 A 
ATOM     22  N   UNL     1      49.390   2.445  17.048  0.00  0.00    +0.000 NA
BRANCH  20  23
ATOM     23  C   UNL     1      52.808   3.830  17.985  0.00  0.00    +0.000 C 
BRANCH  23  24
ATOM     24  N   UNL     1      53.348   2.604  18.585  0.00  0.00    +0.000 NA
ATOM     25  C   UNL     1      54.097   2.882  19.824  0.00  0.00    +0.000 C 
ATOM     26  C   UNL     1      55.231   1.857  19.892  0.00  0.00    +0.000 C 
ATOM     27  C   UNL     1      55.002   0.952  18.696  0.00  0.00    +0.000 C 
ATOM     28  C   UNL     1      54.258   1.849  17.709  0.00  0.00    +0.000 C 
BRANCH  27  29
ATOM     29  O   UNL     1      54.184  -0.150  19.091  0.00  0.00    +0.000 OA
ATOM     30  H   UNL     1      53.357  -0.060  18.578  0.00  0.00    +0.000 HD
ENDBRANCH  27  29
ENDBRANCH  23  24
ENDBRANCH  20  23
ENDBRANCH  16  17
ENDBRANCH   3  16
TORSDOF 6
ENDMDL
MODEL 4
REMARK VINA RESULT:    -7.669      2.163      2.786
REMARK INTER + INTRA:          -9.983
REMARK INTER:                  -9.674
REMARK INTRA:                  -0.309
REMARK UNBOUND:                 0.152
REMARK  Name = 
REMARK  6 active torsions:
REMARK  status: ('A' for Active; 'I' for Inactive)
REMARK    1  A    between atoms: C_2  and  C_18
REMARK    2  A    between atoms: N_3  and  C_4
REMARK    3  A    between atoms: C_4  and  C_5
REMARK    4  A    between atoms: C_8  and  C_9
REMARK    5  A    between atoms: C_9  and  N_10
REMARK    6  A    between atoms: C_13  and  O_14
REMARK                            x       y       z     vdW  Elec       q    Type
REMARK                         _______ _______ _______ _____ _____    ______ ____
ROOT
ATOM      1  O   UNL     1      45.282   7.621  11.186  0.00  0.00    +0.000 OA
ATOM      2  C   UNL     1      45.607   7.530  12.365  0.00  0.00    +0.000 C 
ATOM      3  N   UNL     1      44.929   6.754  13.266  0.00  0.00    +0.000 N 
ATOM      4  H   UNL     1      45.262   6.655  14.214  0.00  0.00    +0.000 HD
ENDROOT
BRANCH   2   5
ATOM      5  C   UNL     1      46.731   8.292  12.915  0.00  0.00    +0.000 A 
ATOM      6  C   UNL     1      46.929   9.621  12.571  0.00  0.00    +0.000 A 
ATOM      7  S   UNL     1      48.251  10.335  13.384  0.00  0.00    +0.000 S 
ATOM      8  C   UNL     1      48.619   8.878  14.183  0.00  0.00    +0.000 A 
ATOM      9  N   UNL     1      49.648   8.795  15.074  0.00  0.00    +0.000 NA
ATOM     10  C   UNL     1      49.801   7.628  15.601  0.00  0.00    +0.000 A 
ATOM     11  N   UNL     1      49.035   6.528  15.314  0.00  0.00    +0.000 N 
ATOM     12  C   UNL     1      48.013   6.556  14.400  0.00  0.00    +0.000 A 
ATOM     13  O   UNL     1      47.374   5.543  14.139  0.00  0.00    +0.000 OA
ATOM     14  C   UNL     1      47.756   7.861  13.827  0.00  0.00    +0.000 A 
ATOM     15  H   UNL     1      49.210   5.637  15.753  0.00  0.00    +0.000 HD
ENDBRANCH   2   5
BRANCH   3  16
ATOM     16  C   UNL     1      43.847   5.880  12.887  0.00  0.00    +0.000 C 
BRANCH  16  17
ATOM     17  C   UNL     1      44.258   4.892  11.824  0.00  0.00    +0.000 A 
ATOM     18  C   UNL     1      45.135   3.865  12.151  0.00  0.00    +0.000 A 
ATOM     19  C   UNL     1      45.475   2.930  11.177  0.00  0.00    +0.000 A 
ATOM     20  C   UNL     1      44.949   3.044   9.887  0.00  0.00    +0.000 A 
ATOM     21  C   UNL     1      44.117   4.130   9.640  0.00  0.00    +0.000 A 
ATOM     22  N   UNL     1      43.757   5.050  10.572  0.00  0.00    +0.000 NA
BRANCH  20  23
ATOM     23  C   UNL     1      45.241   2.016   8.820  0.00  0.00    +0.000 C 
BRANCH  23  24
ATOM     24  N   UNL     1      46.340   2.356   7.908  0.00  0.00    +0.000 NA
ATOM     25  C   UNL     1      45.889   3.223   6.804  0.00  0.00    +0.000 C 
ATOM     26  C   UNL     1      46.727   2.849   5.580  0.00  0.00    +0.000 C 
ATOM     27  C   UNL     1      47.717   1.819   6.093  0.00  0.00    +0.000 C 
ATOM     28  C   UNL     1      46.993   1.195   7.284  0.00  0.00    +0.000 C 
BRANCH  27  29
ATOM     29  O   UNL     1      48.907   2.484   6.518  0.00  0.00    +0.000 OA
ATOM     30  H   UNL     1      48.709   2.831   7.409  0.00  0.00    +0.000 HD
ENDBRANCH  27  29
ENDBRANCH  23  24
ENDBRANCH  20  23
ENDBRANCH  16  17
ENDBRANCH   3  16
TORSDOF 6
ENDMDL
MODEL 5
REMARK VINA RESULT:    -7.549      3.853      8.450
REMARK INTER + INTRA:          -9.824
REMARK INTER:                  -8.854
REMARK INTRA:                  -0.971
REMARK UNBOUND:                 0.152
REMARK  Name = 
REMARK  6 active torsions:
REMARK  status: ('A' for Active; 'I' for Inactive)
REMARK    1  A    between atoms: C_2  and  C_18
REMARK    2  A    between atoms: N_3  and  C_4
REMARK    3  A    between atoms: C_4  and  C_5
REMARK    4  A    between atoms: C_8  and  C_9
REMARK    5  A    between atoms: C_9  and  N_10
REMARK    6  A    between atoms: C_13  and  O_14
REMARK                            x       y       z     vdW  Elec       q    Type
REMARK                         _______ _______ _______ _____ _____    ______ ____
ROOT
ATOM      1  O   UNL     1      47.729   7.006  11.622  0.00  0.00    +0.000 OA
ATOM      2  C   UNL     1      46.863   6.745  12.451  0.00  0.00    +0.000 C 
ATOM      3  N   UNL     1      47.068   6.851  13.800  0.00  0.00    +0.000 N 
ATOM      4  H   UNL     1      46.313   6.687  14.450  0.00  0.00    +0.000 HD
ENDROOT
BRANCH   2   5
ATOM      5  C   UNL     1      45.542   6.249  12.055  0.00  0.00    +0.000 A 
ATOM      6  C   UNL     1      44.590   7.104  11.518  0.00  0.00    +0.000 A 
ATOM      7  S   UNL     1      43.153   6.303  11.059  0.00  0.00    +0.000 S 
ATOM      8  C   UNL     1      43.747   4.803  11.602  0.00  0.00    +0.000 A 
ATOM      9  N   UNL     1      43.014   3.661  11.479  0.00  0.00    +0.000 NA
ATOM     10  C   UNL     1      43.597   2.605  11.933  0.00  0.00    +0.000 A 
ATOM     11  N   UNL     1      44.839   2.579  12.513  0.00  0.00    +0.000 N 
ATOM     12  C   UNL     1      45.597   3.708  12.689  0.00  0.00    +0.000 A 
ATOM     13  O   UNL     1      46.687   3.654  13.248  0.00  0.00    +0.000 OA
ATOM     14  C   UNL     1      45.015   4.914  12.137  0.00  0.00    +0.000 A 
ATOM     15  H   UNL     1      45.240   1.721  12.858  0.00  0.00    +0.000 HD
ENDBRANCH   2   5
BRANCH   3  16
ATOM     16  C   UNL     1      48.278   7.392  14.366  0.00  0.00    +0.000 C 
BRANCH  16  17
ATOM     17  C   UNL     1      48.855   6.500  15.436  0.00  0.00    +0.000 A 
ATOM     18  C   UNL     1      48.059   5.511  16.003  0.00  0.00    +0.000 A 
ATOM     19  C   UNL     1      48.612   4.662  16.957  0.00  0.00    +0.000 A 
ATOM     20  C   UNL     1      49.946   4.821  17.344  0.00  0.00    +0.000 A 
ATOM     21  C   UNL     1      50.651   5.866  16.757  0.00  0.00    +0.000 A 
ATOM     22  N   UNL     1      50.144   6.702  15.815  0.00  0.00    +0.000 NA
BRANCH  20  23
ATOM     23  C   UNL     1      50.602   3.882  18.327  0.00  0.00    +0.000 C 
BRANCH  23  24
ATOM     24  N   UNL     1      51.725   3.101  17.792  0.00  0.00    +0.000 NA
ATOM     25  C   UNL     1      51.305   1.751  17.373  0.00  0.00    +0.000 C 
ATOM     26  C   UNL     1      52.488   0.819  17.644  0.00  0.00    +0.000 C 
ATOM     27  C   UNL     1      53.596   1.736  18.128  0.00  0.00    +0.000 C 
ATOM     28  C   UNL     1      52.840   2.917  18.733  0.00  0.00    +0.000 C 
BRANCH  27  29
ATOM     29  O   UNL     1      54.377   2.158  17.009  0.00  0.00    +0.000 OA
ATOM     30  H   UNL     1      53.734   2.471  16.343  0.00  0.00    +0.000 HD
ENDBRANCH  27  29
ENDBRANCH  23  24
ENDBRANCH  20  23
ENDBRANCH  16  17
ENDBRANCH   3  16
TORSDOF 6
ENDMDL
MODEL 6
REMARK VINA RESULT:    -7.466      2.009      3.063
REMARK INTER + INTRA:          -9.714
REMARK INTER:                  -9.324
REMARK INTRA:                  -0.391
REMARK UNBOUND:                 0.152
REMARK  Name = 
REMARK  6 active torsions:
REMARK  status: ('A' for Active; 'I' for Inactive)
REMARK    1  A    between atoms: C_2  and  C_18
REMARK    2  A    between atoms: N_3  and  C_4
REMARK    3  A    between atoms: C_4  and  C_5
REMARK    4  A    between atoms: C_8  and  C_9
REMARK    5  A    between atoms: C_9  and  N_10
REMARK    6  A    between atoms: C_13  and  O_14
REMARK                            x       y       z     vdW  Elec       q    Type
REMARK                         _______ _______ _______ _____ _____    ______ ____
ROOT
ATOM      1  O   UNL     1      50.057   7.119  14.438  0.00  0.00    +0.000 OA
ATOM      2  C   UNL     1      49.076   6.885  15.136  0.00  0.00    +0.000 C 
ATOM      3  N   UNL     1      47.803   7.229  14.769  0.00  0.00    +0.000 N 
ATOM      4  H   UNL     1      47.013   6.965  15.340  0.00  0.00    +0.000 HD
ENDROOT
BRANCH   2   5
ATOM      5  C   UNL     1      49.200   6.255  16.452  0.00  0.00    +0.000 A 
ATOM      6  C   UNL     1      49.945   6.848  17.461  0.00  0.00    +0.000 A 
ATOM      7  S   UNL     1      49.893   5.982  18.932  0.00  0.00    +0.000 S 
ATOM      8  C   UNL     1      48.910   4.770  18.250  0.00  0.00    +0.000 A 
ATOM      9  N   UNL     1      48.464   3.716  18.989  0.00  0.00    +0.000 NA
ATOM     10  C   UNL     1      47.727   2.884  18.336  0.00  0.00    +0.000 A 
ATOM     11  N   UNL     1      47.404   2.993  17.008  0.00  0.00    +0.000 N 
ATOM     12  C   UNL     1      47.858   4.016  16.217  0.00  0.00    +0.000 A 
ATOM     13  O   UNL     1      47.582   4.061  15.024  0.00  0.00    +0.000 OA
ATOM     14  C   UNL     1      48.637   5.016  16.919  0.00  0.00    +0.000 A 
ATOM     15  H   UNL     1      46.830   2.303  16.549  0.00  0.00    +0.000 HD
ENDBRANCH   2   5
BRANCH   3  16
ATOM     16  C   UNL     1      47.486   7.787  13.478  0.00  0.00    +0.000 C 
BRANCH  16  17
ATOM     17  C   UNL     1      46.445   6.977  12.747  0.00  0.00    +0.000 A 
ATOM     18  C   UNL     1      45.460   7.631  12.017  0.00  0.00    +0.000 A 
ATOM     19  C   UNL     1      44.529   6.877  11.308  0.00  0.00    +0.000 A 
ATOM     20  C   UNL     1      44.584   5.480  11.352  0.00  0.00    +0.000 A 
ATOM     21  C   UNL     1      45.575   4.914  12.147  0.00  0.00    +0.000 A 
ATOM     22  N   UNL     1      46.504   5.623  12.838  0.00  0.00    +0.000 NA
BRANCH  20  23
ATOM     23  C   UNL     1      43.635   4.625  10.547  0.00  0.00    +0.000 C 
BRANCH  23  24
ATOM     24  N   UNL     1      44.216   4.003   9.351  0.00  0.00    +0.000 NA
ATOM     25  C   UNL     1      44.395   2.549   9.520  0.00  0.00    +0.000 C 
ATOM     26  C   UNL     1      45.649   2.166   8.731  0.00  0.00    +0.000 C 
ATOM     27  C   UNL     1      46.080   3.450   8.048  0.00  0.00    +0.000 C 
ATOM     28  C   UNL     1      45.529   4.542   8.963  0.00  0.00    +0.000 C 
BRANCH  27  29
ATOM     29  O   UNL     1      45.472   3.522   6.757  0.00  0.00    +0.000 OA
ATOM     30  H   UNL     1      44.524   3.691   6.923  0.00  0.00    +0.000 HD
ENDBRANCH  27  29
ENDBRANCH  23  24
ENDBRANCH  20  23
ENDBRANCH  16  17
ENDBRANCH   3  16
TORSDOF 6
ENDMDL
MODEL 7
REMARK VINA RESULT:    -7.436      2.891      9.340
REMARK INTER + INTRA:          -9.676
REMARK INTER:                  -8.784
REMARK INTRA:                  -0.892
REMARK UNBOUND:                 0.152
REMARK  Name = 
REMARK  6 active torsions:
REMARK  status: ('A' for Active; 'I' for Inactive)
REMARK    1  A    between atoms: C_2  and  C_18
REMARK    2  A    between atoms: N_3  and  C_4
REMARK    3  A    between atoms: C_4  and  C_5
REMARK    4  A    between atoms: C_8  and  C_9
REMARK    5  A    between atoms: C_9  and  N_10
REMARK    6  A    between atoms: C_13  and  O_14
REMARK                            x       y       z     vdW  Elec       q    Type
REMARK                         _______ _______ _______ _____ _____    ______ ____
ROOT
ATOM      1  O   UNL     1      44.976   7.528  12.342  0.00  0.00    +0.000 OA
ATOM      2  C   UNL     1      45.651   6.511  12.217  0.00  0.00    +0.000 C 
ATOM      3  N   UNL     1      47.016   6.508  12.307  0.00  0.00    +0.000 N 
ATOM      4  H   UNL     1      47.535   5.643  12.260  0.00  0.00    +0.000 HD
ENDROOT
BRANCH   2   5
ATOM      5  C   UNL     1      45.041   5.215  11.910  0.00  0.00    +0.000 A 
ATOM      6  C   UNL     1      44.392   4.481  12.893  0.00  0.00    +0.000 A 
ATOM      7  S   UNL     1      43.692   3.039  12.302  0.00  0.00    +0.000 S 
ATOM      8  C   UNL     1      44.271   3.336  10.728  0.00  0.00    +0.000 A 
ATOM      9  N   UNL     1      43.999   2.486   9.698  0.00  0.00    +0.000 NA
ATOM     10  C   UNL     1      44.502   2.845   8.567  0.00  0.00    +0.000 A 
ATOM     11  N   UNL     1      45.265   3.967   8.365  0.00  0.00    +0.000 N 
ATOM     12  C   UNL     1      45.593   4.831   9.378  0.00  0.00    +0.000 A 
ATOM     13  O   UNL     1      46.310   5.803   9.169  0.00  0.00    +0.000 OA
ATOM     14  C   UNL     1      44.997   4.508  10.658  0.00  0.00    +0.000 A 
ATOM     15  H   UNL     1      45.639   4.191   7.456  0.00  0.00    +0.000 HD
ENDBRANCH   2   5
BRANCH   3  16
ATOM     16  C   UNL     1      47.778   7.676  12.676  0.00  0.00    +0.000 C 
BRANCH  16  17
ATOM     17  C   UNL     1      48.250   7.619  14.107  0.00  0.00    +0.000 A 
ATOM     18  C   UNL     1      48.272   8.783  14.865  0.00  0.00    +0.000 A 
ATOM     19  C   UNL     1      48.666   8.716  16.199  0.00  0.00    +0.000 A 
ATOM     20  C   UNL     1      49.049   7.490  16.751  0.00  0.00    +0.000 A 
ATOM     21  C   UNL     1      49.040   6.387  15.905  0.00  0.00    +0.000 A 
ATOM     22  N   UNL     1      48.648   6.419  14.605  0.00  0.00    +0.000 NA
BRANCH  20  23
ATOM     23  C   UNL     1      49.420   7.361  18.209  0.00  0.00    +0.000 C 
BRANCH  23  24
ATOM     24  N   UNL     1      48.855   6.194  18.898  0.00  0.00    +0.000 NA
ATOM     25  C   UNL     1      47.626   6.536  19.638  0.00  0.00    +0.000 C 
ATOM     26  C   UNL     1      47.600   5.645  20.882  0.00  0.00    +0.000 C 
ATOM     27  C   UNL     1      48.808   4.740  20.731  0.00  0.00    +0.000 C 
ATOM     28  C   UNL     1      49.763   5.563  19.868  0.00  0.00    +0.000 C 
BRANCH  27  29
ATOM     29  O   UNL     1      48.417   3.546  20.052  0.00  0.00    +0.000 OA
ATOM     30  H   UNL     1      49.157   2.920  20.175  0.00  0.00    +0.000 HD
ENDBRANCH  27  29
ENDBRANCH  23  24
ENDBRANCH  20  23
ENDBRANCH  16  17
ENDBRANCH   3  16
TORSDOF 6
ENDMDL
MODEL 8
REMARK VINA RESULT:    -7.404      3.375      4.658
REMARK INTER + INTRA:          -9.633
REMARK INTER:                  -8.751
REMARK INTRA:                  -0.883
REMARK UNBOUND:                 0.152
REMARK  Name = 
REMARK  6 active torsions:
REMARK  status: ('A' for Active; 'I' for Inactive)
REMARK    1  A    between atoms: C_2  and  C_18
REMARK    2  A    between atoms: N_3  and  C_4
REMARK    3  A    between atoms: C_4  and  C_5
REMARK    4  A    between atoms: C_8  and  C_9
REMARK    5  A    between atoms: C_9  and  N_10
REMARK    6  A    between atoms: C_13  and  O_14
REMARK                            x       y       z     vdW  Elec       q    Type
REMARK                         _______ _______ _______ _____ _____    ______ ____
ROOT
ATOM      1  O   UNL     1      50.496   7.292  14.798  0.00  0.00    +0.000 OA
ATOM      2  C   UNL     1      49.506   7.111  15.500  0.00  0.00    +0.000 C 
ATOM      3  N   UNL     1      48.319   7.761  15.293  0.00  0.00    +0.000 N 
ATOM      4  H   UNL     1      47.507   7.541  15.852  0.00  0.00    +0.000 HD
ENDROOT
BRANCH   2   5
ATOM      5  C   UNL     1      49.535   6.210  16.654  0.00  0.00    +0.000 A 
ATOM      6  C   UNL     1      50.404   6.432  17.712  0.00  0.00    +0.000 A 
ATOM      7  S   UNL     1      50.218   5.305  18.982  0.00  0.00    +0.000 S 
ATOM      8  C   UNL     1      49.001   4.467  18.136  0.00  0.00    +0.000 A 
ATOM      9  N   UNL     1      48.373   3.385  18.678  0.00  0.00    +0.000 NA
ATOM     10  C   UNL     1      47.473   2.859  17.920  0.00  0.00    +0.000 A 
ATOM     11  N   UNL     1      47.146   3.299  16.663  0.00  0.00    +0.000 N 
ATOM     12  C   UNL     1      47.775   4.361  16.064  0.00  0.00    +0.000 A 
ATOM     13  O   UNL     1      47.484   4.703  14.923  0.00  0.00    +0.000 OA
ATOM     14  C   UNL     1      48.751   5.030  16.900  0.00  0.00    +0.000 A 
ATOM     15  H   UNL     1      46.438   2.839  16.113  0.00  0.00    +0.000 HD
ENDBRANCH   2   5
BRANCH   3  16
ATOM     16  C   UNL     1      48.087   8.625  14.162  0.00  0.00    +0.000 C 
BRANCH  16  17
ATOM     17  C   UNL     1      47.057   8.061  13.217  0.00  0.00    +0.000 A 
ATOM     18  C   UNL     1      47.401   7.004  12.383  0.00  0.00    +0.000 A 
ATOM     19  C   UNL     1      46.432   6.460  11.545  0.00  0.00    +0.000 A 
ATOM     20  C   UNL     1      45.138   6.988  11.539  0.00  0.00    +0.000 A 
ATOM     21  C   UNL     1      44.898   8.075  12.373  0.00  0.00    +0.000 A 
ATOM     22  N   UNL     1      45.818   8.619  13.210  0.00  0.00    +0.000 NA
BRANCH  20  23
ATOM     23  C   UNL     1      44.041   6.386  10.693  0.00  0.00    +0.000 C 
BRANCH  23  24
ATOM     24  N   UNL     1      43.503   5.111  11.184  0.00  0.00    +0.000 NA
ATOM     25  C   UNL     1      43.134   5.183  12.610  0.00  0.00    +0.000 C 
ATOM     26  C   UNL     1      43.405   3.799  13.205  0.00  0.00    +0.000 C 
ATOM     27  C   UNL     1      43.836   2.951  12.023  0.00  0.00    +0.000 C 
ATOM     28  C   UNL     1      44.424   3.971  11.050  0.00  0.00    +0.000 C 
BRANCH  27  29
ATOM     29  O   UNL     1      42.688   2.318  11.456  0.00  0.00    +0.000 OA
ATOM     30  H   UNL     1      43.035   1.585  10.911  0.00  0.00    +0.000 HD
ENDBRANCH  27  29
ENDBRANCH  23  24
ENDBRANCH  20  23
ENDBRANCH  16  17
ENDBRANCH   3  16
TORSDOF 6
ENDMDL
MODEL 9
REMARK VINA RESULT:    -7.340      3.696      5.262
REMARK INTER + INTRA:          -9.548
REMARK INTER:                  -9.044
REMARK INTRA:                  -0.505
REMARK UNBOUND:                 0.152
REMARK  Name = 
REMARK  6 active torsions:
REMARK  status: ('A' for Active; 'I' for Inactive)
REMARK    1  A    between atoms: C_2  and  C_18
REMARK    2  A    between atoms: N_3  and  C_4
REMARK    3  A    between atoms: C_4  and  C_5
REMARK    4  A    between atoms: C_8  and  C_9
REMARK    5  A    between atoms: C_9  and  N_10
REMARK    6  A    between atoms: C_13  and  O_14
REMARK                            x       y       z     vdW  Elec       q    Type
REMARK                         _______ _______ _______ _____ _____    ______ ____
ROOT
ATOM      1  O   UNL     1      49.008   6.036  17.967  0.00  0.00    +0.000 OA
ATOM      2  C   UNL     1      49.966   5.985  17.202  0.00  0.00    +0.000 C 
ATOM      3  N   UNL     1      50.022   6.692  16.032  0.00  0.00    +0.000 N 
ATOM      4  H   UNL     1      50.852   6.674  15.458  0.00  0.00    +0.000 HD
ENDROOT
BRANCH   2   5
ATOM      5  C   UNL     1      51.115   5.116  17.465  0.00  0.00    +0.000 A 
ATOM      6  C   UNL     1      52.349   5.648  17.808  0.00  0.00    +0.000 A 
ATOM      7  S   UNL     1      53.526   4.455  18.141  0.00  0.00    +0.000 S 
ATOM      8  C   UNL     1      52.431   3.198  17.797  0.00  0.00    +0.000 A 
ATOM      9  N   UNL     1      52.791   1.888  17.916  0.00  0.00    +0.000 NA
ATOM     10  C   UNL     1      51.854   1.052  17.624  0.00  0.00    +0.000 A 
ATOM     11  N   UNL     1      50.593   1.396  17.211  0.00  0.00    +0.000 N 
ATOM     12  C   UNL     1      50.197   2.698  17.044  0.00  0.00    +0.000 A 
ATOM     13  O   UNL     1      49.074   2.968  16.634  0.00  0.00    +0.000 OA
ATOM     14  C   UNL     1      51.193   3.680  17.421  0.00  0.00    +0.000 A 
ATOM     15  H   UNL     1      49.904   0.694  16.987  0.00  0.00    +0.000 HD
ENDBRANCH   2   5
BRANCH   3  16
ATOM     16  C   UNL     1      49.017   7.653  15.650  0.00  0.00    +0.000 C 
BRANCH  16  17
ATOM     17  C   UNL     1      48.199   7.184  14.473  0.00  0.00    +0.000 A 
ATOM     18  C   UNL     1      47.478   8.111  13.730  0.00  0.00    +0.000 A 
ATOM     19  C   UNL     1      46.761   7.678  12.618  0.00  0.00    +0.000 A 
ATOM     20  C   UNL     1      46.761   6.323  12.273  0.00  0.00    +0.000 A 
ATOM     21  C   UNL     1      47.473   5.462  13.101  0.00  0.00    +0.000 A 
ATOM     22  N   UNL     1      48.192   5.857  14.183  0.00  0.00    +0.000 NA
BRANCH  20  23
ATOM     23  C   UNL     1      46.051   5.821  11.038  0.00  0.00    +0.000 C 
BRANCH  23  24
ATOM     24  N   UNL     1      44.820   5.062  11.290  0.00  0.00    +0.000 NA
ATOM     25  C   UNL     1      43.871   5.817  12.129  0.00  0.00    +0.000 C 
ATOM     26  C   UNL     1      43.128   4.790  12.987  0.00  0.00    +0.000 C 
ATOM     27  C   UNL     1      43.641   3.445  12.505  0.00  0.00    +0.000 C 
ATOM     28  C   UNL     1      45.031   3.769  11.961  0.00  0.00    +0.000 C 
BRANCH  27  29
ATOM     29  O   UNL     1      42.791   2.966  11.462  0.00  0.00    +0.000 OA
ATOM     30  H   UNL     1      43.203   2.137  11.148  0.00  0.00    +0.000 HD
ENDBRANCH  27  29
ENDBRANCH  23  24
ENDBRANCH  20  23
ENDBRANCH  16  17
ENDBRANCH   3  16
TORSDOF 6
ENDMDL
