MODEL 1
REMARK VINA RESULT:    -7.550      0.000      0.000
REMARK INTER + INTRA:         -12.130
REMARK INTER:                 -10.861
REMARK INTRA:                  -1.269
REMARK UNBOUND:                -1.269
REMARK  Name = 
REMARK  10 active torsions:
REMARK  status: ('A' for Active; 'I' for Inactive)
REMARK    1  A    between atoms: C_1  and  O_2
REMARK    2  A    between atoms: O_2  and  C_3
REMARK    3  A    between atoms: C_10  and  C_11
REMARK    4  A    between atoms: N_13  and  C_14
REMARK    5  A    between atoms: C_14  and  C_15
REMARK    6  A    between atoms: C_18  and  C_19
REMARK    7  A    between atoms: C_19  and  N_20
REMARK    8  A    between atoms: C_19  and  C_21
REMARK    9  A    between atoms: C_21  and  C_22
REMARK   10  A    between atoms: N_24  and  C_25
REMARK                            x       y       z     vdW  Elec       q    Type
REMARK                         _______ _______ _______ _____ _____    ______ ____
ROOT
ATOM      1  C   UNL     1      47.485   6.468  13.995  0.00  0.00    +0.000 A 
ATOM      2  C   UNL     1      46.944   7.103  12.873  0.00  0.00    +0.000 A 
ATOM      3  C   UNL     1      46.066   6.420  12.024  0.00  0.00    +0.000 A 
ATOM      4  C   UNL     1      45.701   5.089  12.283  0.00  0.00    +0.000 A 
ATOM      5  C   UNL     1      46.277   4.448  13.391  0.00  0.00    +0.000 A 
ATOM      6  C   UNL     1      47.162   5.127  14.233  0.00  0.00    +0.000 A 
ENDROOT
BRANCH   1   7
ATOM      7  C   UNL     1      48.311   7.232  14.992  0.00  0.00    +0.000 C 
BRANCH   7  10
ATOM      8  C   UNL     1      49.398   6.147  16.899  0.00  0.00    +0.000 C 
ATOM      9  O   UNL     1      48.540   6.577  17.666  0.00  0.00    +0.000 OA
ATOM     10  N   UNL     1      49.340   6.384  15.552  0.00  0.00    +0.000 N 
ATOM     11  H   UNL     1      50.093   6.078  14.950  0.00  0.00    +0.000 HD
BRANCH   8  19
ATOM     12  C   UNL     1      49.915   2.769  16.948  0.00  0.00    +0.000 A 
ATOM     13  N   UNL     1      50.401   1.512  17.036  0.00  0.00    +0.000 NA
ATOM     14  C   UNL     1      51.624   1.340  17.547  0.00  0.00    +0.000 A 
ATOM     15  N   UNL     1      52.441   2.285  18.004  0.00  0.00    +0.000 NA
ATOM     16  C   UNL     1      51.926   3.521  17.891  0.00  0.00    +0.000 A 
ATOM     17  S   UNL     1      52.837   4.858  18.411  0.00  0.00    +0.000 S 
ATOM     18  C   UNL     1      51.622   5.938  17.918  0.00  0.00    +0.000 A 
ATOM     19  C   UNL     1      50.503   5.313  17.384  0.00  0.00    +0.000 A 
ATOM     20  C   UNL     1      50.681   3.867  17.375  0.00  0.00    +0.000 A 
BRANCH  12  22
ATOM     21  C   UNL     1      47.630   2.951  17.439  0.00  0.00    +0.000 C 
ATOM     22  O   UNL     1      48.643   2.953  16.438  0.00  0.00    +0.000 OA
ENDBRANCH  12  22
ENDBRANCH   8  19
ENDBRANCH   7  10
ENDBRANCH   1   7
BRANCH   4  23
ATOM     23  C   UNL     1      44.621   4.433  11.429  0.00  0.00    +0.000 C 
BRANCH  23  24
ATOM     24  N   UNL     1      43.935   5.394  10.561  0.00  0.00    +0.000 NA
ATOM     25  H   UNL     1      43.330   4.900   9.909  0.00  0.00    +0.000 HD
ATOM     26  H   UNL     1      44.632   5.880   9.997  0.00  0.00    +0.000 HD
ENDBRANCH  23  24
BRANCH  23  27
ATOM     27  C   UNL     1      45.240   3.270  10.626  0.00  0.00    +0.000 C 
BRANCH  27  28
ATOM     28  C   UNL     1      44.541   2.940   9.293  0.00  0.00    +0.000 C 
ATOM     29  C   UNL     1      44.932   1.578   8.674  0.00  0.00    +0.000 C 
ATOM     30  N   UNL     1      46.333   1.583   8.204  0.00  0.00    +0.000 NA
ATOM     31  C   UNL     1      46.705   0.290   7.638  0.00  0.00    +0.000 C 
ATOM     32  C   UNL     1      46.469   2.656   7.196  0.00  0.00    +0.000 C 
ATOM     33  C   UNL     1      46.077   4.016   7.792  0.00  0.00    +0.000 C 
ATOM     34  O   UNL     1      44.751   4.007   8.336  0.00  0.00    +0.000 OA
ENDBRANCH  27  28
ENDBRANCH  23  27
ENDBRANCH   4  23
TORSDOF 8
ENDMDL
MODEL 2
REMARK VINA RESULT:    -7.447      2.168      2.691
REMARK INTER + INTRA:         -11.982
REMARK INTER:                 -10.640
REMARK INTRA:                  -1.342
REMARK UNBOUND:                -1.269
REMARK  Name = 
REMARK  10 active torsions:
REMARK  status: ('A' for Active; 'I' for Inactive)
REMARK    1  A    between atoms: C_1  and  O_2
REMARK    2  A    between atoms: O_2  and  C_3
REMARK    3  A    between atoms: C_10  and  C_11
REMARK    4  A    between atoms: N_13  and  C_14
REMARK    5  A    between atoms: C_14  and  C_15
REMARK    6  A    between atoms: C_18  and  C_19
REMARK    7  A    between atoms: C_19  and  N_20
REMARK    8  A    between atoms: C_19  and  C_21
REMARK    9  A    between atoms: C_21  and  C_22
REMARK   10  A    between atoms: N_24  and  C_25
REMARK                            x       y       z     vdW  Elec       q    Type
REMARK                         _______ _______ _______ _____ _____    ______ ____
ROOT
ATOM      1  C   UNL     1      47.192   6.917  13.171  0.00  0.00    +0.000 A 
ATOM      2  C   UNL     1      46.912   5.611  13.586  0.00  0.00    +0.000 A 
ATOM      3  C   UNL     1      45.918   4.862  12.949  0.00  0.00    +0.000 A 
ATOM      4  C   UNL     1      45.186   5.397  11.876  0.00  0.00    +0.000 A 
ATOM      5  C   UNL     1      45.449   6.722  11.491  0.00  0.00    +0.000 A 
ATOM      6  C   UNL     1      46.435   7.474  12.135  0.00  0.00    +0.000 A 
ENDROOT
BRANCH   1   7
ATOM      7  C   UNL     1      48.353   7.678  13.749  0.00  0.00    +0.000 C 
BRANCH   7  10
ATOM      8  C   UNL     1      49.151   7.121  15.996  0.00  0.00    +0.000 C 
ATOM      9  O   UNL     1      50.129   6.539  15.533  0.00  0.00    +0.000 OA
ATOM     10  N   UNL     1      48.243   7.752  15.189  0.00  0.00    +0.000 N 
ATOM     11  H   UNL     1      47.411   8.167  15.589  0.00  0.00    +0.000 HD
BRANCH   8  19
ATOM     12  C   UNL     1      48.792   4.766  18.447  0.00  0.00    +0.000 A 
ATOM     13  N   UNL     1      48.687   4.069  19.598  0.00  0.00    +0.000 NA
ATOM     14  C   UNL     1      48.579   4.751  20.743  0.00  0.00    +0.000 A 
ATOM     15  N   UNL     1      48.550   6.073  20.889  0.00  0.00    +0.000 NA
ATOM     16  C   UNL     1      48.665   6.730  19.722  0.00  0.00    +0.000 A 
ATOM     17  S   UNL     1      48.662   8.429  19.714  0.00  0.00    +0.000 S 
ATOM     18  C   UNL     1      48.885   8.469  18.031  0.00  0.00    +0.000 A 
ATOM     19  C   UNL     1      48.935   7.212  17.444  0.00  0.00    +0.000 A 
ATOM     20  C   UNL     1      48.795   6.171  18.454  0.00  0.00    +0.000 A 
BRANCH  12  22
ATOM     21  C   UNL     1      47.618   3.698  16.721  0.00  0.00    +0.000 C 
ATOM     22  O   UNL     1      48.885   4.068  17.257  0.00  0.00    +0.000 OA
ENDBRANCH  12  22
ENDBRANCH   8  19
ENDBRANCH   7  10
ENDBRANCH   1   7
BRANCH   4  23
ATOM     23  C   UNL     1      44.225   4.497  11.106  0.00  0.00    +0.000 C 
BRANCH  23  24
ATOM     24  N   UNL     1      43.352   5.256  10.205  0.00  0.00    +0.000 NA
ATOM     25  H   UNL     1      42.760   5.883  10.746  0.00  0.00    +0.000 HD
ATOM     26  H   UNL     1      42.726   4.605   9.732  0.00  0.00    +0.000 HD
ENDBRANCH  23  24
BRANCH  23  27
ATOM     27  C   UNL     1      45.027   3.415  10.355  0.00  0.00    +0.000 C 
BRANCH  27  28
ATOM     28  C   UNL     1      44.524   3.081   8.937  0.00  0.00    +0.000 C 
ATOM     29  C   UNL     1      44.914   1.675   8.424  0.00  0.00    +0.000 C 
ATOM     30  N   UNL     1      46.368   1.577   8.181  0.00  0.00    +0.000 NA
ATOM     31  C   UNL     1      46.736   0.243   7.714  0.00  0.00    +0.000 C 
ATOM     32  C   UNL     1      46.731   2.602   7.179  0.00  0.00    +0.000 C 
ATOM     33  C   UNL     1      46.343   4.004   7.669  0.00  0.00    +0.000 C 
ATOM     34  O   UNL     1      44.951   4.098   7.998  0.00  0.00    +0.000 OA
ENDBRANCH  27  28
ENDBRANCH  23  27
ENDBRANCH   4  23
TORSDOF 8
ENDMDL
MODEL 3
REMARK VINA RESULT:    -6.488      2.127      2.477
REMARK INTER + INTRA:         -10.601
REMARK INTER:                  -9.439
REMARK INTRA:                  -1.162
REMARK UNBOUND:                -1.269
REMARK  Name = 
REMARK  10 active torsions:
REMARK  status: ('A' for Active; 'I' for Inactive)
REMARK    1  A    between atoms: C_1  and  O_2
REMARK    2  A    between atoms: O_2  and  C_3
REMARK    3  A    between atoms: C_10  and  C_11
REMARK    4  A    between atoms: N_13  and  C_14
REMARK    5  A    between atoms: C_14  and  C_15
REMARK    6  A    between atoms: C_18  and  C_19
REMARK    7  A    between atoms: C_19  and  N_20
REMARK    8  A    between atoms: C_19  and  C_21
REMARK    9  A    between atoms: C_21  and  C_22
REMARK   10  A    between atoms: N_24  and  C_25
REMARK                            x       y       z     vdW  Elec       q    Type
REMARK                         _______ _______ _______ _____ _____    ______ ____
ROOT
ATOM      1  C   UNL     1      47.063   7.191  13.143  0.00  0.00    +0.000 A 
ATOM      2  C   UNL     1      46.309   7.625  12.048  0.00  0.00    +0.000 A 
ATOM      3  C   UNL     1      45.459   6.741  11.376  0.00  0.00    +0.000 A 
ATOM      4  C   UNL     1      45.335   5.404  11.788  0.00  0.00    +0.000 A 
ATOM      5  C   UNL     1      46.123   4.968  12.865  0.00  0.00    +0.000 A 
ATOM      6  C   UNL     1      46.980   5.849  13.530  0.00  0.00    +0.000 A 
ENDROOT
BRANCH   1   7
ATOM      7  C   UNL     1      47.866   8.163  13.963  0.00  0.00    +0.000 C 
BRANCH   7  10
ATOM      8  C   UNL     1      49.052   7.917  16.090  0.00  0.00    +0.000 C 
ATOM      9  O   UNL     1      48.470   8.893  16.558  0.00  0.00    +0.000 OA
ATOM     10  N   UNL     1      48.783   7.457  14.830  0.00  0.00    +0.000 N 
ATOM     11  H   UNL     1      49.322   6.693  14.443  0.00  0.00    +0.000 HD
BRANCH   8  19
ATOM     12  C   UNL     1      48.905   6.428  19.164  0.00  0.00    +0.000 A 
ATOM     13  N   UNL     1      49.105   5.714  20.292  0.00  0.00    +0.000 NA
ATOM     14  C   UNL     1      50.290   5.121  20.464  0.00  0.00    +0.000 A 
ATOM     15  N   UNL     1      51.334   5.160  19.639  0.00  0.00    +0.000 NA
ATOM     16  C   UNL     1      51.093   5.873  18.526  0.00  0.00    +0.000 A 
ATOM     17  S   UNL     1      52.308   6.021  17.348  0.00  0.00    +0.000 S 
ATOM     18  C   UNL     1      51.286   6.931  16.340  0.00  0.00    +0.000 A 
ATOM     19  C   UNL     1      50.029   7.163  16.882  0.00  0.00    +0.000 A 
ATOM     20  C   UNL     1      49.916   6.537  18.194  0.00  0.00    +0.000 A 
BRANCH  12  22
ATOM     21  C   UNL     1      47.516   8.196  19.830  0.00  0.00    +0.000 C 
ATOM     22  O   UNL     1      47.688   7.060  18.987  0.00  0.00    +0.000 OA
ENDBRANCH  12  22
ENDBRANCH   8  19
ENDBRANCH   7  10
ENDBRANCH   1   7
BRANCH   4  23
ATOM     23  C   UNL     1      44.282   4.516  11.132  0.00  0.00    +0.000 C 
BRANCH  23  24
ATOM     24  N   UNL     1      43.407   5.265  10.226  0.00  0.00    +0.000 NA
ATOM     25  H   UNL     1      43.968   5.850   9.609  0.00  0.00    +0.000 HD
ATOM     26  H   UNL     1      42.831   5.899  10.778  0.00  0.00    +0.000 HD
ENDBRANCH  23  24
BRANCH  23  27
ATOM     27  C   UNL     1      44.978   3.338  10.421  0.00  0.00    +0.000 C 
BRANCH  27  28
ATOM     28  C   UNL     1      44.479   3.038   8.994  0.00  0.00    +0.000 C 
ATOM     29  C   UNL     1      44.879   1.649   8.444  0.00  0.00    +0.000 C 
ATOM     30  N   UNL     1      46.334   1.567   8.200  0.00  0.00    +0.000 NA
ATOM     31  C   UNL     1      46.711   0.248   7.699  0.00  0.00    +0.000 C 
ATOM     32  C   UNL     1      46.690   2.620   7.226  0.00  0.00    +0.000 C 
ATOM     33  C   UNL     1      46.293   4.006   7.753  0.00  0.00    +0.000 C 
ATOM     34  O   UNL     1      44.899   4.082   8.082  0.00  0.00    +0.000 OA
ENDBRANCH  27  28
ENDBRANCH  23  27
ENDBRANCH   4  23
TORSDOF 8
ENDMDL
MODEL 4
REMARK VINA RESULT:    -6.295      2.791      8.646
REMARK INTER + INTRA:         -10.324
REMARK INTER:                  -8.878
REMARK INTRA:                  -1.445
REMARK UNBOUND:                -1.269
REMARK  Name = 
REMARK  10 active torsions:
REMARK  status: ('A' for Active; 'I' for Inactive)
REMARK    1  A    between atoms: C_1  and  O_2
REMARK    2  A    between atoms: O_2  and  C_3
REMARK    3  A    between atoms: C_10  and  C_11
REMARK    4  A    between atoms: N_13  and  C_14
REMARK    5  A    between atoms: C_14  and  C_15
REMARK    6  A    between atoms: C_18  and  C_19
REMARK    7  A    between atoms: C_19  and  N_20
REMARK    8  A    between atoms: C_19  and  C_21
REMARK    9  A    between atoms: C_21  and  C_22
REMARK   10  A    between atoms: N_24  and  C_25
REMARK                            x       y       z     vdW  Elec       q    Type
REMARK                         _______ _______ _______ _____ _____    ______ ____
ROOT
ATOM      1  C   UNL     1      48.476   8.110  13.068  0.00  0.00    +0.000 A 
ATOM      2  C   UNL     1      49.742   7.558  13.291  0.00  0.00    +0.000 A 
ATOM      3  C   UNL     1      50.318   7.594  14.565  0.00  0.00    +0.000 A 
ATOM      4  C   UNL     1      49.638   8.173  15.649  0.00  0.00    +0.000 A 
ATOM      5  C   UNL     1      48.384   8.756  15.408  0.00  0.00    +0.000 A 
ATOM      6  C   UNL     1      47.813   8.730  14.133  0.00  0.00    +0.000 A 
ENDROOT
BRANCH   1   7
ATOM      7  C   UNL     1      47.786   7.950  11.742  0.00  0.00    +0.000 C 
BRANCH   7  10
ATOM      8  C   UNL     1      45.624   6.814  11.568  0.00  0.00    +0.000 C 
ATOM      9  O   UNL     1      45.053   7.879  11.345  0.00  0.00    +0.000 OA
ATOM     10  N   UNL     1      46.981   6.748  11.733  0.00  0.00    +0.000 N 
ATOM     11  H   UNL     1      47.419   5.871  11.983  0.00  0.00    +0.000 HD
BRANCH   8  19
ATOM     12  C   UNL     1      45.274   4.232   9.357  0.00  0.00    +0.000 A 
ATOM     13  N   UNL     1      45.017   3.070   8.719  0.00  0.00    +0.000 NA
ATOM     14  C   UNL     1      44.266   2.157   9.343  0.00  0.00    +0.000 A 
ATOM     15  N   UNL     1      43.713   2.263  10.549  0.00  0.00    +0.000 NA
ATOM     16  C   UNL     1      43.998   3.429  11.154  0.00  0.00    +0.000 A 
ATOM     17  S   UNL     1      43.389   3.735  12.709  0.00  0.00    +0.000 S 
ATOM     18  C   UNL     1      44.175   5.240  12.773  0.00  0.00    +0.000 A 
ATOM     19  C   UNL     1      44.882   5.550  11.619  0.00  0.00    +0.000 A 
ATOM     20  C   UNL     1      44.770   4.470  10.646  0.00  0.00    +0.000 A 
BRANCH  12  22
ATOM     21  C   UNL     1      46.803   4.661   7.632  0.00  0.00    +0.000 C 
ATOM     22  O   UNL     1      46.034   5.188   8.710  0.00  0.00    +0.000 OA
ENDBRANCH  12  22
ENDBRANCH   8  19
ENDBRANCH   7  10
ENDBRANCH   1   7
BRANCH   4  23
ATOM     23  C   UNL     1      50.228   8.050  17.050  0.00  0.00    +0.000 C 
BRANCH  23  24
ATOM     24  N   UNL     1      49.289   8.482  18.090  0.00  0.00    +0.000 NA
ATOM     25  H   UNL     1      48.867   7.670  18.534  0.00  0.00    +0.000 HD
ATOM     26  H   UNL     1      48.528   8.997  17.648  0.00  0.00    +0.000 HD
ENDBRANCH  23  24
BRANCH  23  27
ATOM     27  C   UNL     1      50.712   6.603  17.276  0.00  0.00    +0.000 C 
BRANCH  27  28
ATOM     28  C   UNL     1      49.861   5.763  18.249  0.00  0.00    +0.000 C 
ATOM     29  C   UNL     1      50.322   4.297  18.417  0.00  0.00    +0.000 C 
ATOM     30  N   UNL     1      50.096   3.518  17.182  0.00  0.00    +0.000 NA
ATOM     31  C   UNL     1      50.550   2.139  17.337  0.00  0.00    +0.000 C 
ATOM     32  C   UNL     1      48.651   3.563  16.876  0.00  0.00    +0.000 C 
ATOM     33  C   UNL     1      48.173   5.013  16.713  0.00  0.00    +0.000 C 
ATOM     34  O   UNL     1      48.464   5.812  17.868  0.00  0.00    +0.000 OA
ENDBRANCH  27  28
ENDBRANCH  23  27
ENDBRANCH   4  23
TORSDOF 8
ENDMDL
MODEL 5
REMARK VINA RESULT:    -6.266      5.766      7.532
REMARK INTER + INTRA:         -10.282
REMARK INTER:                  -9.288
REMARK INTRA:                  -0.994
REMARK UNBOUND:                -1.269
REMARK  Name = 
REMARK  10 active torsions:
REMARK  status: ('A' for Active; 'I' for Inactive)
REMARK    1  A    between atoms: C_1  and  O_2
REMARK    2  A    between atoms: O_2  and  C_3
REMARK    3  A    between atoms: C_10  and  C_11
REMARK    4  A    between atoms: N_13  and  C_14
REMARK    5  A    between atoms: C_14  and  C_15
REMARK    6  A    between atoms: C_18  and  C_19
REMARK    7  A    between atoms: C_19  and  N_20
REMARK    8  A    between atoms: C_19  and  C_21
REMARK    9  A    between atoms: C_21  and  C_22
REMARK   10  A    between atoms: N_24  and  C_25
REMARK                            x       y       z     vdW  Elec       q    Type
REMARK                         _______ _______ _______ _____ _____    ______ ____
ROOT
ATOM      1  C   UNL     1      49.862   8.857  11.629  0.00  0.00    +0.000 A 
ATOM      2  C   UNL     1      49.224   7.648  11.333  0.00  0.00    +0.000 A 
ATOM      3  C   UNL     1      47.938   7.386  11.817  0.00  0.00    +0.000 A 
ATOM      4  C   UNL     1      47.256   8.331  12.602  0.00  0.00    +0.000 A 
ATOM      5  C   UNL     1      47.919   9.526  12.924  0.00  0.00    +0.000 A 
ATOM      6  C   UNL     1      49.208   9.783  12.449  0.00  0.00    +0.000 A 
ENDROOT
BRANCH   1   7
ATOM      7  C   UNL     1      51.179   9.210  10.996  0.00  0.00    +0.000 C 
BRANCH   7  10
ATOM      8  C   UNL     1      53.066   8.074   9.926  0.00  0.00    +0.000 C 
ATOM      9  O   UNL     1      53.537   9.147   9.557  0.00  0.00    +0.000 OA
ATOM     10  N   UNL     1      51.926   8.012  10.681  0.00  0.00    +0.000 N 
ATOM     11  H   UNL     1      51.520   7.115  10.915  0.00  0.00    +0.000 HD
BRANCH   8  19
ATOM     12  C   UNL     1      53.077   6.065   7.160  0.00  0.00    +0.000 A 
ATOM     13  N   UNL     1      53.311   5.139   6.206  0.00  0.00    +0.000 NA
ATOM     14  C   UNL     1      54.156   4.141   6.486  0.00  0.00    +0.000 A 
ATOM     15  N   UNL     1      54.804   3.938   7.630  0.00  0.00    +0.000 NA
ATOM     16  C   UNL     1      54.551   4.884   8.550  0.00  0.00    +0.000 A 
ATOM     17  S   UNL     1      55.305   4.796  10.069  0.00  0.00    +0.000 S 
ATOM     18  C   UNL     1      54.575   6.247  10.569  0.00  0.00    +0.000 A 
ATOM     19  C   UNL     1      53.732   6.805   9.616  0.00  0.00    +0.000 A 
ATOM     20  C   UNL     1      53.712   5.985   8.411  0.00  0.00    +0.000 A 
BRANCH  12  22
ATOM     21  C   UNL     1      52.786   8.178   6.184  0.00  0.00    +0.000 C 
ATOM     22  O   UNL     1      52.190   7.089   6.884  0.00  0.00    +0.000 OA
ENDBRANCH  12  22
ENDBRANCH   8  19
ENDBRANCH   7  10
ENDBRANCH   1   7
BRANCH   4  23
ATOM     23  C   UNL     1      45.799   8.077  12.976  0.00  0.00    +0.000 C 
BRANCH  23  24
ATOM     24  N   UNL     1      44.976   9.285  12.861  0.00  0.00    +0.000 NA
ATOM     25  H   UNL     1      44.009   9.027  12.677  0.00  0.00    +0.000 HD
ATOM     26  H   UNL     1      45.291   9.820  12.053  0.00  0.00    +0.000 HD
ENDBRANCH  23  24
BRANCH  23  27
ATOM     27  C   UNL     1      45.245   6.919  12.121  0.00  0.00    +0.000 C 
BRANCH  27  28
ATOM     28  C   UNL     1      44.931   5.620  12.890  0.00  0.00    +0.000 C 
ATOM     29  C   UNL     1      45.286   4.317  12.136  0.00  0.00    +0.000 C 
ATOM     30  N   UNL     1      44.402   4.114  10.970  0.00  0.00    +0.000 NA
ATOM     31  C   UNL     1      44.751   2.893  10.250  0.00  0.00    +0.000 C 
ATOM     32  C   UNL     1      43.009   4.052  11.462  0.00  0.00    +0.000 C 
ATOM     33  C   UNL     1      42.642   5.335  12.220  0.00  0.00    +0.000 C 
ATOM     34  O   UNL     1      43.543   5.602  13.303  0.00  0.00    +0.000 OA
ENDBRANCH  27  28
ENDBRANCH  23  27
ENDBRANCH   4  23
TORSDOF 8
ENDMDL
MODEL 6
REMARK VINA RESULT:    -6.171      2.855      3.419
REMARK INTER + INTRA:         -10.145
REMARK INTER:                  -8.965
REMARK INTRA:                  -1.180
REMARK UNBOUND:                -1.269
REMARK  Name = 
REMARK  10 active torsions:
REMARK  status: ('A' for Active; 'I' for Inactive)
REMARK    1  A    between atoms: C_1  and  O_2
REMARK    2  A    between atoms: O_2  and  C_3
REMARK    3  A    between atoms: C_10  and  C_11
REMARK    4  A    between atoms: N_13  and  C_14
REMARK    5  A    between atoms: C_14  and  C_15
REMARK    6  A    between atoms: C_18  and  C_19
REMARK    7  A    between atoms: C_19  and  N_20
REMARK    8  A    between atoms: C_19  and  C_21
REMARK    9  A    between atoms: C_21  and  C_22
REMARK   10  A    between atoms: N_24  and  C_25
REMARK                            x       y       z     vdW  Elec       q    Type
REMARK                         _______ _______ _______ _____ _____    ______ ____
ROOT
ATOM      1  C   UNL     1      47.016   7.236  13.183  0.00  0.00    +0.000 A 
ATOM      2  C   UNL     1      46.227   7.659  12.109  0.00  0.00    +0.000 A 
ATOM      3  C   UNL     1      45.405   6.753  11.431  0.00  0.00    +0.000 A 
ATOM      4  C   UNL     1      45.346   5.404  11.817  0.00  0.00    +0.000 A 
ATOM      5  C   UNL     1      46.168   4.981  12.874  0.00  0.00    +0.000 A 
ATOM      6  C   UNL     1      46.997   5.884  13.544  0.00  0.00    +0.000 A 
ENDROOT
BRANCH   1   7
ATOM      7  C   UNL     1      47.789   8.226  14.010  0.00  0.00    +0.000 C 
BRANCH   7  10
ATOM      8  C   UNL     1      48.576   8.335  16.326  0.00  0.00    +0.000 C 
ATOM      9  O   UNL     1      48.331   9.537  16.380  0.00  0.00    +0.000 OA
ATOM     10  N   UNL     1      48.298   7.596  15.208  0.00  0.00    +0.000 N 
ATOM     11  H   UNL     1      48.570   6.622  15.163  0.00  0.00    +0.000 HD
BRANCH   8  19
ATOM     12  C   UNL     1      51.595   8.485  17.923  0.00  0.00    +0.000 A 
ATOM     13  N   UNL     1      52.646   8.382  18.763  0.00  0.00    +0.000 NA
ATOM     14  C   UNL     1      52.555   7.535  19.793  0.00  0.00    +0.000 A 
ATOM     15  N   UNL     1      51.525   6.747  20.092  0.00  0.00    +0.000 NA
ATOM     16  C   UNL     1      50.496   6.884  19.239  0.00  0.00    +0.000 A 
ATOM     17  S   UNL     1      49.086   5.966  19.473  0.00  0.00    +0.000 S 
ATOM     18  C   UNL     1      48.330   6.698  18.139  0.00  0.00    +0.000 A 
ATOM     19  C   UNL     1      49.132   7.619  17.479  0.00  0.00    +0.000 A 
ATOM     20  C   UNL     1      50.431   7.725  18.132  0.00  0.00    +0.000 A 
BRANCH  12  22
ATOM     21  C   UNL     1      52.194   8.720  15.668  0.00  0.00    +0.000 C 
ATOM     22  O   UNL     1      51.690   9.345  16.845  0.00  0.00    +0.000 OA
ENDBRANCH  12  22
ENDBRANCH   8  19
ENDBRANCH   7  10
ENDBRANCH   1   7
BRANCH   4  23
ATOM     23  C   UNL     1      44.322   4.484  11.160  0.00  0.00    +0.000 C 
BRANCH  23  24
ATOM     24  N   UNL     1      43.406   5.211  10.276  0.00  0.00    +0.000 NA
ATOM     25  H   UNL     1      43.063   6.046  10.746  0.00  0.00    +0.000 HD
ATOM     26  H   UNL     1      42.591   4.625  10.098  0.00  0.00    +0.000 HD
ENDBRANCH  23  24
BRANCH  23  27
ATOM     27  C   UNL     1      45.055   3.346  10.421  0.00  0.00    +0.000 C 
BRANCH  27  28
ATOM     28  C   UNL     1      44.525   3.022   9.011  0.00  0.00    +0.000 C 
ATOM     29  C   UNL     1      44.933   1.634   8.466  0.00  0.00    +0.000 C 
ATOM     30  N   UNL     1      46.382   1.572   8.186  0.00  0.00    +0.000 NA
ATOM     31  C   UNL     1      46.768   0.254   7.690  0.00  0.00    +0.000 C 
ATOM     32  C   UNL     1      46.697   2.619   7.192  0.00  0.00    +0.000 C 
ATOM     33  C   UNL     1      46.291   4.005   7.713  0.00  0.00    +0.000 C 
ATOM     34  O   UNL     1      44.905   4.062   8.077  0.00  0.00    +0.000 OA
ENDBRANCH  27  28
ENDBRANCH  23  27
ENDBRANCH   4  23
TORSDOF 8
ENDMDL
MODEL 7
REMARK VINA RESULT:    -6.034      3.360      8.520
REMARK INTER + INTRA:          -9.948
REMARK INTER:                  -8.758
REMARK INTRA:                  -1.190
REMARK UNBOUND:                -1.269
REMARK  Name = 
REMARK  10 active torsions:
REMARK  status: ('A' for Active; 'I' for Inactive)
REMARK    1  A    between atoms: C_1  and  O_2
REMARK    2  A    between atoms: O_2  and  C_3
REMARK    3  A    between atoms: C_10  and  C_11
REMARK    4  A    between atoms: N_13  and  C_14
REMARK    5  A    between atoms: C_14  and  C_15
REMARK    6  A    between atoms: C_18  and  C_19
REMARK    7  A    between atoms: C_19  and  N_20
REMARK    8  A    between atoms: C_19  and  C_21
REMARK    9  A    between atoms: C_21  and  C_22
REMARK   10  A    between atoms: N_24  and  C_25
REMARK                            x       y       z     vdW  Elec       q    Type
REMARK                         _______ _______ _______ _____ _____    ______ ____
ROOT
ATOM      1  C   UNL     1      48.472   7.934  13.361  0.00  0.00    +0.000 A 
ATOM      2  C   UNL     1      47.783   8.735  14.278  0.00  0.00    +0.000 A 
ATOM      3  C   UNL     1      48.072   8.659  15.644  0.00  0.00    +0.000 A 
ATOM      4  C   UNL     1      49.062   7.787  16.125  0.00  0.00    +0.000 A 
ATOM      5  C   UNL     1      49.722   6.960  15.202  0.00  0.00    +0.000 A 
ATOM      6  C   UNL     1      49.426   7.029  13.837  0.00  0.00    +0.000 A 
ENDROOT
BRANCH   1   7
ATOM      7  C   UNL     1      48.275   8.111  11.881  0.00  0.00    +0.000 C 
BRANCH   7  10
ATOM      8  C   UNL     1      46.225   6.912  11.283  0.00  0.00    +0.000 C 
ATOM      9  O   UNL     1      45.533   7.860  11.646  0.00  0.00    +0.000 OA
ATOM     10  N   UNL     1      47.592   6.965  11.321  0.00  0.00    +0.000 N 
ATOM     11  H   UNL     1      48.138   6.148  11.080  0.00  0.00    +0.000 HD
BRANCH   8  19
ATOM     12  C   UNL     1      44.551   4.305  12.726  0.00  0.00    +0.000 A 
ATOM     13  N   UNL     1      43.818   3.208  13.013  0.00  0.00    +0.000 NA
ATOM     14  C   UNL     1      43.445   2.414  12.004  0.00  0.00    +0.000 A 
ATOM     15  N   UNL     1      43.726   2.573  10.713  0.00  0.00    +0.000 NA
ATOM     16  C   UNL     1      44.449   3.679  10.468  0.00  0.00    +0.000 A 
ATOM     17  S   UNL     1      44.890   4.052   8.871  0.00  0.00    +0.000 S 
ATOM     18  C   UNL     1      45.655   5.486   9.367  0.00  0.00    +0.000 A 
ATOM     19  C   UNL     1      45.618   5.692  10.740  0.00  0.00    +0.000 A 
ATOM     20  C   UNL     1      44.903   4.607  11.400  0.00  0.00    +0.000 A 
BRANCH  12  22
ATOM     21  C   UNL     1      46.277   4.839  14.220  0.00  0.00    +0.000 C 
ATOM     22  O   UNL     1      44.956   5.120  13.766  0.00  0.00    +0.000 OA
ENDBRANCH  12  22
ENDBRANCH   8  19
ENDBRANCH   7  10
ENDBRANCH   1   7
BRANCH   4  23
ATOM     23  C   UNL     1      49.459   7.847  17.597  0.00  0.00    +0.000 C 
BRANCH  23  24
ATOM     24  N   UNL     1      50.126   9.106  17.943  0.00  0.00    +0.000 NA
ATOM     25  H   UNL     1      49.463   9.876  17.884  0.00  0.00    +0.000 HD
ATOM     26  H   UNL     1      50.849   9.294  17.249  0.00  0.00    +0.000 HD
ENDBRANCH  23  24
BRANCH  23  27
ATOM     27  C   UNL     1      48.215   7.594  18.473  0.00  0.00    +0.000 C 
BRANCH  27  28
ATOM     28  C   UNL     1      48.274   6.332  19.357  0.00  0.00    +0.000 C 
ATOM     29  C   UNL     1      49.586   5.522  19.246  0.00  0.00    +0.000 C 
ATOM     30  N   UNL     1      49.711   4.880  17.921  0.00  0.00    +0.000 NA
ATOM     31  C   UNL     1      50.960   4.132  17.813  0.00  0.00    +0.000 C 
ATOM     32  C   UNL     1      48.547   3.988  17.738  0.00  0.00    +0.000 C 
ATOM     33  C   UNL     1      47.234   4.775  17.853  0.00  0.00    +0.000 C 
ATOM     34  O   UNL     1      47.132   5.480  19.097  0.00  0.00    +0.000 OA
ENDBRANCH  27  28
ENDBRANCH  23  27
ENDBRANCH   4  23
TORSDOF 8
ENDMDL
MODEL 8
REMARK VINA RESULT:    -5.908      1.957      3.101
REMARK INTER + INTRA:          -9.767
REMARK INTER:                  -8.495
REMARK INTRA:                  -1.272
REMARK UNBOUND:                -1.269
REMARK  Name = 
REMARK  10 active torsions:
REMARK  status: ('A' for Active; 'I' for Inactive)
REMARK    1  A    between atoms: C_1  and  O_2
REMARK    2  A    between atoms: O_2  and  C_3
REMARK    3  A    between atoms: C_10  and  C_11
REMARK    4  A    between atoms: N_13  and  C_14
REMARK    5  A    between atoms: C_14  and  C_15
REMARK    6  A    between atoms: C_18  and  C_19
REMARK    7  A    between atoms: C_19  and  N_20
REMARK    8  A    between atoms: C_19  and  C_21
REMARK    9  A    between atoms: C_21  and  C_22
REMARK   10  A    between atoms: N_24  and  C_25
REMARK                            x       y       z     vdW  Elec       q    Type
REMARK                         _______ _______ _______ _____ _____    ______ ____
ROOT
ATOM      1  C   UNL     1      49.675   7.934  15.647  0.00  0.00    +0.000 A 
ATOM      2  C   UNL     1      48.992   9.051  15.154  0.00  0.00    +0.000 A 
ATOM      3  C   UNL     1      47.934   8.895  14.253  0.00  0.00    +0.000 A 
ATOM      4  C   UNL     1      47.527   7.619  13.830  0.00  0.00    +0.000 A 
ATOM      5  C   UNL     1      48.241   6.507  14.302  0.00  0.00    +0.000 A 
ATOM      6  C   UNL     1      49.306   6.662  15.195  0.00  0.00    +0.000 A 
ENDROOT
BRANCH   1   7
ATOM      7  C   UNL     1      50.714   8.077  16.724  0.00  0.00    +0.000 C 
BRANCH   7  10
ATOM      8  C   UNL     1      51.402   6.317  18.280  0.00  0.00    +0.000 C 
ATOM      9  O   UNL     1      50.874   6.905  19.221  0.00  0.00    +0.000 OA
ATOM     10  N   UNL     1      51.334   6.801  17.002  0.00  0.00    +0.000 N 
ATOM     11  H   UNL     1      51.834   6.334  16.256  0.00  0.00    +0.000 HD
BRANCH   8  19
ATOM     12  C   UNL     1      50.668   3.114  17.338  0.00  0.00    +0.000 A 
ATOM     13  N   UNL     1      50.661   1.796  17.046  0.00  0.00    +0.000 NA
ATOM     14  C   UNL     1      51.694   1.052  17.454  0.00  0.00    +0.000 A 
ATOM     15  N   UNL     1      52.756   1.464  18.143  0.00  0.00    +0.000 NA
ATOM     16  C   UNL     1      52.729   2.782  18.405  0.00  0.00    +0.000 A 
ATOM     17  S   UNL     1      54.012   3.489  19.265  0.00  0.00    +0.000 S 
ATOM     18  C   UNL     1      53.311   5.031  19.137  0.00  0.00    +0.000 A 
ATOM     19  C   UNL     1      52.090   5.036  18.474  0.00  0.00    +0.000 A 
ATOM     20  C   UNL     1      51.739   3.689  18.043  0.00  0.00    +0.000 A 
BRANCH  12  22
ATOM     21  C   UNL     1      48.524   3.896  17.877  0.00  0.00    +0.000 C 
ATOM     22  O   UNL     1      49.594   3.886  16.936  0.00  0.00    +0.000 OA
ENDBRANCH  12  22
ENDBRANCH   8  19
ENDBRANCH   7  10
ENDBRANCH   1   7
BRANCH   4  23
ATOM     23  C   UNL     1      46.271   7.482  12.976  0.00  0.00    +0.000 C 
BRANCH  23  24
ATOM     24  N   UNL     1      46.121   8.587  12.024  0.00  0.00    +0.000 NA
ATOM     25  H   UNL     1      45.808   9.423  12.512  0.00  0.00    +0.000 HD
ATOM     26  H   UNL     1      45.385   8.348  11.360  0.00  0.00    +0.000 HD
ENDBRANCH  23  24
BRANCH  23  27
ATOM     27  C   UNL     1      46.278   6.110  12.271  0.00  0.00    +0.000 C 
BRANCH  27  28
ATOM     28  C   UNL     1      45.237   5.096  12.785  0.00  0.00    +0.000 C 
ATOM     29  C   UNL     1      45.196   3.759  12.010  0.00  0.00    +0.000 C 
ATOM     30  N   UNL     1      44.677   3.948  10.639  0.00  0.00    +0.000 NA
ATOM     31  C   UNL     1      44.657   2.686   9.904  0.00  0.00    +0.000 C 
ATOM     32  C   UNL     1      43.316   4.514  10.745  0.00  0.00    +0.000 C 
ATOM     33  C   UNL     1      43.337   5.840  11.519  0.00  0.00    +0.000 C 
ATOM     34  O   UNL     1      43.921   5.699  12.821  0.00  0.00    +0.000 OA
ENDBRANCH  27  28
ENDBRANCH  23  27
ENDBRANCH   4  23
TORSDOF 8
ENDMDL
MODEL 9
REMARK VINA RESULT:    -5.856      6.176      7.880
REMARK INTER + INTRA:          -9.693
REMARK INTER:                  -8.295
REMARK INTRA:                  -1.397
REMARK UNBOUND:                -1.269
REMARK  Name = 
REMARK  10 active torsions:
REMARK  status: ('A' for Active; 'I' for Inactive)
REMARK    1  A    between atoms: C_1  and  O_2
REMARK    2  A    between atoms: O_2  and  C_3
REMARK    3  A    between atoms: C_10  and  C_11
REMARK    4  A    between atoms: N_13  and  C_14
REMARK    5  A    between atoms: C_14  and  C_15
REMARK    6  A    between atoms: C_18  and  C_19
REMARK    7  A    between atoms: C_19  and  N_20
REMARK    8  A    between atoms: C_19  and  C_21
REMARK    9  A    between atoms: C_21  and  C_22
REMARK   10  A    between atoms: N_24  and  C_25
REMARK                            x       y       z     vdW  Elec       q    Type
REMARK                         _______ _______ _______ _____ _____    ______ ____
ROOT
ATOM      1  C   UNL     1      50.009   9.294  11.803  0.00  0.00    +0.000 A 
ATOM      2  C   UNL     1      49.761   7.921  11.700  0.00  0.00    +0.000 A 
ATOM      3  C   UNL     1      48.532   7.390  12.103  0.00  0.00    +0.000 A 
ATOM      4  C   UNL     1      47.518   8.220  12.610  0.00  0.00    +0.000 A 
ATOM      5  C   UNL     1      47.789   9.591  12.744  0.00  0.00    +0.000 A 
ATOM      6  C   UNL     1      49.022  10.120  12.351  0.00  0.00    +0.000 A 
ENDROOT
BRANCH   1   7
ATOM      7  C   UNL     1      51.267   9.896  11.239  0.00  0.00    +0.000 C 
BRANCH   7  10
ATOM      8  C   UNL     1      52.743   9.622   9.305  0.00  0.00    +0.000 C 
ATOM      9  O   UNL     1      53.455  10.548   9.684  0.00  0.00    +0.000 OA
ATOM     10  N   UNL     1      51.664   9.201  10.035  0.00  0.00    +0.000 N 
ATOM     11  H   UNL     1      51.054   8.481   9.669  0.00  0.00    +0.000 HD
BRANCH   8  19
ATOM     12  C   UNL     1      53.351   6.321   8.657  0.00  0.00    +0.000 A 
ATOM     13  N   UNL     1      53.557   5.102   8.115  0.00  0.00    +0.000 NA
ATOM     14  C   UNL     1      53.708   5.014   6.790  0.00  0.00    +0.000 A 
ATOM     15  N   UNL     1      53.692   6.016   5.914  0.00  0.00    +0.000 NA
ATOM     16  C   UNL     1      53.477   7.211   6.490  0.00  0.00    +0.000 A 
ATOM     17  S   UNL     1      53.409   8.606   5.524  0.00  0.00    +0.000 S 
ATOM     18  C   UNL     1      53.080   9.584   6.874  0.00  0.00    +0.000 A 
ATOM     19  C   UNL     1      53.045   8.885   8.074  0.00  0.00    +0.000 A 
ATOM     20  C   UNL     1      53.290   7.467   7.845  0.00  0.00    +0.000 A 
BRANCH  12  22
ATOM     21  C   UNL     1      54.449   6.631  10.705  0.00  0.00    +0.000 C 
ATOM     22  O   UNL     1      53.213   6.421  10.029  0.00  0.00    +0.000 OA
ENDBRANCH  12  22
ENDBRANCH   8  19
ENDBRANCH   7  10
ENDBRANCH   1   7
BRANCH   4  23
ATOM     23  C   UNL     1      46.140   7.628  12.888  0.00  0.00    +0.000 C 
BRANCH  23  24
ATOM     24  N   UNL     1      45.058   8.573  12.595  0.00  0.00    +0.000 NA
ATOM     25  H   UNL     1      44.318   8.476  13.286  0.00  0.00    +0.000 HD
ATOM     26  H   UNL     1      44.646   8.329  11.695  0.00  0.00    +0.000 HD
ENDBRANCH  23  24
BRANCH  23  27
ATOM     27  C   UNL     1      45.981   6.309  12.105  0.00  0.00    +0.000 C 
BRANCH  27  28
ATOM     28  C   UNL     1      45.285   5.165  12.868  0.00  0.00    +0.000 C 
ATOM     29  C   UNL     1      45.202   3.826  12.098  0.00  0.00    +0.000 C 
ATOM     30  N   UNL     1      44.283   3.926  10.946  0.00  0.00    +0.000 NA
ATOM     31  C   UNL     1      44.222   2.667  10.210  0.00  0.00    +0.000 C 
ATOM     32  C   UNL     1      42.949   4.298  11.461  0.00  0.00    +0.000 C 
ATOM     33  C   UNL     1      43.014   5.622  12.235  0.00  0.00    +0.000 C 
ATOM     34  O   UNL     1      43.967   5.578  13.305  0.00  0.00    +0.000 OA
ENDBRANCH  27  28
ENDBRANCH  23  27
ENDBRANCH   4  23
TORSDOF 8
ENDMDL
