MODEL 1
REMARK VINA RESULT:    -8.065      0.000      0.000
REMARK INTER + INTRA:         -11.366
REMARK INTER:                 -10.658
REMARK INTRA:                  -0.707
REMARK UNBOUND:                -0.707
REMARK  Name = 
REMARK  8 active torsions:
REMARK  status: ('A' for Active; 'I' for Inactive)
REMARK    1  A    between atoms: C_1  and  C_2
REMARK    2  A    between atoms: C_5  and  N_6
REMARK    3  A    between atoms: C_9  and  O_10
REMARK    4  A    between atoms: C_11  and  C_12
REMARK    5  A    between atoms: C_15  and  C_16
REMARK    6  A    between atoms: C_16  and  O_17
REMARK    7  A    between atoms: O_17  and  C_18
REMARK    8  A    between atoms: C_21  and  C_22
REMARK                            x       y       z     vdW  Elec       q    Type
REMARK                         _______ _______ _______ _____ _____    ______ ____
ROOT
ATOM      1  C   UNL     1      43.842   2.891  12.709  0.00  0.00    +0.000 C 
ATOM      2  C   UNL     1      44.785   4.060  12.708  0.00  0.00    +0.000 A 
ATOM      3  C   UNL     1      45.795   4.107  13.676  0.00  0.00    +0.000 A 
ATOM      4  C   UNL     1      46.710   5.164  13.715  0.00  0.00    +0.000 A 
ATOM      5  C   UNL     1      46.656   6.220  12.798  0.00  0.00    +0.000 A 
ATOM      6  C   UNL     1      45.625   6.168  11.847  0.00  0.00    +0.000 A 
ATOM      7  C   UNL     1      44.699   5.102  11.768  0.00  0.00    +0.000 A 
ENDROOT
BRANCH   5   8
ATOM      8  N   UNL     1      47.590   7.241  12.802  0.00  0.00    +0.000 N 
ATOM      9  C   UNL     1      47.235   8.606  13.193  0.00  0.00    +0.000 C 
ATOM     10  C   UNL     1      47.680   9.579  12.105  0.00  0.00    +0.000 C 
ATOM     11  C   UNL     1      49.157   9.394  11.750  0.00  0.00    +0.000 C 
ATOM     12  C   UNL     1      49.466   7.930  11.399  0.00  0.00    +0.000 C 
ATOM     13  C   UNL     1      50.945   7.715  11.080  0.00  0.00    +0.000 C 
ATOM     14  C   UNL     1      49.005   6.984  12.516  0.00  0.00    +0.000 C 
BRANCH  11  15
ATOM     15  O   UNL     1      49.984   9.873  12.810  0.00  0.00    +0.000 OA
ATOM     16  H   UNL     1      49.455   9.933  13.622  0.00  0.00    +0.000 HD
ENDBRANCH  11  15
ENDBRANCH   5   8
BRANCH   7  17
ATOM     17  C   UNL     1      43.665   5.134  10.660  0.00  0.00    +0.000 C 
BRANCH  17  18
ATOM     18  O   UNL     1      43.572   3.846  10.054  0.00  0.00    +0.000 OA
BRANCH  18  19
ATOM     19  C   UNL     1      44.558   3.493   9.172  0.00  0.00    +0.000 A 
ATOM     20  C   UNL     1      45.232   4.347   8.297  0.00  0.00    +0.000 A 
ATOM     21  C   UNL     1      46.231   3.846   7.449  0.00  0.00    +0.000 A 
ATOM     22  C   UNL     1      46.564   2.487   7.469  0.00  0.00    +0.000 A 
ATOM     23  C   UNL     1      45.888   1.630   8.340  0.00  0.00    +0.000 A 
ATOM     24  C   UNL     1      44.890   2.133   9.183  0.00  0.00    +0.000 A 
BRANCH  22  25
ATOM     25  C   UNL     1      47.588   1.980   6.603  0.00  0.00    +0.000 C 
ATOM     26  N   UNL     1      48.418   1.567   5.902  0.00  0.00    +0.000 NA
ENDBRANCH  22  25
ENDBRANCH  18  19
ENDBRANCH  17  18
ENDBRANCH   7  17
TORSDOF 6
ENDMDL
MODEL 2
REMARK VINA RESULT:    -7.971      2.520      3.710
REMARK INTER + INTRA:         -11.241
REMARK INTER:                 -10.542
REMARK INTRA:                  -0.699
REMARK UNBOUND:                -0.707
REMARK  Name = 
REMARK  8 active torsions:
REMARK  status: ('A' for Active; 'I' for Inactive)
REMARK    1  A    between atoms: C_1  and  C_2
REMARK    2  A    between atoms: C_5  and  N_6
REMARK    3  A    between atoms: C_9  and  O_10
REMARK    4  A    between atoms: C_11  and  C_12
REMARK    5  A    between atoms: C_15  and  C_16
REMARK    6  A    between atoms: C_16  and  O_17
REMARK    7  A    between atoms: O_17  and  C_18
REMARK    8  A    between atoms: C_21  and  C_22
REMARK                            x       y       z     vdW  Elec       q    Type
REMARK                         _______ _______ _______ _____ _____    ______ ____
ROOT
ATOM      1  C   UNL     1      43.055   6.266  11.008  0.00  0.00    +0.000 C 
ATOM      2  C   UNL     1      44.180   5.854  11.914  0.00  0.00    +0.000 A 
ATOM      3  C   UNL     1      44.965   6.851  12.504  0.00  0.00    +0.000 A 
ATOM      4  C   UNL     1      46.017   6.526  13.367  0.00  0.00    +0.000 A 
ATOM      5  C   UNL     1      46.336   5.199  13.673  0.00  0.00    +0.000 A 
ATOM      6  C   UNL     1      45.552   4.211  13.057  0.00  0.00    +0.000 A 
ATOM      7  C   UNL     1      44.468   4.508  12.198  0.00  0.00    +0.000 A 
ENDROOT
BRANCH   5   8
ATOM      8  N   UNL     1      47.343   4.875  14.566  0.00  0.00    +0.000 N 
ATOM      9  C   UNL     1      47.539   3.504  15.039  0.00  0.00    +0.000 C 
ATOM     10  C   UNL     1      47.579   3.493  16.564  0.00  0.00    +0.000 C 
ATOM     11  C   UNL     1      48.598   4.495  17.111  0.00  0.00    +0.000 C 
ATOM     12  C   UNL     1      48.362   5.900  16.534  0.00  0.00    +0.000 C 
ATOM     13  C   UNL     1      49.395   6.909  17.035  0.00  0.00    +0.000 C 
ATOM     14  C   UNL     1      48.329   5.870  14.999  0.00  0.00    +0.000 C 
BRANCH  11  15
ATOM     15  O   UNL     1      49.927   4.035  16.863  0.00  0.00    +0.000 OA
ATOM     16  H   UNL     1      49.931   3.504  16.050  0.00  0.00    +0.000 HD
ENDBRANCH  11  15
ENDBRANCH   5   8
BRANCH   7  17
ATOM     17  C   UNL     1      43.663   3.352  11.638  0.00  0.00    +0.000 C 
BRANCH  17  18
ATOM     18  O   UNL     1      43.468   3.539  10.237  0.00  0.00    +0.000 OA
BRANCH  18  19
ATOM     19  C   UNL     1      44.446   3.075   9.398  0.00  0.00    +0.000 A 
ATOM     20  C   UNL     1      44.859   1.748   9.261  0.00  0.00    +0.000 A 
ATOM     21  C   UNL     1      45.875   1.415   8.352  0.00  0.00    +0.000 A 
ATOM     22  C   UNL     1      46.485   2.404   7.574  0.00  0.00    +0.000 A 
ATOM     23  C   UNL     1      46.077   3.732   7.714  0.00  0.00    +0.000 A 
ATOM     24  C   UNL     1      45.065   4.061   8.623  0.00  0.00    +0.000 A 
BRANCH  22  25
ATOM     25  C   UNL     1      47.520   2.057   6.645  0.00  0.00    +0.000 C 
ATOM     26  N   UNL     1      48.359   1.774   5.891  0.00  0.00    +0.000 NA
ENDBRANCH  22  25
ENDBRANCH  18  19
ENDBRANCH  17  18
ENDBRANCH   7  17
TORSDOF 6
ENDMDL
MODEL 3
REMARK VINA RESULT:    -7.757      1.235      1.828
REMARK INTER + INTRA:         -10.958
REMARK INTER:                 -10.095
REMARK INTRA:                  -0.862
REMARK UNBOUND:                -0.707
REMARK  Name = 
REMARK  8 active torsions:
REMARK  status: ('A' for Active; 'I' for Inactive)
REMARK    1  A    between atoms: C_1  and  C_2
REMARK    2  A    between atoms: C_5  and  N_6
REMARK    3  A    between atoms: C_9  and  O_10
REMARK    4  A    between atoms: C_11  and  C_12
REMARK    5  A    between atoms: C_15  and  C_16
REMARK    6  A    between atoms: C_16  and  O_17
REMARK    7  A    between atoms: O_17  and  C_18
REMARK    8  A    between atoms: C_21  and  C_22
REMARK                            x       y       z     vdW  Elec       q    Type
REMARK                         _______ _______ _______ _____ _____    ______ ____
ROOT
ATOM      1  C   UNL     1      42.284   5.555  11.742  0.00  0.00    +0.000 C 
ATOM      2  C   UNL     1      43.735   5.860  11.983  0.00  0.00    +0.000 A 
ATOM      3  C   UNL     1      44.102   7.177  12.285  0.00  0.00    +0.000 A 
ATOM      4  C   UNL     1      45.435   7.516  12.533  0.00  0.00    +0.000 A 
ATOM      5  C   UNL     1      46.460   6.565  12.485  0.00  0.00    +0.000 A 
ATOM      6  C   UNL     1      46.078   5.253  12.160  0.00  0.00    +0.000 A 
ATOM      7  C   UNL     1      44.735   4.874  11.927  0.00  0.00    +0.000 A 
ENDROOT
BRANCH   5   8
ATOM      8  N   UNL     1      47.773   6.887  12.779  0.00  0.00    +0.000 N 
ATOM      9  C   UNL     1      48.397   6.490  14.041  0.00  0.00    +0.000 C 
ATOM     10  C   UNL     1      49.017   7.715  14.710  0.00  0.00    +0.000 C 
ATOM     11  C   UNL     1      49.951   8.466  13.759  0.00  0.00    +0.000 C 
ATOM     12  C   UNL     1      49.245   8.805  12.436  0.00  0.00    +0.000 C 
ATOM     13  C   UNL     1      50.173   9.520  11.455  0.00  0.00    +0.000 C 
ATOM     14  C   UNL     1      48.636   7.550  11.796  0.00  0.00    +0.000 C 
BRANCH  11  15
ATOM     15  O   UNL     1      51.148   7.716  13.546  0.00  0.00    +0.000 OA
ATOM     16  H   UNL     1      50.929   6.903  13.061  0.00  0.00    +0.000 HD
ENDBRANCH  11  15
ENDBRANCH   5   8
BRANCH   7  17
ATOM     17  C   UNL     1      44.445   3.414  11.640  0.00  0.00    +0.000 C 
BRANCH  17  18
ATOM     18  O   UNL     1      43.939   3.279  10.313  0.00  0.00    +0.000 OA
BRANCH  18  19
ATOM     19  C   UNL     1      44.851   3.100   9.307  0.00  0.00    +0.000 A 
ATOM     20  C   UNL     1      45.379   4.094   8.481  0.00  0.00    +0.000 A 
ATOM     21  C   UNL     1      46.316   3.765   7.490  0.00  0.00    +0.000 A 
ATOM     22  C   UNL     1      46.732   2.441   7.317  0.00  0.00    +0.000 A 
ATOM     23  C   UNL     1      46.201   1.444   8.138  0.00  0.00    +0.000 A 
ATOM     24  C   UNL     1      45.265   1.776   9.125  0.00  0.00    +0.000 A 
BRANCH  22  25
ATOM     25  C   UNL     1      47.692   2.110   6.305  0.00  0.00    +0.000 C 
ATOM     26  N   UNL     1      48.470   1.839   5.485  0.00  0.00    +0.000 NA
ENDBRANCH  22  25
ENDBRANCH  18  19
ENDBRANCH  17  18
ENDBRANCH   7  17
TORSDOF 6
ENDMDL
MODEL 4
REMARK VINA RESULT:    -6.910      3.953      7.842
REMARK INTER + INTRA:          -9.840
REMARK INTER:                  -8.851
REMARK INTRA:                  -0.988
REMARK UNBOUND:                -0.707
REMARK  Name = 
REMARK  8 active torsions:
REMARK  status: ('A' for Active; 'I' for Inactive)
REMARK    1  A    between atoms: C_1  and  C_2
REMARK    2  A    between atoms: C_5  and  N_6
REMARK    3  A    between atoms: C_9  and  O_10
REMARK    4  A    between atoms: C_11  and  C_12
REMARK    5  A    between atoms: C_15  and  C_16
REMARK    6  A    between atoms: C_16  and  O_17
REMARK    7  A    between atoms: O_17  and  C_18
REMARK    8  A    between atoms: C_21  and  C_22
REMARK                            x       y       z     vdW  Elec       q    Type
REMARK                         _______ _______ _______ _____ _____    ______ ____
ROOT
ATOM      1  C   UNL     1      50.426   8.130  13.851  0.00  0.00    +0.000 C 
ATOM      2  C   UNL     1      49.156   7.423  13.472  0.00  0.00    +0.000 A 
ATOM      3  C   UNL     1      48.732   7.476  12.139  0.00  0.00    +0.000 A 
ATOM      4  C   UNL     1      47.565   6.825  11.725  0.00  0.00    +0.000 A 
ATOM      5  C   UNL     1      46.769   6.101  12.619  0.00  0.00    +0.000 A 
ATOM      6  C   UNL     1      47.198   6.075  13.955  0.00  0.00    +0.000 A 
ATOM      7  C   UNL     1      48.384   6.703  14.400  0.00  0.00    +0.000 A 
ENDROOT
BRANCH   5   8
ATOM      8  N   UNL     1      45.642   5.413  12.204  0.00  0.00    +0.000 N 
ATOM      9  C   UNL     1      44.813   4.658  13.143  0.00  0.00    +0.000 C 
ATOM     10  C   UNL     1      44.625   3.235  12.625  0.00  0.00    +0.000 C 
ATOM     11  C   UNL     1      44.109   3.221  11.185  0.00  0.00    +0.000 C 
ATOM     12  C   UNL     1      44.998   4.074  10.266  0.00  0.00    +0.000 C 
ATOM     13  C   UNL     1      44.477   4.108   8.830  0.00  0.00    +0.000 C 
ATOM     14  C   UNL     1      45.162   5.496  10.821  0.00  0.00    +0.000 C 
BRANCH  11  15
ATOM     15  O   UNL     1      42.744   3.640  11.144  0.00  0.00    +0.000 OA
ATOM     16  H   UNL     1      42.282   3.288  11.922  0.00  0.00    +0.000 HD
ENDBRANCH  11  15
ENDBRANCH   5   8
BRANCH   7  17
ATOM     17  C   UNL     1      48.768   6.555  15.859  0.00  0.00    +0.000 C 
BRANCH  17  18
ATOM     18  O   UNL     1      48.129   5.402  16.407  0.00  0.00    +0.000 OA
BRANCH  18  19
ATOM     19  C   UNL     1      48.923   4.331  16.718  0.00  0.00    +0.000 A 
ATOM     20  C   UNL     1      48.584   2.983  16.589  0.00  0.00    +0.000 A 
ATOM     21  C   UNL     1      49.505   1.985  16.941  0.00  0.00    +0.000 A 
ATOM     22  C   UNL     1      50.772   2.327  17.426  0.00  0.00    +0.000 A 
ATOM     23  C   UNL     1      51.111   3.675  17.561  0.00  0.00    +0.000 A 
ATOM     24  C   UNL     1      50.189   4.667  17.210  0.00  0.00    +0.000 A 
BRANCH  22  25
ATOM     25  C   UNL     1      51.711   1.304  17.782  0.00  0.00    +0.000 C 
ATOM     26  N   UNL     1      52.472   0.476  18.074  0.00  0.00    +0.000 NA
ENDBRANCH  22  25
ENDBRANCH  18  19
ENDBRANCH  17  18
ENDBRANCH   7  17
TORSDOF 6
ENDMDL
MODEL 5
REMARK VINA RESULT:    -6.258      3.304      8.300
REMARK INTER + INTRA:          -8.977
REMARK INTER:                  -8.006
REMARK INTRA:                  -0.971
REMARK UNBOUND:                -0.707
REMARK  Name = 
REMARK  8 active torsions:
REMARK  status: ('A' for Active; 'I' for Inactive)
REMARK    1  A    between atoms: C_1  and  C_2
REMARK    2  A    between atoms: C_5  and  N_6
REMARK    3  A    between atoms: C_9  and  O_10
REMARK    4  A    between atoms: C_11  and  C_12
REMARK    5  A    between atoms: C_15  and  C_16
REMARK    6  A    between atoms: C_16  and  O_17
REMARK    7  A    between atoms: O_17  and  C_18
REMARK    8  A    between atoms: C_21  and  C_22
REMARK                            x       y       z     vdW  Elec       q    Type
REMARK                         _______ _______ _______ _____ _____    ______ ____
ROOT
ATOM      1  C   UNL     1      48.385  10.318  13.175  0.00  0.00    +0.000 C 
ATOM      2  C   UNL     1      47.547   9.102  12.903  0.00  0.00    +0.000 A 
ATOM      3  C   UNL     1      46.315   9.268  12.259  0.00  0.00    +0.000 A 
ATOM      4  C   UNL     1      45.499   8.170  11.967  0.00  0.00    +0.000 A 
ATOM      5  C   UNL     1      45.869   6.865  12.307  0.00  0.00    +0.000 A 
ATOM      6  C   UNL     1      47.098   6.718  12.971  0.00  0.00    +0.000 A 
ATOM      7  C   UNL     1      47.955   7.805  13.260  0.00  0.00    +0.000 A 
ENDROOT
BRANCH   5   8
ATOM      8  N   UNL     1      45.088   5.772  11.975  0.00  0.00    +0.000 N 
ATOM      9  C   UNL     1      44.661   4.798  12.980  0.00  0.00    +0.000 C 
ATOM     10  C   UNL     1      45.027   3.392  12.515  0.00  0.00    +0.000 C 
ATOM     11  C   UNL     1      44.503   3.108  11.106  0.00  0.00    +0.000 C 
ATOM     12  C   UNL     1      44.948   4.195  10.116  0.00  0.00    +0.000 C 
ATOM     13  C   UNL     1      44.400   3.953   8.710  0.00  0.00    +0.000 C 
ATOM     14  C   UNL     1      44.561   5.594  10.618  0.00  0.00    +0.000 C 
BRANCH  11  15
ATOM     15  O   UNL     1      43.083   2.957  11.128  0.00  0.00    +0.000 OA
ATOM     16  H   UNL     1      42.680   3.683  10.625  0.00  0.00    +0.000 HD
ENDBRANCH  11  15
ENDBRANCH   5   8
BRANCH   7  17
ATOM     17  C   UNL     1      49.282   7.510  13.931  0.00  0.00    +0.000 C 
BRANCH  17  18
ATOM     18  O   UNL     1      49.182   6.295  14.674  0.00  0.00    +0.000 OA
BRANCH  18  19
ATOM     19  C   UNL     1      48.810   6.390  15.988  0.00  0.00    +0.000 A 
ATOM     20  C   UNL     1      48.907   7.524  16.797  0.00  0.00    +0.000 A 
ATOM     21  C   UNL     1      48.479   7.479  18.132  0.00  0.00    +0.000 A 
ATOM     22  C   UNL     1      47.951   6.301  18.669  0.00  0.00    +0.000 A 
ATOM     23  C   UNL     1      47.858   5.163  17.864  0.00  0.00    +0.000 A 
ATOM     24  C   UNL     1      48.288   5.212  16.533  0.00  0.00    +0.000 A 
BRANCH  22  25
ATOM     25  C   UNL     1      47.512   6.260  20.033  0.00  0.00    +0.000 C 
ATOM     26  N   UNL     1      47.154   6.225  21.139  0.00  0.00    +0.000 NA
ENDBRANCH  22  25
ENDBRANCH  18  19
ENDBRANCH  17  18
ENDBRANCH   7  17
TORSDOF 6
ENDMDL
MODEL 6
REMARK VINA RESULT:    -6.204      3.759      6.327
REMARK INTER + INTRA:          -8.905
REMARK INTER:                  -7.873
REMARK INTRA:                  -1.032
REMARK UNBOUND:                -0.707
REMARK  Name = 
REMARK  8 active torsions:
REMARK  status: ('A' for Active; 'I' for Inactive)
REMARK    1  A    between atoms: C_1  and  C_2
REMARK    2  A    between atoms: C_5  and  N_6
REMARK    3  A    between atoms: C_9  and  O_10
REMARK    4  A    between atoms: C_11  and  C_12
REMARK    5  A    between atoms: C_15  and  C_16
REMARK    6  A    between atoms: C_16  and  O_17
REMARK    7  A    between atoms: O_17  and  C_18
REMARK    8  A    between atoms: C_21  and  C_22
REMARK                            x       y       z     vdW  Elec       q    Type
REMARK                         _______ _______ _______ _____ _____    ______ ____
ROOT
ATOM      1  C   UNL     1      49.616  10.253  12.680  0.00  0.00    +0.000 C 
ATOM      2  C   UNL     1      49.603   9.137  13.685  0.00  0.00    +0.000 A 
ATOM      3  C   UNL     1      50.161   9.366  14.948  0.00  0.00    +0.000 A 
ATOM      4  C   UNL     1      50.164   8.368  15.928  0.00  0.00    +0.000 A 
ATOM      5  C   UNL     1      49.620   7.101  15.692  0.00  0.00    +0.000 A 
ATOM      6  C   UNL     1      49.083   6.882  14.414  0.00  0.00    +0.000 A 
ATOM      7  C   UNL     1      49.044   7.877  13.410  0.00  0.00    +0.000 A 
ENDROOT
BRANCH   5   8
ATOM      8  N   UNL     1      49.575   6.128  16.676  0.00  0.00    +0.000 N 
ATOM      9  C   UNL     1      50.752   5.795  17.480  0.00  0.00    +0.000 C 
ATOM     10  C   UNL     1      50.992   4.289  17.431  0.00  0.00    +0.000 C 
ATOM     11  C   UNL     1      49.735   3.503  17.806  0.00  0.00    +0.000 C 
ATOM     12  C   UNL     1      48.530   3.940  16.957  0.00  0.00    +0.000 C 
ATOM     13  C   UNL     1      47.253   3.195  17.344  0.00  0.00    +0.000 C 
ATOM     14  C   UNL     1      48.321   5.459  17.033  0.00  0.00    +0.000 C 
BRANCH  11  15
ATOM     15  O   UNL     1      49.473   3.627  19.204  0.00  0.00    +0.000 OA
ATOM     16  H   UNL     1      50.140   3.121  19.696  0.00  0.00    +0.000 HD
ENDBRANCH  11  15
ENDBRANCH   5   8
BRANCH   7  17
ATOM     17  C   UNL     1      48.387   7.533  12.088  0.00  0.00    +0.000 C 
BRANCH  17  18
ATOM     18  O   UNL     1      46.974   7.703  12.197  0.00  0.00    +0.000 OA
BRANCH  18  19
ATOM     19  C   UNL     1      46.189   6.604  11.973  0.00  0.00    +0.000 A 
ATOM     20  C   UNL     1      45.862   6.058  10.730  0.00  0.00    +0.000 A 
ATOM     21  C   UNL     1      45.048   4.918  10.650  0.00  0.00    +0.000 A 
ATOM     22  C   UNL     1      44.554   4.316  11.811  0.00  0.00    +0.000 A 
ATOM     23  C   UNL     1      44.875   4.862  13.055  0.00  0.00    +0.000 A 
ATOM     24  C   UNL     1      45.686   6.001  13.131  0.00  0.00    +0.000 A 
BRANCH  22  25
ATOM     25  C   UNL     1      43.725   3.149  11.724  0.00  0.00    +0.000 C 
ATOM     26  N   UNL     1      43.050   2.205  11.652  0.00  0.00    +0.000 NA
ENDBRANCH  22  25
ENDBRANCH  18  19
ENDBRANCH  17  18
ENDBRANCH   7  17
TORSDOF 6
ENDMDL
MODEL 7
REMARK VINA RESULT:    -6.138      4.737      7.215
REMARK INTER + INTRA:          -8.819
REMARK INTER:                  -7.760
REMARK INTRA:                  -1.059
REMARK UNBOUND:                -0.707
REMARK  Name = 
REMARK  8 active torsions:
REMARK  status: ('A' for Active; 'I' for Inactive)
REMARK    1  A    between atoms: C_1  and  C_2
REMARK    2  A    between atoms: C_5  and  N_6
REMARK    3  A    between atoms: C_9  and  O_10
REMARK    4  A    between atoms: C_11  and  C_12
REMARK    5  A    between atoms: C_15  and  C_16
REMARK    6  A    between atoms: C_16  and  O_17
REMARK    7  A    between atoms: O_17  and  C_18
REMARK    8  A    between atoms: C_21  and  C_22
REMARK                            x       y       z     vdW  Elec       q    Type
REMARK                         _______ _______ _______ _____ _____    ______ ____
ROOT
ATOM      1  C   UNL     1      48.657  10.245  14.191  0.00  0.00    +0.000 C 
ATOM      2  C   UNL     1      48.679   9.159  15.227  0.00  0.00    +0.000 A 
ATOM      3  C   UNL     1      48.320   9.480  16.542  0.00  0.00    +0.000 A 
ATOM      4  C   UNL     1      48.308   8.506  17.546  0.00  0.00    +0.000 A 
ATOM      5  C   UNL     1      48.659   7.176  17.287  0.00  0.00    +0.000 A 
ATOM      6  C   UNL     1      49.036   6.876  15.969  0.00  0.00    +0.000 A 
ATOM      7  C   UNL     1      49.036   7.833  14.927  0.00  0.00    +0.000 A 
ENDROOT
BRANCH   5   8
ATOM      8  N   UNL     1      48.600   6.200  18.267  0.00  0.00    +0.000 N 
ATOM      9  C   UNL     1      47.327   5.768  18.845  0.00  0.00    +0.000 C 
ATOM     10  C   UNL     1      47.406   5.851  20.367  0.00  0.00    +0.000 C 
ATOM     11  C   UNL     1      48.626   5.104  20.911  0.00  0.00    +0.000 C 
ATOM     12  C   UNL     1      49.918   5.573  20.224  0.00  0.00    +0.000 C 
ATOM     13  C   UNL     1      51.145   4.811  20.724  0.00  0.00    +0.000 C 
ATOM     14  C   UNL     1      49.800   5.475  18.696  0.00  0.00    +0.000 C 
BRANCH  11  15
ATOM     15  O   UNL     1      48.439   3.694  20.787  0.00  0.00    +0.000 OA
ATOM     16  H   UNL     1      48.560   3.440  19.858  0.00  0.00    +0.000 HD
ENDBRANCH  11  15
ENDBRANCH   5   8
BRANCH   7  17
ATOM     17  C   UNL     1      49.411   7.371  13.533  0.00  0.00    +0.000 C 
BRANCH  17  18
ATOM     18  O   UNL     1      48.826   6.095  13.278  0.00  0.00    +0.000 OA
BRANCH  18  19
ATOM     19  C   UNL     1      47.506   6.069  12.914  0.00  0.00    +0.000 A 
ATOM     20  C   UNL     1      46.899   6.866  11.941  0.00  0.00    +0.000 A 
ATOM     21  C   UNL     1      45.531   6.726  11.665  0.00  0.00    +0.000 A 
ATOM     22  C   UNL     1      44.759   5.789  12.359  0.00  0.00    +0.000 A 
ATOM     23  C   UNL     1      45.362   4.994  13.336  0.00  0.00    +0.000 A 
ATOM     24  C   UNL     1      46.727   5.138  13.610  0.00  0.00    +0.000 A 
BRANCH  22  25
ATOM     25  C   UNL     1      43.361   5.648  12.072  0.00  0.00    +0.000 C 
ATOM     26  N   UNL     1      42.228   5.531  11.842  0.00  0.00    +0.000 NA
ENDBRANCH  22  25
ENDBRANCH  18  19
ENDBRANCH  17  18
ENDBRANCH   7  17
TORSDOF 6
ENDMDL
MODEL 8
REMARK VINA RESULT:    -6.019      2.312      7.109
REMARK INTER + INTRA:          -8.661
REMARK INTER:                  -7.678
REMARK INTRA:                  -0.984
REMARK UNBOUND:                -0.707
REMARK  Name = 
REMARK  8 active torsions:
REMARK  status: ('A' for Active; 'I' for Inactive)
REMARK    1  A    between atoms: C_1  and  C_2
REMARK    2  A    between atoms: C_5  and  N_6
REMARK    3  A    between atoms: C_9  and  O_10
REMARK    4  A    between atoms: C_11  and  C_12
REMARK    5  A    between atoms: C_15  and  C_16
REMARK    6  A    between atoms: C_16  and  O_17
REMARK    7  A    between atoms: O_17  and  C_18
REMARK    8  A    between atoms: C_21  and  C_22
REMARK                            x       y       z     vdW  Elec       q    Type
REMARK                         _______ _______ _______ _____ _____    ______ ____
ROOT
ATOM      1  C   UNL     1      43.036   4.912  13.146  0.00  0.00    +0.000 C 
ATOM      2  C   UNL     1      43.688   4.321  11.929  0.00  0.00    +0.000 A 
ATOM      3  C   UNL     1      43.383   3.000  11.580  0.00  0.00    +0.000 A 
ATOM      4  C   UNL     1      43.949   2.403  10.449  0.00  0.00    +0.000 A 
ATOM      5  C   UNL     1      44.846   3.090   9.623  0.00  0.00    +0.000 A 
ATOM      6  C   UNL     1      45.156   4.406   9.999  0.00  0.00    +0.000 A 
ATOM      7  C   UNL     1      44.584   5.045  11.123  0.00  0.00    +0.000 A 
ENDROOT
BRANCH   5   8
ATOM      8  N   UNL     1      45.368   2.519   8.476  0.00  0.00    +0.000 N 
ATOM      9  C   UNL     1      45.677   1.090   8.400  0.00  0.00    +0.000 C 
ATOM     10  C   UNL     1      47.114   0.905   7.923  0.00  0.00    +0.000 C 
ATOM     11  C   UNL     1      47.383   1.672   6.627  0.00  0.00    +0.000 C 
ATOM     12  C   UNL     1      46.989   3.152   6.763  0.00  0.00    +0.000 C 
ATOM     13  C   UNL     1      47.211   3.928   5.466  0.00  0.00    +0.000 C 
ATOM     14  C   UNL     1      45.538   3.296   7.244  0.00  0.00    +0.000 C 
BRANCH  11  15
ATOM     15  O   UNL     1      46.716   1.043   5.532  0.00  0.00    +0.000 OA
ATOM     16  H   UNL     1      46.950   1.506   4.711  0.00  0.00    +0.000 HD
ENDBRANCH  11  15
ENDBRANCH   5   8
BRANCH   7  17
ATOM     17  C   UNL     1      44.958   6.489  11.392  0.00  0.00    +0.000 C 
BRANCH  17  18
ATOM     18  O   UNL     1      46.329   6.699  11.053  0.00  0.00    +0.000 OA
BRANCH  18  19
ATOM     19  C   UNL     1      47.224   6.800  12.084  0.00  0.00    +0.000 A 
ATOM     20  C   UNL     1      47.109   6.204  13.342  0.00  0.00    +0.000 A 
ATOM     21  C   UNL     1      48.112   6.389  14.306  0.00  0.00    +0.000 A 
ATOM     22  C   UNL     1      49.236   7.170  14.020  0.00  0.00    +0.000 A 
ATOM     23  C   UNL     1      49.351   7.771  12.764  0.00  0.00    +0.000 A 
ATOM     24  C   UNL     1      48.347   7.586  11.806  0.00  0.00    +0.000 A 
BRANCH  22  25
ATOM     25  C   UNL     1      50.260   7.353  15.007  0.00  0.00    +0.000 C 
ATOM     26  N   UNL     1      51.088   7.505  15.808  0.00  0.00    +0.000 NA
ENDBRANCH  22  25
ENDBRANCH  18  19
ENDBRANCH  17  18
ENDBRANCH   7  17
TORSDOF 6
ENDMDL
MODEL 9
REMARK VINA RESULT:    -5.856      3.714      5.868
REMARK INTER + INTRA:          -8.446
REMARK INTER:                  -7.516
REMARK INTRA:                  -0.930
REMARK UNBOUND:                -0.707
REMARK  Name = 
REMARK  8 active torsions:
REMARK  status: ('A' for Active; 'I' for Inactive)
REMARK    1  A    between atoms: C_1  and  C_2
REMARK    2  A    between atoms: C_5  and  N_6
REMARK    3  A    between atoms: C_9  and  O_10
REMARK    4  A    between atoms: C_11  and  C_12
REMARK    5  A    between atoms: C_15  and  C_16
REMARK    6  A    between atoms: C_16  and  O_17
REMARK    7  A    between atoms: O_17  and  C_18
REMARK    8  A    between atoms: C_21  and  C_22
REMARK                            x       y       z     vdW  Elec       q    Type
REMARK                         _______ _______ _______ _____ _____    ______ ____
ROOT
ATOM      1  C   UNL     1      49.614   9.284  11.875  0.00  0.00    +0.000 C 
ATOM      2  C   UNL     1      49.359   8.434  13.087  0.00  0.00    +0.000 A 
ATOM      3  C   UNL     1      50.414   8.207  13.979  0.00  0.00    +0.000 A 
ATOM      4  C   UNL     1      50.231   7.435  15.131  0.00  0.00    +0.000 A 
ATOM      5  C   UNL     1      48.997   6.852  15.440  0.00  0.00    +0.000 A 
ATOM      6  C   UNL     1      47.956   7.073  14.524  0.00  0.00    +0.000 A 
ATOM      7  C   UNL     1      48.104   7.867  13.363  0.00  0.00    +0.000 A 
ENDROOT
BRANCH   5   8
ATOM      8  N   UNL     1      48.799   6.131  16.605  0.00  0.00    +0.000 N 
ATOM      9  C   UNL     1      48.425   4.716  16.578  0.00  0.00    +0.000 C 
ATOM     10  C   UNL     1      47.185   4.501  17.441  0.00  0.00    +0.000 C 
ATOM     11  C   UNL     1      47.369   5.072  18.848  0.00  0.00    +0.000 C 
ATOM     12  C   UNL     1      47.810   6.544  18.798  0.00  0.00    +0.000 C 
ATOM     13  C   UNL     1      48.039   7.123  20.194  0.00  0.00    +0.000 C 
ATOM     14  C   UNL     1      49.058   6.719  17.922  0.00  0.00    +0.000 C 
BRANCH  11  15
ATOM     15  O   UNL     1      48.285   4.268  19.593  0.00  0.00    +0.000 OA
ATOM     16  H   UNL     1      48.870   3.800  18.974  0.00  0.00    +0.000 HD
ENDBRANCH  11  15
ENDBRANCH   5   8
BRANCH   7  17
ATOM     17  C   UNL     1      46.888   8.076  12.482  0.00  0.00    +0.000 C 
BRANCH  17  18
ATOM     18  O   UNL     1      45.798   7.298  12.977  0.00  0.00    +0.000 OA
BRANCH  18  19
ATOM     19  C   UNL     1      45.484   6.151  12.298  0.00  0.00    +0.000 A 
ATOM     20  C   UNL     1      44.957   4.981  12.848  0.00  0.00    +0.000 A 
ATOM     21  C   UNL     1      44.676   3.878  12.027  0.00  0.00    +0.000 A 
ATOM     22  C   UNL     1      44.919   3.938  10.651  0.00  0.00    +0.000 A 
ATOM     23  C   UNL     1      45.451   5.105  10.099  0.00  0.00    +0.000 A 
ATOM     24  C   UNL     1      45.733   6.202  10.922  0.00  0.00    +0.000 A 
BRANCH  22  25
ATOM     25  C   UNL     1      44.627   2.809   9.815  0.00  0.00    +0.000 C 
ATOM     26  N   UNL     1      44.393   1.893   9.139  0.00  0.00    +0.000 NA
ENDBRANCH  22  25
ENDBRANCH  18  19
ENDBRANCH  17  18
ENDBRANCH   7  17
TORSDOF 6
ENDMDL
