MODEL 1
REMARK VINA RESULT:    -7.516      0.000      0.000
REMARK INTER + INTRA:         -10.818
REMARK INTER:                 -10.152
REMARK INTRA:                  -0.665
REMARK UNBOUND:                -0.665
REMARK  Name = 
REMARK  7 active torsions:
REMARK  status: ('A' for Active; 'I' for Inactive)
REMARK    1  A    between atoms: C_1  and  C_2
REMARK    2  A    between atoms: C_2  and  C_3
REMARK    3  A    between atoms: C_2  and  C_14
REMARK    4  A    between atoms: C_3  and  N_4
REMARK    5  A    between atoms: N_4  and  C_5
REMARK    6  A    between atoms: C_8  and  C_9
REMARK    7  A    between atoms: C_18  and  C_19
REMARK                            x       y       z     vdW  Elec       q    Type
REMARK                         _______ _______ _______ _____ _____    ______ ____
ROOT
ATOM      1  N   UNL     1      43.681   3.537  10.266  0.00  0.00    +0.000 N 
ATOM      2  H   UNL     1      42.772   3.123  10.059  0.00  0.00    +0.000 HD
ENDROOT
BRANCH   1   3
ATOM      3  C   UNL     1      44.617   3.258   9.264  0.00  0.00    +0.000 A 
ATOM      4  C   UNL     1      45.144   4.206   8.400  0.00  0.00    +0.000 A 
ATOM      5  N   UNL     1      46.070   3.964   7.451  0.00  0.00    +0.000 NA
ATOM      6  C   UNL     1      46.522   2.691   7.402  0.00  0.00    +0.000 A 
ATOM      7  N   UNL     1      46.144   1.688   8.215  0.00  0.00    +0.000 NA
ATOM      8  C   UNL     1      45.213   2.011   9.139  0.00  0.00    +0.000 A 
BRANCH   6   9
ATOM      9  C   UNL     1      47.539   2.401   6.324  0.00  0.00    +0.000 C 
ATOM     10  N   UNL     1      47.409   3.159   5.180  0.00  0.00    +0.000 N 
ATOM     11  O   UNL     1      48.427   1.564   6.419  0.00  0.00    +0.000 OA
ATOM     12  H   UNL     1      46.675   3.853   5.114  0.00  0.00    +0.000 HD
ATOM     13  H   UNL     1      48.061   3.020   4.422  0.00  0.00    +0.000 HD
ENDBRANCH   6   9
ENDBRANCH   1   3
BRANCH   1  14
ATOM     14  C   UNL     1      43.553   4.938  10.662  0.00  0.00    +0.000 C 
BRANCH  14  16
ATOM     15  C   UNL     1      42.972   5.027  13.164  0.00  0.00    +0.000 C 
ATOM     16  C   UNL     1      44.006   5.047  12.082  0.00  0.00    +0.000 C 
BRANCH  16  17
ATOM     17  C   UNL     1      45.343   5.586  12.353  0.00  0.00    +0.000 A 
ATOM     18  C   UNL     1      45.987   6.368  11.389  0.00  0.00    +0.000 A 
ATOM     19  C   UNL     1      47.286   6.830  11.597  0.00  0.00    +0.000 A 
ATOM     20  C   UNL     1      47.948   6.527  12.785  0.00  0.00    +0.000 A 
ATOM     21  C   UNL     1      47.308   5.767  13.768  0.00  0.00    +0.000 A 
ATOM     22  C   UNL     1      46.009   5.294  13.551  0.00  0.00    +0.000 A 
BRANCH  21  23
ATOM     23  C   UNL     1      47.987   5.461  14.994  0.00  0.00    +0.000 C 
ATOM     24  N   UNL     1      48.540   5.207  15.983  0.00  0.00    +0.000 NA
ENDBRANCH  21  23
ENDBRANCH  16  17
ENDBRANCH  14  16
ENDBRANCH   1  14
TORSDOF 6
ENDMDL
MODEL 2
REMARK VINA RESULT:    -7.443      2.867      6.212
REMARK INTER + INTRA:         -10.719
REMARK INTER:                  -9.963
REMARK INTRA:                  -0.756
REMARK UNBOUND:                -0.665
REMARK  Name = 
REMARK  7 active torsions:
REMARK  status: ('A' for Active; 'I' for Inactive)
REMARK    1  A    between atoms: C_1  and  C_2
REMARK    2  A    between atoms: C_2  and  C_3
REMARK    3  A    between atoms: C_2  and  C_14
REMARK    4  A    between atoms: C_3  and  N_4
REMARK    5  A    between atoms: N_4  and  C_5
REMARK    6  A    between atoms: C_8  and  C_9
REMARK    7  A    between atoms: C_18  and  C_19
REMARK                            x       y       z     vdW  Elec       q    Type
REMARK                         _______ _______ _______ _____ _____    ______ ____
ROOT
ATOM      1  N   UNL     1      43.679   5.259  12.634  0.00  0.00    +0.000 N 
ATOM      2  H   UNL     1      43.414   4.451  13.197  0.00  0.00    +0.000 HD
ENDROOT
BRANCH   1   3
ATOM      3  C   UNL     1      45.003   5.645  12.871  0.00  0.00    +0.000 A 
ATOM      4  C   UNL     1      45.934   4.873  13.550  0.00  0.00    +0.000 A 
ATOM      5  N   UNL     1      47.221   5.213  13.759  0.00  0.00    +0.000 NA
ATOM      6  C   UNL     1      47.601   6.388  13.210  0.00  0.00    +0.000 A 
ATOM      7  N   UNL     1      46.822   7.205  12.477  0.00  0.00    +0.000 NA
ATOM      8  C   UNL     1      45.546   6.795  12.313  0.00  0.00    +0.000 A 
BRANCH   6   9
ATOM      9  C   UNL     1      49.035   6.792  13.461  0.00  0.00    +0.000 C 
ATOM     10  N   UNL     1      49.732   7.193  12.343  0.00  0.00    +0.000 N 
ATOM     11  O   UNL     1      49.573   6.776  14.560  0.00  0.00    +0.000 OA
ATOM     12  H   UNL     1      49.275   7.208  11.440  0.00  0.00    +0.000 HD
ATOM     13  H   UNL     1      50.695   7.482  12.442  0.00  0.00    +0.000 HD
ENDBRANCH   6   9
ENDBRANCH   1   3
BRANCH   1  14
ATOM     14  C   UNL     1      43.295   5.085  11.235  0.00  0.00    +0.000 C 
BRANCH  14  16
ATOM     15  C   UNL     1      43.388   2.576  11.783  0.00  0.00    +0.000 C 
ATOM     16  C   UNL     1      43.674   3.696  10.833  0.00  0.00    +0.000 C 
BRANCH  16  17
ATOM     17  C   UNL     1      44.662   3.519   9.764  0.00  0.00    +0.000 A 
ATOM     18  C   UNL     1      45.155   4.636   9.080  0.00  0.00    +0.000 A 
ATOM     19  C   UNL     1      46.041   4.485   8.015  0.00  0.00    +0.000 A 
ATOM     20  C   UNL     1      46.457   3.211   7.633  0.00  0.00    +0.000 A 
ATOM     21  C   UNL     1      45.992   2.088   8.322  0.00  0.00    +0.000 A 
ATOM     22  C   UNL     1      45.093   2.242   9.384  0.00  0.00    +0.000 A 
BRANCH  21  23
ATOM     23  C   UNL     1      46.426   0.778   7.934  0.00  0.00    +0.000 C 
ATOM     24  N   UNL     1      46.785  -0.283   7.623  0.00  0.00    +0.000 NA
ENDBRANCH  21  23
ENDBRANCH  16  17
ENDBRANCH  14  16
ENDBRANCH   1  14
TORSDOF 6
ENDMDL
MODEL 3
REMARK VINA RESULT:    -7.421      2.245      3.103
REMARK INTER + INTRA:         -10.690
REMARK INTER:                 -10.178
REMARK INTRA:                  -0.512
REMARK UNBOUND:                -0.665
REMARK  Name = 
REMARK  7 active torsions:
REMARK  status: ('A' for Active; 'I' for Inactive)
REMARK    1  A    between atoms: C_1  and  C_2
REMARK    2  A    between atoms: C_2  and  C_3
REMARK    3  A    between atoms: C_2  and  C_14
REMARK    4  A    between atoms: C_3  and  N_4
REMARK    5  A    between atoms: N_4  and  C_5
REMARK    6  A    between atoms: C_8  and  C_9
REMARK    7  A    between atoms: C_18  and  C_19
REMARK                            x       y       z     vdW  Elec       q    Type
REMARK                         _______ _______ _______ _____ _____    ______ ____
ROOT
ATOM      1  N   UNL     1      43.864   4.950   9.880  0.00  0.00    +0.000 N 
ATOM      2  H   UNL     1      44.094   5.890   9.561  0.00  0.00    +0.000 HD
ENDROOT
BRANCH   1   3
ATOM      3  C   UNL     1      44.680   3.985   9.280  0.00  0.00    +0.000 A 
ATOM      4  C   UNL     1      44.521   2.616   9.440  0.00  0.00    +0.000 A 
ATOM      5  N   UNL     1      45.275   1.671   8.845  0.00  0.00    +0.000 NA
ATOM      6  C   UNL     1      46.223   2.139   8.003  0.00  0.00    +0.000 A 
ATOM      7  N   UNL     1      46.447   3.433   7.708  0.00  0.00    +0.000 NA
ATOM      8  C   UNL     1      45.650   4.318   8.344  0.00  0.00    +0.000 A 
BRANCH   6   9
ATOM      9  C   UNL     1      47.093   1.090   7.352  0.00  0.00    +0.000 C 
ATOM     10  N   UNL     1      46.790  -0.211   7.690  0.00  0.00    +0.000 N 
ATOM     11  O   UNL     1      48.010   1.336   6.579  0.00  0.00    +0.000 OA
ATOM     12  H   UNL     1      46.025  -0.403   8.326  0.00  0.00    +0.000 HD
ATOM     13  H   UNL     1      47.329  -0.962   7.286  0.00  0.00    +0.000 HD
ENDBRANCH   6   9
ENDBRANCH   1   3
BRANCH   1  14
ATOM     14  C   UNL     1      43.754   4.891  11.336  0.00  0.00    +0.000 C 
BRANCH  14  16
ATOM     15  C   UNL     1      45.672   3.948  12.763  0.00  0.00    +0.000 C 
ATOM     16  C   UNL     1      45.130   5.043  11.899  0.00  0.00    +0.000 C 
BRANCH  16  17
ATOM     17  C   UNL     1      45.723   6.383  11.952  0.00  0.00    +0.000 A 
ATOM     18  C   UNL     1      47.108   6.526  12.087  0.00  0.00    +0.000 A 
ATOM     19  C   UNL     1      47.685   7.789  12.211  0.00  0.00    +0.000 A 
ATOM     20  C   UNL     1      46.880   8.926  12.184  0.00  0.00    +0.000 A 
ATOM     21  C   UNL     1      45.497   8.800  12.026  0.00  0.00    +0.000 A 
ATOM     22  C   UNL     1      44.919   7.530  11.914  0.00  0.00    +0.000 A 
BRANCH  21  23
ATOM     23  C   UNL     1      44.670   9.970  11.991  0.00  0.00    +0.000 C 
ATOM     24  N   UNL     1      43.997  10.917  11.955  0.00  0.00    +0.000 NA
ENDBRANCH  21  23
ENDBRANCH  16  17
ENDBRANCH  14  16
ENDBRANCH   1  14
TORSDOF 6
ENDMDL
MODEL 4
REMARK VINA RESULT:    -6.913      2.758      7.052
REMARK INTER + INTRA:         -10.004
REMARK INTER:                  -9.424
REMARK INTRA:                  -0.580
REMARK UNBOUND:                -0.665
REMARK  Name = 
REMARK  7 active torsions:
REMARK  status: ('A' for Active; 'I' for Inactive)
REMARK    1  A    between atoms: C_1  and  C_2
REMARK    2  A    between atoms: C_2  and  C_3
REMARK    3  A    between atoms: C_2  and  C_14
REMARK    4  A    between atoms: C_3  and  N_4
REMARK    5  A    between atoms: N_4  and  C_5
REMARK    6  A    between atoms: C_8  and  C_9
REMARK    7  A    between atoms: C_18  and  C_19
REMARK                            x       y       z     vdW  Elec       q    Type
REMARK                         _______ _______ _______ _____ _____    ______ ____
ROOT
ATOM      1  N   UNL     1      46.560   6.641  13.024  0.00  0.00    +0.000 N 
ATOM      2  H   UNL     1      45.594   6.906  13.213  0.00  0.00    +0.000 HD
ENDROOT
BRANCH   1   3
ATOM      3  C   UNL     1      46.999   5.630  13.886  0.00  0.00    +0.000 A 
ATOM      4  C   UNL     1      46.789   4.275  13.674  0.00  0.00    +0.000 A 
ATOM      5  N   UNL     1      47.232   3.285  14.474  0.00  0.00    +0.000 NA
ATOM      6  C   UNL     1      47.969   3.689  15.533  0.00  0.00    +0.000 A 
ATOM      7  N   UNL     1      48.300   4.961  15.824  0.00  0.00    +0.000 NA
ATOM      8  C   UNL     1      47.818   5.894  14.975  0.00  0.00    +0.000 A 
BRANCH   6   9
ATOM      9  C   UNL     1      48.447   2.590  16.452  0.00  0.00    +0.000 C 
ATOM     10  N   UNL     1      47.857   2.573  17.697  0.00  0.00    +0.000 N 
ATOM     11  O   UNL     1      49.294   1.760  16.152  0.00  0.00    +0.000 OA
ATOM     12  H   UNL     1      47.153   3.262  17.932  0.00  0.00    +0.000 HD
ATOM     13  H   UNL     1      48.127   1.860  18.359  0.00  0.00    +0.000 HD
ENDBRANCH   6   9
ENDBRANCH   1   3
BRANCH   1  14
ATOM     14  C   UNL     1      46.784   6.418  11.597  0.00  0.00    +0.000 C 
BRANCH  14  16
ATOM     15  C   UNL     1      44.311   7.097  11.426  0.00  0.00    +0.000 C 
ATOM     16  C   UNL     1      45.447   6.245  10.953  0.00  0.00    +0.000 C 
BRANCH  16  17
ATOM     17  C   UNL     1      45.178   5.007  10.214  0.00  0.00    +0.000 A 
ATOM     18  C   UNL     1      44.379   4.013  10.789  0.00  0.00    +0.000 A 
ATOM     19  C   UNL     1      44.169   2.800  10.135  0.00  0.00    +0.000 A 
ATOM     20  C   UNL     1      44.746   2.576   8.886  0.00  0.00    +0.000 A 
ATOM     21  C   UNL     1      45.527   3.569   8.288  0.00  0.00    +0.000 A 
ATOM     22  C   UNL     1      45.745   4.781   8.953  0.00  0.00    +0.000 A 
BRANCH  21  23
ATOM     23  C   UNL     1      46.114   3.342   7.000  0.00  0.00    +0.000 C 
ATOM     24  N   UNL     1      46.593   3.150   5.959  0.00  0.00    +0.000 NA
ENDBRANCH  21  23
ENDBRANCH  16  17
ENDBRANCH  14  16
ENDBRANCH   1  14
TORSDOF 6
ENDMDL
MODEL 5
REMARK VINA RESULT:    -6.253      3.079      6.883
REMARK INTER + INTRA:          -9.112
REMARK INTER:                  -8.485
REMARK INTRA:                  -0.626
REMARK UNBOUND:                -0.665
REMARK  Name = 
REMARK  7 active torsions:
REMARK  status: ('A' for Active; 'I' for Inactive)
REMARK    1  A    between atoms: C_1  and  C_2
REMARK    2  A    between atoms: C_2  and  C_3
REMARK    3  A    between atoms: C_2  and  C_14
REMARK    4  A    between atoms: C_3  and  N_4
REMARK    5  A    between atoms: N_4  and  C_5
REMARK    6  A    between atoms: C_8  and  C_9
REMARK    7  A    between atoms: C_18  and  C_19
REMARK                            x       y       z     vdW  Elec       q    Type
REMARK                         _______ _______ _______ _____ _____    ______ ____
ROOT
ATOM      1  N   UNL     1      47.287   6.398  12.637  0.00  0.00    +0.000 N 
ATOM      2  H   UNL     1      48.154   6.769  12.248  0.00  0.00    +0.000 HD
ENDROOT
BRANCH   1   3
ATOM      3  C   UNL     1      47.529   5.529  13.706  0.00  0.00    +0.000 A 
ATOM      4  C   UNL     1      48.037   5.922  14.935  0.00  0.00    +0.000 A 
ATOM      5  N   UNL     1      48.245   5.107  15.988  0.00  0.00    +0.000 NA
ATOM      6  C   UNL     1      47.876   3.820  15.799  0.00  0.00    +0.000 A 
ATOM      7  N   UNL     1      47.315   3.316  14.684  0.00  0.00    +0.000 NA
ATOM      8  C   UNL     1      47.140   4.197  13.675  0.00  0.00    +0.000 A 
BRANCH   6   9
ATOM      9  C   UNL     1      48.130   2.891  16.962  0.00  0.00    +0.000 C 
ATOM     10  N   UNL     1      47.150   2.887  17.930  0.00  0.00    +0.000 N 
ATOM     11  O   UNL     1      49.121   2.181  17.074  0.00  0.00    +0.000 OA
ATOM     12  H   UNL     1      46.332   3.475  17.825  0.00  0.00    +0.000 HD
ATOM     13  H   UNL     1      47.255   2.284  18.733  0.00  0.00    +0.000 HD
ENDBRANCH   6   9
ENDBRANCH   1   3
BRANCH   1  14
ATOM     14  C   UNL     1      46.310   7.458  12.871  0.00  0.00    +0.000 C 
BRANCH  14  16
ATOM     15  C   UNL     1      44.468   8.459  11.384  0.00  0.00    +0.000 C 
ATOM     16  C   UNL     1      45.184   7.255  11.910  0.00  0.00    +0.000 C 
BRANCH  16  17
ATOM     17  C   UNL     1      44.549   5.935  11.841  0.00  0.00    +0.000 A 
ATOM     18  C   UNL     1      43.699   5.517  12.870  0.00  0.00    +0.000 A 
ATOM     19  C   UNL     1      43.142   4.239  12.859  0.00  0.00    +0.000 A 
ATOM     20  C   UNL     1      43.418   3.370  11.806  0.00  0.00    +0.000 A 
ATOM     21  C   UNL     1      44.246   3.782  10.758  0.00  0.00    +0.000 A 
ATOM     22  C   UNL     1      44.814   5.061  10.777  0.00  0.00    +0.000 A 
BRANCH  21  23
ATOM     23  C   UNL     1      44.524   2.891   9.670  0.00  0.00    +0.000 C 
ATOM     24  N   UNL     1      44.752   2.163   8.793  0.00  0.00    +0.000 NA
ENDBRANCH  21  23
ENDBRANCH  16  17
ENDBRANCH  14  16
ENDBRANCH   1  14
TORSDOF 6
ENDMDL
MODEL 6
REMARK VINA RESULT:    -6.146      4.106      8.097
REMARK INTER + INTRA:          -8.967
REMARK INTER:                  -8.504
REMARK INTRA:                  -0.463
REMARK UNBOUND:                -0.665
REMARK  Name = 
REMARK  7 active torsions:
REMARK  status: ('A' for Active; 'I' for Inactive)
REMARK    1  A    between atoms: C_1  and  C_2
REMARK    2  A    between atoms: C_2  and  C_3
REMARK    3  A    between atoms: C_2  and  C_14
REMARK    4  A    between atoms: C_3  and  N_4
REMARK    5  A    between atoms: N_4  and  C_5
REMARK    6  A    between atoms: C_8  and  C_9
REMARK    7  A    between atoms: C_18  and  C_19
REMARK                            x       y       z     vdW  Elec       q    Type
REMARK                         _______ _______ _______ _____ _____    ______ ____
ROOT
ATOM      1  N   UNL     1      47.933   4.720  16.679  0.00  0.00    +0.000 N 
ATOM      2  H   UNL     1      47.395   4.927  17.520  0.00  0.00    +0.000 HD
ENDROOT
BRANCH   1   3
ATOM      3  C   UNL     1      48.978   3.827  16.940  0.00  0.00    +0.000 A 
ATOM      4  C   UNL     1      48.987   2.496  16.549  0.00  0.00    +0.000 A 
ATOM      5  N   UNL     1      49.997   1.630  16.762  0.00  0.00    +0.000 NA
ATOM      6  C   UNL     1      51.084   2.154  17.370  0.00  0.00    +0.000 A 
ATOM      7  N   UNL     1      51.236   3.437  17.747  0.00  0.00    +0.000 NA
ATOM      8  C   UNL     1      50.179   4.242  17.499  0.00  0.00    +0.000 A 
BRANCH   6   9
ATOM      9  C   UNL     1      52.212   1.186  17.639  0.00  0.00    +0.000 C 
ATOM     10  N   UNL     1      51.830  -0.012  18.201  0.00  0.00    +0.000 N 
ATOM     11  O   UNL     1      53.389   1.411  17.391  0.00  0.00    +0.000 OA
ATOM     12  H   UNL     1      50.852  -0.191  18.397  0.00  0.00    +0.000 HD
ATOM     13  H   UNL     1      52.534  -0.708  18.402  0.00  0.00    +0.000 HD
ENDBRANCH   6   9
ENDBRANCH   1   3
BRANCH   1  14
ATOM     14  C   UNL     1      47.062   4.387  15.554  0.00  0.00    +0.000 C 
BRANCH  14  16
ATOM     15  C   UNL     1      48.279   6.486  14.703  0.00  0.00    +0.000 C 
ATOM     16  C   UNL     1      47.430   5.286  14.418  0.00  0.00    +0.000 C 
BRANCH  16  17
ATOM     17  C   UNL     1      46.634   5.225  13.188  0.00  0.00    +0.000 A 
ATOM     18  C   UNL     1      46.816   6.191  12.193  0.00  0.00    +0.000 A 
ATOM     19  C   UNL     1      46.021   6.194  11.048  0.00  0.00    +0.000 A 
ATOM     20  C   UNL     1      45.043   5.215  10.879  0.00  0.00    +0.000 A 
ATOM     21  C   UNL     1      44.866   4.229  11.854  0.00  0.00    +0.000 A 
ATOM     22  C   UNL     1      45.658   4.236  13.008  0.00  0.00    +0.000 A 
BRANCH  21  23
ATOM     23  C   UNL     1      43.866   3.217  11.677  0.00  0.00    +0.000 C 
ATOM     24  N   UNL     1      43.059   2.393  11.529  0.00  0.00    +0.000 NA
ENDBRANCH  21  23
ENDBRANCH  16  17
ENDBRANCH  14  16
ENDBRANCH   1  14
TORSDOF 6
ENDMDL
MODEL 7
REMARK VINA RESULT:    -5.941      3.740      7.178
REMARK INTER + INTRA:          -8.691
REMARK INTER:                  -8.061
REMARK INTRA:                  -0.630
REMARK UNBOUND:                -0.665
REMARK  Name = 
REMARK  7 active torsions:
REMARK  status: ('A' for Active; 'I' for Inactive)
REMARK    1  A    between atoms: C_1  and  C_2
REMARK    2  A    between atoms: C_2  and  C_3
REMARK    3  A    between atoms: C_2  and  C_14
REMARK    4  A    between atoms: C_3  and  N_4
REMARK    5  A    between atoms: N_4  and  C_5
REMARK    6  A    between atoms: C_8  and  C_9
REMARK    7  A    between atoms: C_18  and  C_19
REMARK                            x       y       z     vdW  Elec       q    Type
REMARK                         _______ _______ _______ _____ _____    ______ ____
ROOT
ATOM      1  N   UNL     1      47.504   7.161  13.747  0.00  0.00    +0.000 N 
ATOM      2  H   UNL     1      46.607   7.629  13.873  0.00  0.00    +0.000 HD
ENDROOT
BRANCH   1   3
ATOM      3  C   UNL     1      47.676   6.116  14.662  0.00  0.00    +0.000 A 
ATOM      4  C   UNL     1      47.074   4.871  14.552  0.00  0.00    +0.000 A 
ATOM      5  N   UNL     1      47.254   3.843  15.404  0.00  0.00    +0.000 NA
ATOM      6  C   UNL     1      48.129   4.075  16.407  0.00  0.00    +0.000 A 
ATOM      7  N   UNL     1      48.827   5.209  16.599  0.00  0.00    +0.000 NA
ATOM      8  C   UNL     1      48.592   6.192  15.703  0.00  0.00    +0.000 A 
BRANCH   6   9
ATOM      9  C   UNL     1      48.317   2.938  17.384  0.00  0.00    +0.000 C 
ATOM     10  N   UNL     1      47.175   2.545  18.048  0.00  0.00    +0.000 N 
ATOM     11  O   UNL     1      49.386   2.383  17.600  0.00  0.00    +0.000 OA
ATOM     12  H   UNL     1      46.295   3.008  17.858  0.00  0.00    +0.000 HD
ATOM     13  H   UNL     1      47.229   1.787  18.712  0.00  0.00    +0.000 HD
ENDBRANCH   6   9
ENDBRANCH   1   3
BRANCH   1  14
ATOM     14  C   UNL     1      47.746   6.838  12.343  0.00  0.00    +0.000 C 
BRANCH  14  16
ATOM     15  C   UNL     1      45.540   8.118  12.026  0.00  0.00    +0.000 C 
ATOM     16  C   UNL     1      46.453   7.007  11.612  0.00  0.00    +0.000 C 
BRANCH  16  17
ATOM     17  C   UNL     1      45.931   5.876  10.838  0.00  0.00    +0.000 A 
ATOM     18  C   UNL     1      46.231   5.768   9.476  0.00  0.00    +0.000 A 
ATOM     19  C   UNL     1      45.687   4.741   8.706  0.00  0.00    +0.000 A 
ATOM     20  C   UNL     1      44.849   3.799   9.298  0.00  0.00    +0.000 A 
ATOM     21  C   UNL     1      44.559   3.880  10.663  0.00  0.00    +0.000 A 
ATOM     22  C   UNL     1      45.097   4.919  11.431  0.00  0.00    +0.000 A 
BRANCH  21  23
ATOM     23  C   UNL     1      43.702   2.907  11.274  0.00  0.00    +0.000 C 
ATOM     24  N   UNL     1      43.010   2.120  11.776  0.00  0.00    +0.000 NA
ENDBRANCH  21  23
ENDBRANCH  16  17
ENDBRANCH  14  16
ENDBRANCH   1  14
TORSDOF 6
ENDMDL
MODEL 8
REMARK VINA RESULT:    -5.779      3.542      8.000
REMARK INTER + INTRA:          -8.472
REMARK INTER:                  -8.048
REMARK INTRA:                  -0.424
REMARK UNBOUND:                -0.665
REMARK  Name = 
REMARK  7 active torsions:
REMARK  status: ('A' for Active; 'I' for Inactive)
REMARK    1  A    between atoms: C_1  and  C_2
REMARK    2  A    between atoms: C_2  and  C_3
REMARK    3  A    between atoms: C_2  and  C_14
REMARK    4  A    between atoms: C_3  and  N_4
REMARK    5  A    between atoms: N_4  and  C_5
REMARK    6  A    between atoms: C_8  and  C_9
REMARK    7  A    between atoms: C_18  and  C_19
REMARK                            x       y       z     vdW  Elec       q    Type
REMARK                         _______ _______ _______ _____ _____    ______ ____
ROOT
ATOM      1  N   UNL     1      46.789   5.293  14.028  0.00  0.00    +0.000 N 
ATOM      2  H   UNL     1      46.690   4.433  13.488  0.00  0.00    +0.000 HD
ENDROOT
BRANCH   1   3
ATOM      3  C   UNL     1      47.406   5.062  15.262  0.00  0.00    +0.000 A 
ATOM      4  C   UNL     1      48.361   5.894  15.828  0.00  0.00    +0.000 A 
ATOM      5  N   UNL     1      48.942   5.706  17.029  0.00  0.00    +0.000 NA
ATOM      6  C   UNL     1      48.498   4.633  17.720  0.00  0.00    +0.000 A 
ATOM      7  N   UNL     1      47.537   3.779  17.321  0.00  0.00    +0.000 NA
ATOM      8  C   UNL     1      47.004   4.035  16.106  0.00  0.00    +0.000 A 
BRANCH   6   9
ATOM      9  C   UNL     1      49.162   4.397  19.056  0.00  0.00    +0.000 C 
ATOM     10  N   UNL     1      48.561   3.441  19.846  0.00  0.00    +0.000 N 
ATOM     11  O   UNL     1      50.159   4.991  19.446  0.00  0.00    +0.000 OA
ATOM     12  H   UNL     1      47.740   2.952  19.512  0.00  0.00    +0.000 HD
ATOM     13  H   UNL     1      48.958   3.230  20.750  0.00  0.00    +0.000 HD
ENDBRANCH   6   9
ENDBRANCH   1   3
BRANCH   1  14
ATOM     14  C   UNL     1      47.346   6.373  13.217  0.00  0.00    +0.000 C 
BRANCH  14  16
ATOM     15  C   UNL     1      45.714   8.343  12.971  0.00  0.00    +0.000 C 
ATOM     16  C   UNL     1      46.214   7.018  12.486  0.00  0.00    +0.000 C 
BRANCH  16  17
ATOM     17  C   UNL     1      45.370   6.186  11.623  0.00  0.00    +0.000 A 
ATOM     18  C   UNL     1      44.069   5.863  12.024  0.00  0.00    +0.000 A 
ATOM     19  C   UNL     1      43.275   5.015  11.253  0.00  0.00    +0.000 A 
ATOM     20  C   UNL     1      43.771   4.494  10.060  0.00  0.00    +0.000 A 
ATOM     21  C   UNL     1      45.060   4.828   9.633  0.00  0.00    +0.000 A 
ATOM     22  C   UNL     1      45.859   5.669  10.416  0.00  0.00    +0.000 A 
BRANCH  21  23
ATOM     23  C   UNL     1      45.568   4.298   8.402  0.00  0.00    +0.000 C 
ATOM     24  N   UNL     1      45.973   3.872   7.399  0.00  0.00    +0.000 NA
ENDBRANCH  21  23
ENDBRANCH  16  17
ENDBRANCH  14  16
ENDBRANCH   1  14
TORSDOF 6
ENDMDL
MODEL 9
REMARK VINA RESULT:    -5.777      3.192      5.596
REMARK INTER + INTRA:          -8.469
REMARK INTER:                  -7.982
REMARK INTRA:                  -0.487
REMARK UNBOUND:                -0.665
REMARK  Name = 
REMARK  7 active torsions:
REMARK  status: ('A' for Active; 'I' for Inactive)
REMARK    1  A    between atoms: C_1  and  C_2
REMARK    2  A    between atoms: C_2  and  C_3
REMARK    3  A    between atoms: C_2  and  C_14
REMARK    4  A    between atoms: C_3  and  N_4
REMARK    5  A    between atoms: N_4  and  C_5
REMARK    6  A    between atoms: C_8  and  C_9
REMARK    7  A    between atoms: C_18  and  C_19
REMARK                            x       y       z     vdW  Elec       q    Type
REMARK                         _______ _______ _______ _____ _____    ______ ____
ROOT
ATOM      1  N   UNL     1      47.055   7.213  13.710  0.00  0.00    +0.000 N 
ATOM      2  H   UNL     1      46.802   8.141  13.371  0.00  0.00    +0.000 HD
ENDROOT
BRANCH   1   3
ATOM      3  C   UNL     1      46.316   6.210  13.074  0.00  0.00    +0.000 A 
ATOM      4  C   UNL     1      45.827   6.300  11.779  0.00  0.00    +0.000 A 
ATOM      5  N   UNL     1      45.142   5.332  11.138  0.00  0.00    +0.000 NA
ATOM      6  C   UNL     1      44.979   4.186  11.835  0.00  0.00    +0.000 A 
ATOM      7  N   UNL     1      45.452   3.940  13.071  0.00  0.00    +0.000 NA
ATOM      8  C   UNL     1      46.127   4.959  13.646  0.00  0.00    +0.000 A 
BRANCH   6   9
ATOM      9  C   UNL     1      44.189   3.104  11.137  0.00  0.00    +0.000 C 
ATOM     10  N   UNL     1      44.886   2.398  10.181  0.00  0.00    +0.000 N 
ATOM     11  O   UNL     1      43.016   2.846  11.371  0.00  0.00    +0.000 OA
ATOM     12  H   UNL     1      45.858   2.616   9.999  0.00  0.00    +0.000 HD
ATOM     13  H   UNL     1      44.419   1.656   9.680  0.00  0.00    +0.000 HD
ENDBRANCH   6   9
ENDBRANCH   1   3
BRANCH   1  14
ATOM     14  C   UNL     1      48.504   7.030  13.739  0.00  0.00    +0.000 C 
BRANCH  14  16
ATOM     15  C   UNL     1      49.583   8.766  15.298  0.00  0.00    +0.000 C 
ATOM     16  C   UNL     1      48.979   7.410  15.105  0.00  0.00    +0.000 C 
BRANCH  16  17
ATOM     17  C   UNL     1      49.233   6.347  16.081  0.00  0.00    +0.000 A 
ATOM     18  C   UNL     1      50.483   6.256  16.702  0.00  0.00    +0.000 A 
ATOM     19  C   UNL     1      50.769   5.211  17.580  0.00  0.00    +0.000 A 
ATOM     20  C   UNL     1      49.797   4.254  17.859  0.00  0.00    +0.000 A 
ATOM     21  C   UNL     1      48.534   4.345  17.266  0.00  0.00    +0.000 A 
ATOM     22  C   UNL     1      48.255   5.388  16.375  0.00  0.00    +0.000 A 
BRANCH  21  23
ATOM     23  C   UNL     1      47.531   3.363  17.559  0.00  0.00    +0.000 C 
ATOM     24  N   UNL     1      46.723   2.564  17.802  0.00  0.00    +0.000 NA
ENDBRANCH  21  23
ENDBRANCH  16  17
ENDBRANCH  14  16
ENDBRANCH   1  14
TORSDOF 6
ENDMDL
