MODEL 1
REMARK VINA RESULT:    -7.603      0.000      0.000
REMARK INTER + INTRA:          -9.569
REMARK INTER:                  -9.381
REMARK INTRA:                  -0.188
REMARK UNBOUND:                -0.188
REMARK  Name = 
REMARK  4 active torsions:
REMARK  status: ('A' for Active; 'I' for Inactive)
REMARK    1  A    between atoms: C_2  and  C_4
REMARK    2  A    between atoms: C_7  and  N_8
REMARK    3  A    between atoms: N_8  and  C_9
REMARK    4  A    between atoms: C_9  and  C_10
REMARK                            x       y       z     vdW  Elec       q    Type
REMARK                         _______ _______ _______ _____ _____    ______ ____
ROOT
ATOM      1  C   UNL     1      46.328   4.657  13.212  0.00  0.00    +0.000 A 
ATOM      2  N   UNL     1      45.803   3.408  13.201  0.00  0.00    +0.000 NA
ATOM      3  C   UNL     1      45.076   3.100  12.106  0.00  0.00    +0.000 A 
ATOM      4  C   UNL     1      44.829   3.951  11.037  0.00  0.00    +0.000 A 
ATOM      5  C   UNL     1      45.437   5.191  11.181  0.00  0.00    +0.000 A 
ATOM      6  N   UNL     1      46.180   5.578  12.243  0.00  0.00    +0.000 NA
ENDROOT
BRANCH   1   8
ATOM      7  N   UNL     1      46.801   4.385  15.592  0.00  0.00    +0.000 N 
ATOM      8  C   UNL     1      47.155   5.016  14.417  0.00  0.00    +0.000 C 
ATOM      9  O   UNL     1      48.093   5.812  14.402  0.00  0.00    +0.000 OA
ATOM     10  H   UNL     1      47.335   4.568  16.429  0.00  0.00    +0.000 HD
ATOM     11  H   UNL     1      46.043   3.714  15.595  0.00  0.00    +0.000 HD
ENDBRANCH   1   8
BRANCH   4  12
ATOM     12  N   UNL     1      44.161   3.600   9.876  0.00  0.00    +0.000 N 
ATOM     13  H   UNL     1      43.671   2.710   9.887  0.00  0.00    +0.000 HD
BRANCH  12  14
ATOM     14  C   UNL     1      44.572   4.122   8.577  0.00  0.00    +0.000 C 
BRANCH  14  15
ATOM     15  C   UNL     1      45.258   3.043   7.718  0.00  0.00    +0.000 C 
ATOM     16  C   UNL     1      45.823   1.906   8.587  0.00  0.00    +0.000 C 
ATOM     17  C   UNL     1      46.618   0.895   7.766  0.00  0.00    +0.000 C 
ATOM     18  C   UNL     1      47.738   1.576   6.992  0.00  0.00    +0.000 C 
ATOM     19  C   UNL     1      47.186   2.672   6.089  0.00  0.00    +0.000 C 
ATOM     20  C   UNL     1      46.376   3.695   6.880  0.00  0.00    +0.000 C 
ENDBRANCH  14  15
ENDBRANCH  12  14
ENDBRANCH   4  12
TORSDOF 4
ENDMDL
MODEL 2
REMARK VINA RESULT:    -7.454      3.246      6.179
REMARK INTER + INTRA:          -9.385
REMARK INTER:                  -9.031
REMARK INTRA:                  -0.354
REMARK UNBOUND:                -0.188
REMARK  Name = 
REMARK  4 active torsions:
REMARK  status: ('A' for Active; 'I' for Inactive)
REMARK    1  A    between atoms: C_2  and  C_4
REMARK    2  A    between atoms: C_7  and  N_8
REMARK    3  A    between atoms: N_8  and  C_9
REMARK    4  A    between atoms: C_9  and  C_10
REMARK                            x       y       z     vdW  Elec       q    Type
REMARK                         _______ _______ _______ _____ _____    ______ ____
ROOT
ATOM      1  C   UNL     1      46.474   2.575   7.721  0.00  0.00    +0.000 A 
ATOM      2  N   UNL     1      45.690   1.876   8.577  0.00  0.00    +0.000 NA
ATOM      3  C   UNL     1      44.824   2.619   9.299  0.00  0.00    +0.000 A 
ATOM      4  C   UNL     1      44.699   4.000   9.235  0.00  0.00    +0.000 A 
ATOM      5  C   UNL     1      45.558   4.579   8.309  0.00  0.00    +0.000 A 
ATOM      6  N   UNL     1      46.453   3.908   7.549  0.00  0.00    +0.000 NA
ENDROOT
BRANCH   1   8
ATOM      7  N   UNL     1      48.541   2.446   6.428  0.00  0.00    +0.000 N 
ATOM      8  C   UNL     1      47.438   1.764   6.896  0.00  0.00    +0.000 C 
ATOM      9  O   UNL     1      47.292   0.570   6.634  0.00  0.00    +0.000 OA
ATOM     10  H   UNL     1      49.235   1.948   5.888  0.00  0.00    +0.000 HD
ATOM     11  H   UNL     1      48.669   3.422   6.664  0.00  0.00    +0.000 HD
ENDBRANCH   1   8
BRANCH   4  12
ATOM     12  N   UNL     1      43.746   4.747   9.907  0.00  0.00    +0.000 N 
ATOM     13  H   UNL     1      43.645   5.716   9.620  0.00  0.00    +0.000 HD
BRANCH  12  14
ATOM     14  C   UNL     1      43.330   4.403  11.262  0.00  0.00    +0.000 C 
BRANCH  14  15
ATOM     15  C   UNL     1      44.147   5.166  12.322  0.00  0.00    +0.000 C 
ATOM     16  C   UNL     1      44.640   6.521  11.785  0.00  0.00    +0.000 C 
ATOM     17  C   UNL     1      45.559   7.233  12.774  0.00  0.00    +0.000 C 
ATOM     18  C   UNL     1      46.742   6.353  13.155  0.00  0.00    +0.000 C 
ATOM     19  C   UNL     1      46.268   5.026  13.735  0.00  0.00    +0.000 C 
ATOM     20  C   UNL     1      45.337   4.294  12.771  0.00  0.00    +0.000 C 
ENDBRANCH  14  15
ENDBRANCH  12  14
ENDBRANCH   4  12
TORSDOF 4
ENDMDL
MODEL 3
REMARK VINA RESULT:    -7.111      1.097      1.989
REMARK INTER + INTRA:          -8.961
REMARK INTER:                  -8.685
REMARK INTRA:                  -0.276
REMARK UNBOUND:                -0.188
REMARK  Name = 
REMARK  4 active torsions:
REMARK  status: ('A' for Active; 'I' for Inactive)
REMARK    1  A    between atoms: C_2  and  C_4
REMARK    2  A    between atoms: C_7  and  N_8
REMARK    3  A    between atoms: N_8  and  C_9
REMARK    4  A    between atoms: C_9  and  C_10
REMARK                            x       y       z     vdW  Elec       q    Type
REMARK                         _______ _______ _______ _____ _____    ______ ____
ROOT
ATOM      1  C   UNL     1      46.620   4.710  13.795  0.00  0.00    +0.000 A 
ATOM      2  N   UNL     1      46.114   5.760  13.104  0.00  0.00    +0.000 NA
ATOM      3  C   UNL     1      45.330   5.432  12.054  0.00  0.00    +0.000 A 
ATOM      4  C   UNL     1      45.031   4.140  11.644  0.00  0.00    +0.000 A 
ATOM      5  C   UNL     1      45.611   3.169  12.451  0.00  0.00    +0.000 A 
ATOM      6  N   UNL     1      46.406   3.412  13.517  0.00  0.00    +0.000 NA
ENDROOT
BRANCH   1   8
ATOM      7  N   UNL     1      47.876   6.373  15.067  0.00  0.00    +0.000 N 
ATOM      8  C   UNL     1      47.486   5.053  14.977  0.00  0.00    +0.000 C 
ATOM      9  O   UNL     1      47.844   4.244  15.833  0.00  0.00    +0.000 OA
ATOM     10  H   UNL     1      48.439   6.668  15.853  0.00  0.00    +0.000 HD
ATOM     11  H   UNL     1      47.562   7.040  14.374  0.00  0.00    +0.000 HD
ENDBRANCH   1   8
BRANCH   4  12
ATOM     12  N   UNL     1      44.153   3.810  10.626  0.00  0.00    +0.000 N 
ATOM     13  H   UNL     1      43.212   4.184  10.700  0.00  0.00    +0.000 HD
BRANCH  12  14
ATOM     14  C   UNL     1      44.330   2.597   9.834  0.00  0.00    +0.000 C 
BRANCH  14  15
ATOM     15  C   UNL     1      45.598   2.665   8.962  0.00  0.00    +0.000 C 
ATOM     16  C   UNL     1      45.468   3.733   7.862  0.00  0.00    +0.000 C 
ATOM     17  C   UNL     1      46.660   3.726   6.908  0.00  0.00    +0.000 C 
ATOM     18  C   UNL     1      46.858   2.350   6.288  0.00  0.00    +0.000 C 
ATOM     19  C   UNL     1      47.038   1.289   7.367  0.00  0.00    +0.000 C 
ATOM     20  C   UNL     1      45.865   1.278   8.344  0.00  0.00    +0.000 C 
ENDBRANCH  14  15
ENDBRANCH  12  14
ENDBRANCH   4  12
TORSDOF 4
ENDMDL
MODEL 4
REMARK VINA RESULT:    -6.497      1.264      1.883
REMARK INTER + INTRA:          -8.204
REMARK INTER:                  -7.901
REMARK INTRA:                  -0.303
REMARK UNBOUND:                -0.188
REMARK  Name = 
REMARK  4 active torsions:
REMARK  status: ('A' for Active; 'I' for Inactive)
REMARK    1  A    between atoms: C_2  and  C_4
REMARK    2  A    between atoms: C_7  and  N_8
REMARK    3  A    between atoms: N_8  and  C_9
REMARK    4  A    between atoms: C_9  and  C_10
REMARK                            x       y       z     vdW  Elec       q    Type
REMARK                         _______ _______ _______ _____ _____    ______ ____
ROOT
ATOM      1  C   UNL     1      46.757   6.223  12.801  0.00  0.00    +0.000 A 
ATOM      2  N   UNL     1      46.562   6.698  11.547  0.00  0.00    +0.000 NA
ATOM      3  C   UNL     1      45.835   5.899  10.737  0.00  0.00    +0.000 A 
ATOM      4  C   UNL     1      45.308   4.663  11.086  0.00  0.00    +0.000 A 
ATOM      5  C   UNL     1      45.580   4.311  12.402  0.00  0.00    +0.000 A 
ATOM      6  N   UNL     1      46.297   5.052  13.276  0.00  0.00    +0.000 NA
ENDROOT
BRANCH   1   8
ATOM      7  N   UNL     1      47.483   8.458  13.465  0.00  0.00    +0.000 N 
ATOM      8  C   UNL     1      47.553   7.105  13.725  0.00  0.00    +0.000 C 
ATOM      9  O   UNL     1      48.232   6.692  14.664  0.00  0.00    +0.000 OA
ATOM     10  H   UNL     1      47.977   9.102  14.066  0.00  0.00    +0.000 HD
ATOM     11  H   UNL     1      46.905   8.796  12.705  0.00  0.00    +0.000 HD
ENDBRANCH   1   8
BRANCH   4  12
ATOM     12  N   UNL     1      44.486   3.890  10.283  0.00  0.00    +0.000 N 
ATOM     13  H   UNL     1      44.330   2.933  10.582  0.00  0.00    +0.000 HD
BRANCH  12  14
ATOM     14  C   UNL     1      44.319   4.183   8.864  0.00  0.00    +0.000 C 
BRANCH  14  15
ATOM     15  C   UNL     1      45.000   3.124   7.977  0.00  0.00    +0.000 C 
ATOM     16  C   UNL     1      45.603   1.987   8.820  0.00  0.00    +0.000 C 
ATOM     17  C   UNL     1      46.393   0.996   7.971  0.00  0.00    +0.000 C 
ATOM     18  C   UNL     1      47.483   1.701   7.176  0.00  0.00    +0.000 C 
ATOM     19  C   UNL     1      46.893   2.798   6.298  0.00  0.00    +0.000 C 
ATOM     20  C   UNL     1      46.087   3.800   7.120  0.00  0.00    +0.000 C 
ENDBRANCH  14  15
ENDBRANCH  12  14
ENDBRANCH   4  12
TORSDOF 4
ENDMDL
MODEL 5
REMARK VINA RESULT:    -6.163      1.627      2.319
REMARK INTER + INTRA:          -7.792
REMARK INTER:                  -7.470
REMARK INTRA:                  -0.322
REMARK UNBOUND:                -0.188
REMARK  Name = 
REMARK  4 active torsions:
REMARK  status: ('A' for Active; 'I' for Inactive)
REMARK    1  A    between atoms: C_2  and  C_4
REMARK    2  A    between atoms: C_7  and  N_8
REMARK    3  A    between atoms: N_8  and  C_9
REMARK    4  A    between atoms: C_9  and  C_10
REMARK                            x       y       z     vdW  Elec       q    Type
REMARK                         _______ _______ _______ _____ _____    ______ ____
ROOT
ATOM      1  C   UNL     1      47.526   6.422  13.633  0.00  0.00    +0.000 A 
ATOM      2  N   UNL     1      47.894   7.050  12.490  0.00  0.00    +0.000 NA
ATOM      3  C   UNL     1      47.092   6.824  11.427  0.00  0.00    +0.000 A 
ATOM      4  C   UNL     1      45.967   6.012  11.424  0.00  0.00    +0.000 A 
ATOM      5  C   UNL     1      45.708   5.443  12.665  0.00  0.00    +0.000 A 
ATOM      6  N   UNL     1      46.458   5.618  13.776  0.00  0.00    +0.000 NA
ENDROOT
BRANCH   1   8
ATOM      7  N   UNL     1      48.196   5.824  15.903  0.00  0.00    +0.000 N 
ATOM      8  C   UNL     1      48.398   6.671  14.834  0.00  0.00    +0.000 C 
ATOM      9  O   UNL     1      49.249   7.558  14.901  0.00  0.00    +0.000 OA
ATOM     10  H   UNL     1      48.769   5.927  16.729  0.00  0.00    +0.000 HD
ATOM     11  H   UNL     1      47.511   5.081  15.836  0.00  0.00    +0.000 HD
ENDBRANCH   1   8
BRANCH   4  12
ATOM     12  N   UNL     1      45.096   5.858  10.359  0.00  0.00    +0.000 N 
ATOM     13  H   UNL     1      44.860   6.700   9.842  0.00  0.00    +0.000 HD
BRANCH  12  14
ATOM     14  C   UNL     1      44.146   4.753  10.308  0.00  0.00    +0.000 C 
BRANCH  14  15
ATOM     15  C   UNL     1      44.478   3.765   9.174  0.00  0.00    +0.000 C 
ATOM     16  C   UNL     1      44.923   2.400   9.727  0.00  0.00    +0.000 C 
ATOM     17  C   UNL     1      45.380   1.451   8.623  0.00  0.00    +0.000 C 
ATOM     18  C   UNL     1      46.493   2.073   7.792  0.00  0.00    +0.000 C 
ATOM     19  C   UNL     1      46.048   3.403   7.195  0.00  0.00    +0.000 C 
ATOM     20  C   UNL     1      45.575   4.371   8.276  0.00  0.00    +0.000 C 
ENDBRANCH  14  15
ENDBRANCH  12  14
ENDBRANCH   4  12
TORSDOF 4
ENDMDL
MODEL 6
REMARK VINA RESULT:    -5.945      2.146      3.516
REMARK INTER + INTRA:          -7.523
REMARK INTER:                  -7.520
REMARK INTRA:                  -0.003
REMARK UNBOUND:                -0.188
REMARK  Name = 
REMARK  4 active torsions:
REMARK  status: ('A' for Active; 'I' for Inactive)
REMARK    1  A    between atoms: C_2  and  C_4
REMARK    2  A    between atoms: C_7  and  N_8
REMARK    3  A    between atoms: N_8  and  C_9
REMARK    4  A    between atoms: C_9  and  C_10
REMARK                            x       y       z     vdW  Elec       q    Type
REMARK                         _______ _______ _______ _____ _____    ______ ____
ROOT
ATOM      1  C   UNL     1      47.723   3.810  15.439  0.00  0.00    +0.000 A 
ATOM      2  N   UNL     1      47.915   5.149  15.510  0.00  0.00    +0.000 NA
ATOM      3  C   UNL     1      47.476   5.849  14.442  0.00  0.00    +0.000 A 
ATOM      4  C   UNL     1      46.875   5.307  13.314  0.00  0.00    +0.000 A 
ATOM      5  C   UNL     1      46.736   3.927  13.387  0.00  0.00    +0.000 A 
ATOM      6  N   UNL     1      47.148   3.153  14.416  0.00  0.00    +0.000 NA
ENDROOT
BRANCH   1   8
ATOM      7  N   UNL     1      47.336   2.989  17.706  0.00  0.00    +0.000 N 
ATOM      8  C   UNL     1      48.193   3.011  16.625  0.00  0.00    +0.000 C 
ATOM      9  O   UNL     1      49.261   2.401  16.671  0.00  0.00    +0.000 OA
ATOM     10  H   UNL     1      47.587   2.450  18.523  0.00  0.00    +0.000 HD
ATOM     11  H   UNL     1      46.449   3.473  17.656  0.00  0.00    +0.000 HD
ENDBRANCH   1   8
BRANCH   4  12
ATOM     12  N   UNL     1      46.342   6.037  12.265  0.00  0.00    +0.000 N 
ATOM     13  H   UNL     1      46.531   7.035  12.266  0.00  0.00    +0.000 HD
BRANCH  12  14
ATOM     14  C   UNL     1      45.158   5.580  11.547  0.00  0.00    +0.000 C 
BRANCH  14  15
ATOM     15  C   UNL     1      45.507   4.525  10.481  0.00  0.00    +0.000 C 
ATOM     16  C   UNL     1      45.719   5.168   9.100  0.00  0.00    +0.000 C 
ATOM     17  C   UNL     1      45.938   4.126   8.006  0.00  0.00    +0.000 C 
ATOM     18  C   UNL     1      44.786   3.132   7.957  0.00  0.00    +0.000 C 
ATOM     19  C   UNL     1      44.597   2.450   9.307  0.00  0.00    +0.000 C 
ATOM     20  C   UNL     1      44.385   3.469  10.423  0.00  0.00    +0.000 C 
ENDBRANCH  14  15
ENDBRANCH  12  14
ENDBRANCH   4  12
TORSDOF 4
ENDMDL
MODEL 7
REMARK VINA RESULT:    -5.612      3.832      6.283
REMARK INTER + INTRA:          -7.112
REMARK INTER:                  -6.826
REMARK INTRA:                  -0.285
REMARK UNBOUND:                -0.188
REMARK  Name = 
REMARK  4 active torsions:
REMARK  status: ('A' for Active; 'I' for Inactive)
REMARK    1  A    between atoms: C_2  and  C_4
REMARK    2  A    between atoms: C_7  and  N_8
REMARK    3  A    between atoms: N_8  and  C_9
REMARK    4  A    between atoms: C_9  and  C_10
REMARK                            x       y       z     vdW  Elec       q    Type
REMARK                         _______ _______ _______ _____ _____    ______ ____
ROOT
ATOM      1  C   UNL     1      44.504   4.025  11.639  0.00  0.00    +0.000 A 
ATOM      2  N   UNL     1      44.996   3.921  12.897  0.00  0.00    +0.000 NA
ATOM      3  C   UNL     1      45.543   5.051  13.395  0.00  0.00    +0.000 A 
ATOM      4  C   UNL     1      45.643   6.262  12.723  0.00  0.00    +0.000 A 
ATOM      5  C   UNL     1      45.090   6.222  11.450  0.00  0.00    +0.000 A 
ATOM      6  N   UNL     1      44.524   5.134  10.878  0.00  0.00    +0.000 NA
ENDROOT
BRANCH   1   8
ATOM      7  N   UNL     1      44.486   2.269   9.943  0.00  0.00    +0.000 N 
ATOM      8  C   UNL     1      43.877   2.781  11.069  0.00  0.00    +0.000 C 
ATOM      9  O   UNL     1      42.889   2.223  11.545  0.00  0.00    +0.000 OA
ATOM     10  H   UNL     1      44.125   1.421   9.529  0.00  0.00    +0.000 HD
ATOM     11  H   UNL     1      45.312   2.718   9.568  0.00  0.00    +0.000 HD
ENDBRANCH   1   8
BRANCH   4  12
ATOM     12  N   UNL     1      46.119   7.441  13.271  0.00  0.00    +0.000 N 
ATOM     13  H   UNL     1      45.578   8.279  13.083  0.00  0.00    +0.000 HD
BRANCH  12  14
ATOM     14  C   UNL     1      47.533   7.615  13.587  0.00  0.00    +0.000 C 
BRANCH  14  15
ATOM     15  C   UNL     1      48.335   8.107  12.368  0.00  0.00    +0.000 C 
ATOM     16  C   UNL     1      49.793   7.620  12.419  0.00  0.00    +0.000 C 
ATOM     17  C   UNL     1      50.636   8.204  11.289  0.00  0.00    +0.000 C 
ATOM     18  C   UNL     1      50.586   9.726  11.297  0.00  0.00    +0.000 C 
ATOM     19  C   UNL     1      49.149  10.223  11.196  0.00  0.00    +0.000 C 
ATOM     20  C   UNL     1      48.278   9.647  12.309  0.00  0.00    +0.000 C 
ENDBRANCH  14  15
ENDBRANCH  12  14
ENDBRANCH   4  12
TORSDOF 4
ENDMDL
MODEL 8
REMARK VINA RESULT:    -5.577      3.264      4.662
REMARK INTER + INTRA:          -7.068
REMARK INTER:                  -6.824
REMARK INTRA:                  -0.244
REMARK UNBOUND:                -0.188
REMARK  Name = 
REMARK  4 active torsions:
REMARK  status: ('A' for Active; 'I' for Inactive)
REMARK    1  A    between atoms: C_2  and  C_4
REMARK    2  A    between atoms: C_7  and  N_8
REMARK    3  A    between atoms: N_8  and  C_9
REMARK    4  A    between atoms: C_9  and  C_10
REMARK                            x       y       z     vdW  Elec       q    Type
REMARK                         _______ _______ _______ _____ _____    ______ ____
ROOT
ATOM      1  C   UNL     1      48.059   3.771  15.620  0.00  0.00    +0.000 A 
ATOM      2  N   UNL     1      47.306   3.363  14.571  0.00  0.00    +0.000 NA
ATOM      3  C   UNL     1      46.884   4.348  13.750  0.00  0.00    +0.000 A 
ATOM      4  C   UNL     1      47.148   5.701  13.911  0.00  0.00    +0.000 A 
ATOM      5  C   UNL     1      47.938   5.968  15.022  0.00  0.00    +0.000 A 
ATOM      6  N   UNL     1      48.401   5.042  15.892  0.00  0.00    +0.000 NA
ENDROOT
BRANCH   1   8
ATOM      7  N   UNL     1      48.218   2.836  17.870  0.00  0.00    +0.000 N 
ATOM      8  C   UNL     1      48.553   2.686  16.540  0.00  0.00    +0.000 C 
ATOM      9  O   UNL     1      49.212   1.713  16.175  0.00  0.00    +0.000 OA
ATOM     10  H   UNL     1      48.501   2.127  18.532  0.00  0.00    +0.000 HD
ATOM     11  H   UNL     1      47.657   3.626  18.163  0.00  0.00    +0.000 HD
ENDBRANCH   1   8
BRANCH   4  12
ATOM     12  N   UNL     1      46.792   6.696  13.017  0.00  0.00    +0.000 N 
ATOM     13  H   UNL     1      46.138   7.395  13.354  0.00  0.00    +0.000 HD
BRANCH  12  14
ATOM     14  C   UNL     1      46.856   6.480  11.576  0.00  0.00    +0.000 C 
BRANCH  14  15
ATOM     15  C   UNL     1      45.464   6.206  10.976  0.00  0.00    +0.000 C 
ATOM     16  C   UNL     1      44.346   6.509  11.989  0.00  0.00    +0.000 C 
ATOM     17  C   UNL     1      42.968   6.121  11.459  0.00  0.00    +0.000 C 
ATOM     18  C   UNL     1      42.930   4.655  11.051  0.00  0.00    +0.000 C 
ATOM     19  C   UNL     1      44.001   4.352  10.011  0.00  0.00    +0.000 C 
ATOM     20  C   UNL     1      45.391   4.739  10.509  0.00  0.00    +0.000 C 
ENDBRANCH  14  15
ENDBRANCH  12  14
ENDBRANCH   4  12
TORSDOF 4
ENDMDL
MODEL 9
REMARK VINA RESULT:    -5.167      3.325      7.511
REMARK INTER + INTRA:          -6.563
REMARK INTER:                  -6.259
REMARK INTRA:                  -0.304
REMARK UNBOUND:                -0.188
REMARK  Name = 
REMARK  4 active torsions:
REMARK  status: ('A' for Active; 'I' for Inactive)
REMARK    1  A    between atoms: C_2  and  C_4
REMARK    2  A    between atoms: C_7  and  N_8
REMARK    3  A    between atoms: N_8  and  C_9
REMARK    4  A    between atoms: C_9  and  C_10
REMARK                            x       y       z     vdW  Elec       q    Type
REMARK                         _______ _______ _______ _____ _____    ______ ____
ROOT
ATOM      1  C   UNL     1      44.932   4.764  11.311  0.00  0.00    +0.000 A 
ATOM      2  N   UNL     1      45.354   4.097  12.412  0.00  0.00    +0.000 NA
ATOM      3  C   UNL     1      46.099   4.823  13.272  0.00  0.00    +0.000 A 
ATOM      4  C   UNL     1      46.460   6.153  13.103  0.00  0.00    +0.000 A 
ATOM      5  C   UNL     1      45.950   6.707  11.936  0.00  0.00    +0.000 A 
ATOM      6  N   UNL     1      45.197   6.051  11.024  0.00  0.00    +0.000 NA
ENDROOT
BRANCH   1   8
ATOM      7  N   UNL     1      44.100   4.425   9.040  0.00  0.00    +0.000 N 
ATOM      8  C   UNL     1      44.088   3.977  10.345  0.00  0.00    +0.000 C 
ATOM      9  O   UNL     1      43.417   2.993  10.653  0.00  0.00    +0.000 OA
ATOM     10  H   UNL     1      43.571   3.922   8.342  0.00  0.00    +0.000 HD
ATOM     11  H   UNL     1      44.671   5.221   8.786  0.00  0.00    +0.000 HD
ENDBRANCH   1   8
BRANCH   4  12
ATOM     12  N   UNL     1      47.145   6.919  14.031  0.00  0.00    +0.000 N 
ATOM     13  H   UNL     1      46.815   7.870  14.165  0.00  0.00    +0.000 HD
BRANCH  12  14
ATOM     14  C   UNL     1      48.536   6.638  14.369  0.00  0.00    +0.000 C 
BRANCH  14  15
ATOM     15  C   UNL     1      48.735   6.487  15.889  0.00  0.00    +0.000 C 
ATOM     16  C   UNL     1      50.218   6.619  16.278  0.00  0.00    +0.000 C 
ATOM     17  C   UNL     1      50.451   6.344  17.761  0.00  0.00    +0.000 C 
ATOM     18  C   UNL     1      49.922   4.972  18.154  0.00  0.00    +0.000 C 
ATOM     19  C   UNL     1      48.440   4.845  17.820  0.00  0.00    +0.000 C 
ATOM     20  C   UNL     1      48.174   5.125  16.343  0.00  0.00    +0.000 C 
ENDBRANCH  14  15
ENDBRANCH  12  14
ENDBRANCH   4  12
TORSDOF 4
ENDMDL
