MODEL 1
REMARK VINA RESULT:    -7.758      0.000      0.000
REMARK INTER + INTRA:         -13.611
REMARK INTER:                 -12.294
REMARK INTRA:                  -1.317
REMARK UNBOUND:                -1.317
REMARK  Name = 
REMARK  11 active torsions:
REMARK  status: ('A' for Active; 'I' for Inactive)
REMARK    1  A    between atoms: C_2  and  C_24
REMARK    2  A    between atoms: N_3  and  CA_4
REMARK    3  A    between atoms: CA_4  and  C_5
REMARK    4  A    between atoms: CA_4  and  C_7
REMARK    5  A    between atoms: C_5  and  O_6
REMARK    6  A    between atoms: C_11  and  C_12
REMARK    7  A    between atoms: C_12  and  N_13
REMARK    8  A    between atoms: N_13  and  CA_14
REMARK    9  A    between atoms: CA_14  and  C_15
REMARK   10  A    between atoms: CA_14  and  C_17
REMARK   11  A    between atoms: C_15  and  O_16
REMARK                            x       y       z     vdW  Elec       q    Type
REMARK                         _______ _______ _______ _____ _____    ______ ____
ROOT
ATOM      1  CA  UNL     1      47.978   7.254  12.956  0.00  0.00    +0.000 C 
ENDROOT
BRANCH   1   2
ATOM      2  C   UNL     1      46.584   7.629  12.479  0.00  0.00    +0.000 A 
ATOM      3  C   UNL     1      46.317   8.956  12.141  0.00  0.00    +0.000 A 
ATOM      4  N   UNL     1      45.159   9.392  11.596  0.00  0.00    +0.000 NA
ATOM      5  C   UNL     1      44.202   8.467  11.378  0.00  0.00    +0.000 A 
ATOM      6  C   UNL     1      44.344   7.116  11.671  0.00  0.00    +0.000 A 
ATOM      7  C   UNL     1      45.567   6.702  12.222  0.00  0.00    +0.000 A 
BRANCH   6   8
ATOM      8  C   UNL     1      43.237   6.140  11.366  0.00  0.00    +0.000 C 
BRANCH   8   9
ATOM      9  N   UNL     1      43.580   5.297  10.227  0.00  0.00    +0.000 NA
ATOM     10  H   UNL     1      44.137   5.834   9.558  0.00  0.00    +0.000 HD
BRANCH   9  11
ATOM     11  CA  UNL     1      44.388   4.099  10.605  0.00  0.00    +0.000 C 
BRANCH  11  12
ATOM     12  C   UNL     1      45.156   3.514   9.410  0.00  0.00    +0.000 A 
ATOM     13  N   UNL     1      45.597   4.374   8.467  0.00  0.00    +0.000 NA
ATOM     14  C   UNL     1      46.262   3.834   7.428  0.00  0.00    +0.000 A 
ATOM     15  C   UNL     1      46.494   2.485   7.286  0.00  0.00    +0.000 A 
ATOM     16  C   UNL     1      45.998   1.693   8.292  0.00  0.00    +0.000 A 
ATOM     17  N   UNL     1      45.328   2.175   9.353  0.00  0.00    +0.000 NA
ENDBRANCH  11  12
BRANCH  11  18
ATOM     18  C   UNL     1      43.506   2.992  11.222  0.00  0.00    +0.000 C 
BRANCH  18  19
ATOM     19  O   UNL     1      44.089   2.422  12.397  0.00  0.00    +0.000 OA
ATOM     20  H   UNL     1      43.505   1.679  12.652  0.00  0.00    +0.000 HD
ENDBRANCH  18  19
ENDBRANCH  11  18
ENDBRANCH   9  11
ENDBRANCH   8   9
ENDBRANCH   6   8
ENDBRANCH   1   2
BRANCH   1  23
ATOM     21  O   UNL     1      50.179   6.929  14.773  0.00  0.00    +0.000 OA
ATOM     22  C   UNL     1      49.025   6.974  15.203  0.00  0.00    +0.000 C 
ATOM     23  N   UNL     1      47.944   7.267  14.411  0.00  0.00    +0.000 N 
ATOM     24  H   UNL     1      47.026   7.228  14.828  0.00  0.00    +0.000 HD
BRANCH  22  25
ATOM     25  C   UNL     1      48.633   6.514  16.526  0.00  0.00    +0.000 A 
ATOM     26  C   UNL     1      48.825   7.281  17.663  0.00  0.00    +0.000 A 
ATOM     27  S   UNL     1      48.795   6.323  19.086  0.00  0.00    +0.000 S 
ATOM     28  C   UNL     1      48.396   4.919  18.203  0.00  0.00    +0.000 A 
ATOM     29  N   UNL     1      48.354   3.685  18.771  0.00  0.00    +0.000 NA
ATOM     30  C   UNL     1      47.976   2.744  17.968  0.00  0.00    +0.000 A 
ATOM     31  N   UNL     1      47.587   2.931  16.663  0.00  0.00    +0.000 N 
ATOM     32  C   UNL     1      47.621   4.156  16.045  0.00  0.00    +0.000 A 
ATOM     33  O   UNL     1      47.255   4.313  14.887  0.00  0.00    +0.000 OA
ATOM     34  C   UNL     1      48.151   5.214  16.880  0.00  0.00    +0.000 A 
ATOM     35  H   UNL     1      47.225   2.166  16.113  0.00  0.00    +0.000 HD
ENDBRANCH  22  25
ENDBRANCH   1  23
BRANCH   1  36
ATOM     36  C   UNL     1      49.125   8.128  12.399  0.00  0.00    +0.000 C 
BRANCH  36  37
ATOM     37  O   UNL     1      50.231   7.373  11.904  0.00  0.00    +0.000 OA
ATOM     38  H   UNL     1      50.217   6.481  12.309  0.00  0.00    +0.000 HD
ENDBRANCH  36  37
ENDBRANCH   1  36
TORSDOF 11
ENDMDL
MODEL 2
REMARK VINA RESULT:    -7.648      1.527      2.009
REMARK INTER + INTRA:         -13.435
REMARK INTER:                 -12.172
REMARK INTRA:                  -1.264
REMARK UNBOUND:                -1.317
REMARK  Name = 
REMARK  11 active torsions:
REMARK  status: ('A' for Active; 'I' for Inactive)
REMARK    1  A    between atoms: C_2  and  C_24
REMARK    2  A    between atoms: N_3  and  CA_4
REMARK    3  A    between atoms: CA_4  and  C_5
REMARK    4  A    between atoms: CA_4  and  C_7
REMARK    5  A    between atoms: C_5  and  O_6
REMARK    6  A    between atoms: C_11  and  C_12
REMARK    7  A    between atoms: C_12  and  N_13
REMARK    8  A    between atoms: N_13  and  CA_14
REMARK    9  A    between atoms: CA_14  and  C_15
REMARK   10  A    between atoms: CA_14  and  C_17
REMARK   11  A    between atoms: C_15  and  O_16
REMARK                            x       y       z     vdW  Elec       q    Type
REMARK                         _______ _______ _______ _____ _____    ______ ____
ROOT
ATOM      1  CA  UNL     1      47.922   6.377  13.360  0.00  0.00    +0.000 C 
ENDROOT
BRANCH   1   2
ATOM      2  C   UNL     1      46.477   6.110  12.970  0.00  0.00    +0.000 A 
ATOM      3  C   UNL     1      45.587   7.181  12.889  0.00  0.00    +0.000 A 
ATOM      4  N   UNL     1      44.314   7.090  12.443  0.00  0.00    +0.000 NA
ATOM      5  C   UNL     1      43.888   5.868  12.060  0.00  0.00    +0.000 A 
ATOM      6  C   UNL     1      44.676   4.724  12.093  0.00  0.00    +0.000 A 
ATOM      7  C   UNL     1      45.996   4.864  12.549  0.00  0.00    +0.000 A 
BRANCH   6   8
ATOM      8  C   UNL     1      44.135   3.401  11.616  0.00  0.00    +0.000 C 
BRANCH   8   9
ATOM      9  N   UNL     1      45.055   2.763  10.683  0.00  0.00    +0.000 NA
ATOM     10  H   UNL     1      45.165   1.777  10.929  0.00  0.00    +0.000 HD
BRANCH   9  11
ATOM     11  CA  UNL     1      44.581   2.810   9.268  0.00  0.00    +0.000 C 
BRANCH  11  12
ATOM     12  C   UNL     1      45.641   2.297   8.281  0.00  0.00    +0.000 A 
ATOM     13  N   UNL     1      46.025   1.007   8.388  0.00  0.00    +0.000 NA
ATOM     14  C   UNL     1      46.959   0.585   7.516  0.00  0.00    +0.000 A 
ATOM     15  C   UNL     1      47.530   1.390   6.557  0.00  0.00    +0.000 A 
ATOM     16  C   UNL     1      47.081   2.688   6.534  0.00  0.00    +0.000 A 
ATOM     17  N   UNL     1      46.150   3.165   7.379  0.00  0.00    +0.000 NA
ENDBRANCH  11  12
BRANCH  11  18
ATOM     18  C   UNL     1      44.166   4.239   8.855  0.00  0.00    +0.000 C 
BRANCH  18  19
ATOM     19  O   UNL     1      45.275   5.143   8.831  0.00  0.00    +0.000 OA
ATOM     20  H   UNL     1      45.889   4.831   9.527  0.00  0.00    +0.000 HD
ENDBRANCH  18  19
ENDBRANCH  11  18
ENDBRANCH   9  11
ENDBRANCH   8   9
ENDBRANCH   6   8
ENDBRANCH   1   2
BRANCH   1  23
ATOM     21  O   UNL     1      50.177   6.641  15.120  0.00  0.00    +0.000 OA
ATOM     22  C   UNL     1      49.032   6.726  15.567  0.00  0.00    +0.000 C 
ATOM     23  N   UNL     1      47.918   6.750  14.766  0.00  0.00    +0.000 N 
ATOM     24  H   UNL     1      47.014   6.764  15.213  0.00  0.00    +0.000 HD
BRANCH  22  25
ATOM     25  C   UNL     1      48.698   6.589  16.976  0.00  0.00    +0.000 A 
ATOM     26  C   UNL     1      48.878   7.619  17.883  0.00  0.00    +0.000 A 
ATOM     27  S   UNL     1      48.934   7.040  19.497  0.00  0.00    +0.000 S 
ATOM     28  C   UNL     1      48.587   5.446  18.999  0.00  0.00    +0.000 A 
ATOM     29  N   UNL     1      48.624   4.389  19.853  0.00  0.00    +0.000 NA
ATOM     30  C   UNL     1      48.274   3.264  19.319  0.00  0.00    +0.000 A 
ATOM     31  N   UNL     1      47.843   3.106  18.023  0.00  0.00    +0.000 N 
ATOM     32  C   UNL     1      47.798   4.142  17.123  0.00  0.00    +0.000 A 
ATOM     33  O   UNL     1      47.395   3.993  15.977  0.00  0.00    +0.000 OA
ATOM     34  C   UNL     1      48.293   5.395  17.655  0.00  0.00    +0.000 A 
ATOM     35  H   UNL     1      47.508   2.215  17.691  0.00  0.00    +0.000 HD
ENDBRANCH  22  25
ENDBRANCH   1  23
BRANCH   1  36
ATOM     36  C   UNL     1      48.659   7.421  12.490  0.00  0.00    +0.000 C 
BRANCH  36  37
ATOM     37  O   UNL     1      50.038   7.118  12.278  0.00  0.00    +0.000 OA
ATOM     38  H   UNL     1      50.536   7.955  12.165  0.00  0.00    +0.000 HD
ENDBRANCH  36  37
ENDBRANCH   1  36
TORSDOF 11
ENDMDL
MODEL 3
REMARK VINA RESULT:    -7.345      3.299      8.246
REMARK INTER + INTRA:         -12.956
REMARK INTER:                 -11.278
REMARK INTRA:                  -1.678
REMARK UNBOUND:                -1.317
REMARK  Name = 
REMARK  11 active torsions:
REMARK  status: ('A' for Active; 'I' for Inactive)
REMARK    1  A    between atoms: C_2  and  C_24
REMARK    2  A    between atoms: N_3  and  CA_4
REMARK    3  A    between atoms: CA_4  and  C_5
REMARK    4  A    between atoms: CA_4  and  C_7
REMARK    5  A    between atoms: C_5  and  O_6
REMARK    6  A    between atoms: C_11  and  C_12
REMARK    7  A    between atoms: C_12  and  N_13
REMARK    8  A    between atoms: N_13  and  CA_14
REMARK    9  A    between atoms: CA_14  and  C_15
REMARK   10  A    between atoms: CA_14  and  C_17
REMARK   11  A    between atoms: C_15  and  O_16
REMARK                            x       y       z     vdW  Elec       q    Type
REMARK                         _______ _______ _______ _____ _____    ______ ____
ROOT
ATOM      1  CA  UNL     1      47.256   6.986  12.418  0.00  0.00    +0.000 C 
ENDROOT
BRANCH   1   2
ATOM      2  C   UNL     1      47.443   6.291  13.757  0.00  0.00    +0.000 A 
ATOM      3  C   UNL     1      46.783   5.086  13.994  0.00  0.00    +0.000 A 
ATOM      4  N   UNL     1      46.959   4.316  15.092  0.00  0.00    +0.000 NA
ATOM      5  C   UNL     1      47.833   4.764  16.017  0.00  0.00    +0.000 A 
ATOM      6  C   UNL     1      48.552   5.947  15.898  0.00  0.00    +0.000 A 
ATOM      7  C   UNL     1      48.352   6.710  14.737  0.00  0.00    +0.000 A 
BRANCH   6   8
ATOM      8  C   UNL     1      49.536   6.361  16.962  0.00  0.00    +0.000 C 
BRANCH   8   9
ATOM      9  N   UNL     1      50.852   5.786  16.713  0.00  0.00    +0.000 NA
ATOM     10  H   UNL     1      51.488   6.515  16.382  0.00  0.00    +0.000 HD
BRANCH   9  11
ATOM     11  CA  UNL     1      51.472   5.190  17.934  0.00  0.00    +0.000 C 
BRANCH  11  12
ATOM     12  C   UNL     1      51.670   3.672  17.804  0.00  0.00    +0.000 A 
ATOM     13  N   UNL     1      50.689   2.960  17.209  0.00  0.00    +0.000 NA
ATOM     14  C   UNL     1      50.885   1.632  17.113  0.00  0.00    +0.000 A 
ATOM     15  C   UNL     1      52.003   0.988  17.591  0.00  0.00    +0.000 A 
ATOM     16  C   UNL     1      52.939   1.796  18.188  0.00  0.00    +0.000 A 
ATOM     17  N   UNL     1      52.799   3.128  18.311  0.00  0.00    +0.000 NA
ENDBRANCH  11  12
BRANCH  11  18
ATOM     18  C   UNL     1      50.629   5.476  19.196  0.00  0.00    +0.000 C 
BRANCH  18  19
ATOM     19  O   UNL     1      50.134   4.280  19.803  0.00  0.00    +0.000 OA
ATOM     20  H   UNL     1      49.507   4.571  20.496  0.00  0.00    +0.000 HD
ENDBRANCH  18  19
ENDBRANCH  11  18
ENDBRANCH   9  11
ENDBRANCH   8   9
ENDBRANCH   6   8
ENDBRANCH   1   2
BRANCH   1  23
ATOM     21  O   UNL     1      44.553   7.351  11.515  0.00  0.00    +0.000 OA
ATOM     22  C   UNL     1      45.134   6.284  11.309  0.00  0.00    +0.000 C 
ATOM     23  N   UNL     1      46.464   6.092  11.586  0.00  0.00    +0.000 N 
ATOM     24  H   UNL     1      46.849   5.171  11.441  0.00  0.00    +0.000 HD
BRANCH  22  25
ATOM     25  C   UNL     1      44.455   5.045  10.963  0.00  0.00    +0.000 A 
ATOM     26  C   UNL     1      43.438   4.516  11.740  0.00  0.00    +0.000 A 
ATOM     27  S   UNL     1      43.208   2.844  11.430  0.00  0.00    +0.000 S 
ATOM     28  C   UNL     1      44.364   2.857  10.176  0.00  0.00    +0.000 A 
ATOM     29  N   UNL     1      44.784   1.723   9.556  0.00  0.00    +0.000 NA
ATOM     30  C   UNL     1      45.619   1.925   8.588  0.00  0.00    +0.000 A 
ATOM     31  N   UNL     1      46.033   3.160   8.150  0.00  0.00    +0.000 N 
ATOM     32  C   UNL     1      45.643   4.332   8.750  0.00  0.00    +0.000 A 
ATOM     33  O   UNL     1      46.005   5.427   8.339  0.00  0.00    +0.000 OA
ATOM     34  C   UNL     1      44.799   4.137   9.911  0.00  0.00    +0.000 A 
ATOM     35  H   UNL     1      46.623   3.253   7.337  0.00  0.00    +0.000 HD
ENDBRANCH  22  25
ENDBRANCH   1  23
BRANCH   1  36
ATOM     36  C   UNL     1      48.558   7.425  11.712  0.00  0.00    +0.000 C 
BRANCH  36  37
ATOM     37  O   UNL     1      48.843   8.817  11.850  0.00  0.00    +0.000 OA
ATOM     38  H   UNL     1      49.702   9.012  11.421  0.00  0.00    +0.000 HD
ENDBRANCH  36  37
ENDBRANCH   1  36
TORSDOF 11
ENDMDL
MODEL 4
REMARK VINA RESULT:    -7.246      2.376      3.316
REMARK INTER + INTRA:         -12.799
REMARK INTER:                 -11.483
REMARK INTRA:                  -1.316
REMARK UNBOUND:                -1.317
REMARK  Name = 
REMARK  11 active torsions:
REMARK  status: ('A' for Active; 'I' for Inactive)
REMARK    1  A    between atoms: C_2  and  C_24
REMARK    2  A    between atoms: N_3  and  CA_4
REMARK    3  A    between atoms: CA_4  and  C_5
REMARK    4  A    between atoms: CA_4  and  C_7
REMARK    5  A    between atoms: C_5  and  O_6
REMARK    6  A    between atoms: C_11  and  C_12
REMARK    7  A    between atoms: C_12  and  N_13
REMARK    8  A    between atoms: N_13  and  CA_14
REMARK    9  A    between atoms: CA_14  and  C_15
REMARK   10  A    between atoms: CA_14  and  C_17
REMARK   11  A    between atoms: C_15  and  O_16
REMARK                            x       y       z     vdW  Elec       q    Type
REMARK                         _______ _______ _______ _____ _____    ______ ____
ROOT
ATOM      1  CA  UNL     1      47.734   7.271  13.015  0.00  0.00    +0.000 C 
ENDROOT
BRANCH   1   2
ATOM      2  C   UNL     1      47.167   5.861  13.031  0.00  0.00    +0.000 A 
ATOM      3  C   UNL     1      47.561   4.983  14.042  0.00  0.00    +0.000 A 
ATOM      4  N   UNL     1      47.043   3.749  14.232  0.00  0.00    +0.000 NA
ATOM      5  C   UNL     1      46.084   3.350  13.370  0.00  0.00    +0.000 A 
ATOM      6  C   UNL     1      45.607   4.129  12.324  0.00  0.00    +0.000 A 
ATOM      7  C   UNL     1      46.160   5.410  12.169  0.00  0.00    +0.000 A 
BRANCH   6   8
ATOM      8  C   UNL     1      44.509   3.623  11.424  0.00  0.00    +0.000 C 
BRANCH   8   9
ATOM      9  N   UNL     1      45.025   2.662  10.456  0.00  0.00    +0.000 NA
ATOM     10  H   UNL     1      44.665   1.730  10.672  0.00  0.00    +0.000 HD
BRANCH   9  11
ATOM     11  CA  UNL     1      44.622   2.971   9.052  0.00  0.00    +0.000 C 
BRANCH  11  12
ATOM     12  C   UNL     1      45.687   2.541   8.032  0.00  0.00    +0.000 A 
ATOM     13  N   UNL     1      45.868   3.325   6.947  0.00  0.00    +0.000 NA
ATOM     14  C   UNL     1      46.803   2.923   6.066  0.00  0.00    +0.000 A 
ATOM     15  C   UNL     1      47.550   1.778   6.214  0.00  0.00    +0.000 A 
ATOM     16  C   UNL     1      47.287   1.043   7.344  0.00  0.00    +0.000 A 
ATOM     17  N   UNL     1      46.366   1.395   8.259  0.00  0.00    +0.000 NA
ENDBRANCH  11  12
BRANCH  11  18
ATOM     18  C   UNL     1      44.328   4.475   8.863  0.00  0.00    +0.000 C 
BRANCH  18  19
ATOM     19  O   UNL     1      45.520   5.266   8.855  0.00  0.00    +0.000 OA
ATOM     20  H   UNL     1      45.252   6.150   8.532  0.00  0.00    +0.000 HD
ENDBRANCH  18  19
ENDBRANCH  11  18
ENDBRANCH   9  11
ENDBRANCH   8   9
ENDBRANCH   6   8
ENDBRANCH   1   2
BRANCH   1  23
ATOM     21  O   UNL     1      50.411   8.077  13.675  0.00  0.00    +0.000 OA
ATOM     22  C   UNL     1      49.620   7.774  14.569  0.00  0.00    +0.000 C 
ATOM     23  N   UNL     1      48.292   7.516  14.337  0.00  0.00    +0.000 N 
ATOM     24  H   UNL     1      47.724   7.219  15.115  0.00  0.00    +0.000 HD
BRANCH  22  25
ATOM     25  C   UNL     1      50.020   7.434  15.926  0.00  0.00    +0.000 A 
ATOM     26  C   UNL     1      51.151   6.684  16.198  0.00  0.00    +0.000 A 
ATOM     27  S   UNL     1      51.086   5.985  17.763  0.00  0.00    +0.000 S 
ATOM     28  C   UNL     1      49.624   6.786  18.125  0.00  0.00    +0.000 A 
ATOM     29  N   UNL     1      48.914   6.537  19.256  0.00  0.00    +0.000 NA
ATOM     30  C   UNL     1      47.863   7.278  19.397  0.00  0.00    +0.000 A 
ATOM     31  N   UNL     1      47.484   8.280  18.536  0.00  0.00    +0.000 N 
ATOM     32  C   UNL     1      48.165   8.561  17.377  0.00  0.00    +0.000 A 
ATOM     33  O   UNL     1      47.828   9.469  16.626  0.00  0.00    +0.000 OA
ATOM     34  C   UNL     1      49.281   7.673  17.129  0.00  0.00    +0.000 A 
ATOM     35  H   UNL     1      46.697   8.876  18.744  0.00  0.00    +0.000 HD
ENDBRANCH  22  25
ENDBRANCH   1  23
BRANCH   1  36
ATOM     36  C   UNL     1      46.740   8.378  12.596  0.00  0.00    +0.000 C 
BRANCH  36  37
ATOM     37  O   UNL     1      45.960   8.888  13.678  0.00  0.00    +0.000 OA
ATOM     38  H   UNL     1      46.539   9.413  14.269  0.00  0.00    +0.000 HD
ENDBRANCH  36  37
ENDBRANCH   1  36
TORSDOF 11
ENDMDL
MODEL 5
REMARK VINA RESULT:    -6.859      3.462      7.823
REMARK INTER + INTRA:         -12.185
REMARK INTER:                 -10.676
REMARK INTRA:                  -1.509
REMARK UNBOUND:                -1.317
REMARK  Name = 
REMARK  11 active torsions:
REMARK  status: ('A' for Active; 'I' for Inactive)
REMARK    1  A    between atoms: C_2  and  C_24
REMARK    2  A    between atoms: N_3  and  CA_4
REMARK    3  A    between atoms: CA_4  and  C_5
REMARK    4  A    between atoms: CA_4  and  C_7
REMARK    5  A    between atoms: C_5  and  O_6
REMARK    6  A    between atoms: C_11  and  C_12
REMARK    7  A    between atoms: C_12  and  N_13
REMARK    8  A    between atoms: N_13  and  CA_14
REMARK    9  A    between atoms: CA_14  and  C_15
REMARK   10  A    between atoms: CA_14  and  C_17
REMARK   11  A    between atoms: C_15  and  O_16
REMARK                            x       y       z     vdW  Elec       q    Type
REMARK                         _______ _______ _______ _____ _____    ______ ____
ROOT
ATOM      1  CA  UNL     1      46.869   8.380  12.837  0.00  0.00    +0.000 C 
ENDROOT
BRANCH   1   2
ATOM      2  C   UNL     1      48.170   8.032  13.542  0.00  0.00    +0.000 A 
ATOM      3  C   UNL     1      49.375   8.485  13.004  0.00  0.00    +0.000 A 
ATOM      4  N   UNL     1      50.582   8.342  13.596  0.00  0.00    +0.000 NA
ATOM      5  C   UNL     1      50.606   7.708  14.787  0.00  0.00    +0.000 A 
ATOM      6  C   UNL     1      49.477   7.212  15.427  0.00  0.00    +0.000 A 
ATOM      7  C   UNL     1      48.241   7.393  14.786  0.00  0.00    +0.000 A 
BRANCH   6   8
ATOM      8  C   UNL     1      49.584   6.544  16.774  0.00  0.00    +0.000 C 
BRANCH   8   9
ATOM      9  N   UNL     1      50.385   5.329  16.695  0.00  0.00    +0.000 NA
ATOM     10  H   UNL     1      51.378   5.573  16.676  0.00  0.00    +0.000 HD
BRANCH   9  11
ATOM     11  CA  UNL     1      50.182   4.416  17.859  0.00  0.00    +0.000 C 
BRANCH  11  12
ATOM     12  C   UNL     1      51.177   3.246  17.863  0.00  0.00    +0.000 A 
ATOM     13  N   UNL     1      52.439   3.497  18.274  0.00  0.00    +0.000 NA
ATOM     14  C   UNL     1      53.292   2.457  18.261  0.00  0.00    +0.000 A 
ATOM     15  C   UNL     1      52.947   1.190  17.850  0.00  0.00    +0.000 A 
ATOM     16  C   UNL     1      51.645   1.037  17.442  0.00  0.00    +0.000 A 
ATOM     17  N   UNL     1      50.748   2.039  17.433  0.00  0.00    +0.000 NA
ENDBRANCH  11  12
BRANCH  11  18
ATOM     18  C   UNL     1      48.746   3.850  17.892  0.00  0.00    +0.000 C 
BRANCH  18  19
ATOM     19  O   UNL     1      48.445   3.201  19.131  0.00  0.00    +0.000 OA
ATOM     20  H   UNL     1      49.154   2.540  19.266  0.00  0.00    +0.000 HD
ENDBRANCH  18  19
ENDBRANCH  11  18
ENDBRANCH   9  11
ENDBRANCH   8   9
ENDBRANCH   6   8
ENDBRANCH   1   2
BRANCH   1  23
ATOM     21  O   UNL     1      44.460   7.811  11.379  0.00  0.00    +0.000 OA
ATOM     22  C   UNL     1      45.446   7.084  11.249  0.00  0.00    +0.000 C 
ATOM     23  N   UNL     1      46.667   7.375  11.804  0.00  0.00    +0.000 N 
ATOM     24  H   UNL     1      47.408   6.700  11.699  0.00  0.00    +0.000 HD
BRANCH  22  25
ATOM     25  C   UNL     1      45.396   5.740  10.696  0.00  0.00    +0.000 A 
ATOM     26  C   UNL     1      45.711   5.471   9.375  0.00  0.00    +0.000 A 
ATOM     27  S   UNL     1      45.059   3.970   8.860  0.00  0.00    +0.000 S 
ATOM     28  C   UNL     1      44.475   3.621  10.424  0.00  0.00    +0.000 A 
ATOM     29  N   UNL     1      43.682   2.549  10.687  0.00  0.00    +0.000 NA
ATOM     30  C   UNL     1      43.382   2.404  11.937  0.00  0.00    +0.000 A 
ATOM     31  N   UNL     1      43.844   3.202  12.956  0.00  0.00    +0.000 N 
ATOM     32  C   UNL     1      44.639   4.300  12.738  0.00  0.00    +0.000 A 
ATOM     33  O   UNL     1      45.060   4.993  13.656  0.00  0.00    +0.000 OA
ATOM     34  C   UNL     1      44.900   4.560  11.338  0.00  0.00    +0.000 A 
ATOM     35  H   UNL     1      43.638   2.987  13.920  0.00  0.00    +0.000 HD
ENDBRANCH  22  25
ENDBRANCH   1  23
BRANCH   1  36
ATOM     36  C   UNL     1      46.788   9.815  12.268  0.00  0.00    +0.000 C 
BRANCH  36  37
ATOM     37  O   UNL     1      45.526  10.446  12.482  0.00  0.00    +0.000 OA
ATOM     38  H   UNL     1      45.429  11.190  11.851  0.00  0.00    +0.000 HD
ENDBRANCH  36  37
ENDBRANCH   1  36
TORSDOF 11
ENDMDL
MODEL 6
REMARK VINA RESULT:    -6.851      3.079      7.561
REMARK INTER + INTRA:         -12.173
REMARK INTER:                 -10.368
REMARK INTRA:                  -1.805
REMARK UNBOUND:                -1.317
REMARK  Name = 
REMARK  11 active torsions:
REMARK  status: ('A' for Active; 'I' for Inactive)
REMARK    1  A    between atoms: C_2  and  C_24
REMARK    2  A    between atoms: N_3  and  CA_4
REMARK    3  A    between atoms: CA_4  and  C_5
REMARK    4  A    between atoms: CA_4  and  C_7
REMARK    5  A    between atoms: C_5  and  O_6
REMARK    6  A    between atoms: C_11  and  C_12
REMARK    7  A    between atoms: C_12  and  N_13
REMARK    8  A    between atoms: N_13  and  CA_14
REMARK    9  A    between atoms: CA_14  and  C_15
REMARK   10  A    between atoms: CA_14  and  C_17
REMARK   11  A    between atoms: C_15  and  O_16
REMARK                            x       y       z     vdW  Elec       q    Type
REMARK                         _______ _______ _______ _____ _____    ______ ____
ROOT
ATOM      1  CA  UNL     1      46.682   8.606  12.766  0.00  0.00    +0.000 C 
ENDROOT
BRANCH   1   2
ATOM      2  C   UNL     1      47.688   8.099  13.786  0.00  0.00    +0.000 A 
ATOM      3  C   UNL     1      48.763   7.325  13.351  0.00  0.00    +0.000 A 
ATOM      4  N   UNL     1      49.784   6.915  14.138  0.00  0.00    +0.000 NA
ATOM      5  C   UNL     1      49.739   7.284  15.435  0.00  0.00    +0.000 A 
ATOM      6  C   UNL     1      48.725   8.054  15.990  0.00  0.00    +0.000 A 
ATOM      7  C   UNL     1      47.691   8.471  15.136  0.00  0.00    +0.000 A 
BRANCH   6   8
ATOM      8  C   UNL     1      48.765   8.453  17.443  0.00  0.00    +0.000 C 
BRANCH   8   9
ATOM      9  N   UNL     1      47.893   7.603  18.245  0.00  0.00    +0.000 NA
ATOM     10  H   UNL     1      47.212   7.141  17.638  0.00  0.00    +0.000 HD
BRANCH   9  11
ATOM     11  CA  UNL     1      48.629   6.528  18.973  0.00  0.00    +0.000 C 
BRANCH  11  12
ATOM     12  C   UNL     1      48.500   5.162  18.282  0.00  0.00    +0.000 A 
ATOM     13  N   UNL     1      47.294   4.828  17.774  0.00  0.00    +0.000 NA
ATOM     14  C   UNL     1      47.207   3.624  17.179  0.00  0.00    +0.000 A 
ATOM     15  C   UNL     1      48.259   2.742  17.079  0.00  0.00    +0.000 A 
ATOM     16  C   UNL     1      49.440   3.169  17.633  0.00  0.00    +0.000 A 
ATOM     17  N   UNL     1      49.588   4.360  18.239  0.00  0.00    +0.000 NA
ENDBRANCH  11  12
BRANCH  11  18
ATOM     18  C   UNL     1      48.142   6.395  20.433  0.00  0.00    +0.000 C 
BRANCH  18  19
ATOM     19  O   UNL     1      46.934   5.636  20.537  0.00  0.00    +0.000 OA
ATOM     20  H   UNL     1      46.800   5.478  21.494  0.00  0.00    +0.000 HD
ENDBRANCH  18  19
ENDBRANCH  11  18
ENDBRANCH   9  11
ENDBRANCH   8   9
ENDBRANCH   6   8
ENDBRANCH   1   2
BRANCH   1  23
ATOM     21  O   UNL     1      44.300   7.855  11.345  0.00  0.00    +0.000 OA
ATOM     22  C   UNL     1      45.324   7.181  11.232  0.00  0.00    +0.000 C 
ATOM     23  N   UNL     1      46.530   7.558  11.767  0.00  0.00    +0.000 N 
ATOM     24  H   UNL     1      47.308   6.922  11.677  0.00  0.00    +0.000 HD
BRANCH  22  25
ATOM     25  C   UNL     1      45.347   5.819  10.722  0.00  0.00    +0.000 A 
ATOM     26  C   UNL     1      45.767   5.517   9.438  0.00  0.00    +0.000 A 
ATOM     27  S   UNL     1      45.190   3.984   8.927  0.00  0.00    +0.000 S 
ATOM     28  C   UNL     1      44.499   3.669  10.454  0.00  0.00    +0.000 A 
ATOM     29  N   UNL     1      43.713   2.587  10.693  0.00  0.00    +0.000 NA
ATOM     30  C   UNL     1      43.324   2.473  11.922  0.00  0.00    +0.000 A 
ATOM     31  N   UNL     1      43.690   3.315  12.945  0.00  0.00    +0.000 N 
ATOM     32  C   UNL     1      44.474   4.426  12.750  0.00  0.00    +0.000 A 
ATOM     33  O   UNL     1      44.808   5.159  13.672  0.00  0.00    +0.000 OA
ATOM     34  C   UNL     1      44.832   4.648  11.364  0.00  0.00    +0.000 A 
ATOM     35  H   UNL     1      43.418   3.126  13.898  0.00  0.00    +0.000 HD
ENDBRANCH  22  25
ENDBRANCH   1  23
BRANCH   1  36
ATOM     36  C   UNL     1      47.020   9.970  12.123  0.00  0.00    +0.000 C 
BRANCH  36  37
ATOM     37  O   UNL     1      46.026  10.970  12.344  0.00  0.00    +0.000 OA
ATOM     38  H   UNL     1      45.577  11.168  11.496  0.00  0.00    +0.000 HD
ENDBRANCH  36  37
ENDBRANCH   1  36
TORSDOF 11
ENDMDL
MODEL 7
REMARK VINA RESULT:    -6.733      1.593      1.945
REMARK INTER + INTRA:         -11.986
REMARK INTER:                 -10.026
REMARK INTRA:                  -1.960
REMARK UNBOUND:                -1.317
REMARK  Name = 
REMARK  11 active torsions:
REMARK  status: ('A' for Active; 'I' for Inactive)
REMARK    1  A    between atoms: C_2  and  C_24
REMARK    2  A    between atoms: N_3  and  CA_4
REMARK    3  A    between atoms: CA_4  and  C_5
REMARK    4  A    between atoms: CA_4  and  C_7
REMARK    5  A    between atoms: C_5  and  O_6
REMARK    6  A    between atoms: C_11  and  C_12
REMARK    7  A    between atoms: C_12  and  N_13
REMARK    8  A    between atoms: N_13  and  CA_14
REMARK    9  A    between atoms: CA_14  and  C_15
REMARK   10  A    between atoms: CA_14  and  C_17
REMARK   11  A    between atoms: C_15  and  O_16
REMARK                            x       y       z     vdW  Elec       q    Type
REMARK                         _______ _______ _______ _____ _____    ______ ____
ROOT
ATOM      1  CA  UNL     1      49.798   8.110  14.153  0.00  0.00    +0.000 C 
ENDROOT
BRANCH   1   2
ATOM      2  C   UNL     1      48.437   8.373  13.529  0.00  0.00    +0.000 A 
ATOM      3  C   UNL     1      48.240   9.545  12.800  0.00  0.00    +0.000 A 
ATOM      4  N   UNL     1      47.119   9.837  12.102  0.00  0.00    +0.000 NA
ATOM      5  C   UNL     1      46.128   8.923  12.131  0.00  0.00    +0.000 A 
ATOM      6  C   UNL     1      46.201   7.718  12.819  0.00  0.00    +0.000 A 
ATOM      7  C   UNL     1      47.387   7.446  13.518  0.00  0.00    +0.000 A 
BRANCH   6   8
ATOM      8  C   UNL     1      45.061   6.734  12.774  0.00  0.00    +0.000 C 
BRANCH   8   9
ATOM      9  N   UNL     1      45.550   5.361  12.819  0.00  0.00    +0.000 NA
ATOM     10  H   UNL     1      45.836   5.130  13.774  0.00  0.00    +0.000 HD
BRANCH   9  11
ATOM     11  CA  UNL     1      44.520   4.357  12.418  0.00  0.00    +0.000 C 
BRANCH  11  12
ATOM     12  C   UNL     1      44.671   3.922  10.953  0.00  0.00    +0.000 A 
ATOM     13  N   UNL     1      45.071   4.853  10.060  0.00  0.00    +0.000 NA
ATOM     14  C   UNL     1      45.188   4.447   8.782  0.00  0.00    +0.000 A 
ATOM     15  C   UNL     1      44.917   3.166   8.359  0.00  0.00    +0.000 A 
ATOM     16  C   UNL     1      44.508   2.295   9.339  0.00  0.00    +0.000 A 
ATOM     17  N   UNL     1      44.373   2.643  10.631  0.00  0.00    +0.000 NA
ENDBRANCH  11  12
BRANCH  11  18
ATOM     18  C   UNL     1      43.089   4.896  12.634  0.00  0.00    +0.000 C 
BRANCH  18  19
ATOM     19  O   UNL     1      42.264   4.730  11.477  0.00  0.00    +0.000 OA
ATOM     20  H   UNL     1      42.875   4.519  10.741  0.00  0.00    +0.000 HD
ENDBRANCH  18  19
ENDBRANCH  11  18
ENDBRANCH   9  11
ENDBRANCH   8   9
ENDBRANCH   6   8
ENDBRANCH   1   2
BRANCH   1  23
ATOM     21  O   UNL     1      51.403   6.398  15.811  0.00  0.00    +0.000 OA
ATOM     22  C   UNL     1      50.312   6.802  16.215  0.00  0.00    +0.000 C 
ATOM     23  N   UNL     1      49.561   7.730  15.538  0.00  0.00    +0.000 N 
ATOM     24  H   UNL     1      48.653   7.966  15.907  0.00  0.00    +0.000 HD
BRANCH  22  25
ATOM     25  C   UNL     1      49.583   6.202  17.321  0.00  0.00    +0.000 A 
ATOM     26  C   UNL     1      49.834   6.535  18.641  0.00  0.00    +0.000 A 
ATOM     27  S   UNL     1      49.260   5.331  19.719  0.00  0.00    +0.000 S 
ATOM     28  C   UNL     1      48.563   4.438  18.444  0.00  0.00    +0.000 A 
ATOM     29  N   UNL     1      48.022   3.205  18.625  0.00  0.00    +0.000 NA
ATOM     30  C   UNL     1      47.485   2.699  17.562  0.00  0.00    +0.000 A 
ATOM     31  N   UNL     1      47.395   3.335  16.347  0.00  0.00    +0.000 N 
ATOM     32  C   UNL     1      47.934   4.576  16.115  0.00  0.00    +0.000 A 
ATOM     33  O   UNL     1      47.831   5.140  15.032  0.00  0.00    +0.000 OA
ATOM     34  C   UNL     1      48.644   5.123  17.252  0.00  0.00    +0.000 A 
ATOM     35  H   UNL     1      46.892   2.919  15.577  0.00  0.00    +0.000 HD
ENDBRANCH  22  25
ENDBRANCH   1  23
BRANCH   1  36
ATOM     36  C   UNL     1      50.813   9.270  14.040  0.00  0.00    +0.000 C 
BRANCH  36  37
ATOM     37  O   UNL     1      52.173   8.839  13.998  0.00  0.00    +0.000 OA
ATOM     38  H   UNL     1      52.424   8.660  13.068  0.00  0.00    +0.000 HD
ENDBRANCH  36  37
ENDBRANCH   1  36
TORSDOF 11
ENDMDL
MODEL 8
REMARK VINA RESULT:    -6.653      2.840      7.352
REMARK INTER + INTRA:         -11.859
REMARK INTER:                 -10.331
REMARK INTRA:                  -1.527
REMARK UNBOUND:                -1.317
REMARK  Name = 
REMARK  11 active torsions:
REMARK  status: ('A' for Active; 'I' for Inactive)
REMARK    1  A    between atoms: C_2  and  C_24
REMARK    2  A    between atoms: N_3  and  CA_4
REMARK    3  A    between atoms: CA_4  and  C_5
REMARK    4  A    between atoms: CA_4  and  C_7
REMARK    5  A    between atoms: C_5  and  O_6
REMARK    6  A    between atoms: C_11  and  C_12
REMARK    7  A    between atoms: C_12  and  N_13
REMARK    8  A    between atoms: N_13  and  CA_14
REMARK    9  A    between atoms: CA_14  and  C_15
REMARK   10  A    between atoms: CA_14  and  C_17
REMARK   11  A    between atoms: C_15  and  O_16
REMARK                            x       y       z     vdW  Elec       q    Type
REMARK                         _______ _______ _______ _____ _____    ______ ____
ROOT
ATOM      1  CA  UNL     1      48.920   8.491  13.170  0.00  0.00    +0.000 C 
ENDROOT
BRANCH   1   2
ATOM      2  C   UNL     1      48.985   8.446  14.688  0.00  0.00    +0.000 A 
ATOM      3  C   UNL     1      48.601   9.571  15.417  0.00  0.00    +0.000 A 
ATOM      4  N   UNL     1      48.503   9.618  16.765  0.00  0.00    +0.000 NA
ATOM      5  C   UNL     1      48.808   8.489  17.437  0.00  0.00    +0.000 A 
ATOM      6  C   UNL     1      49.204   7.304  16.829  0.00  0.00    +0.000 A 
ATOM      7  C   UNL     1      49.279   7.293  15.427  0.00  0.00    +0.000 A 
BRANCH   6   8
ATOM      8  C   UNL     1      49.497   6.075  17.651  0.00  0.00    +0.000 C 
BRANCH   8   9
ATOM      9  N   UNL     1      49.546   4.883  16.813  0.00  0.00    +0.000 NA
ATOM     10  H   UNL     1      50.441   4.848  16.319  0.00  0.00    +0.000 HD
BRANCH   9  11
ATOM     11  CA  UNL     1      49.427   3.614  17.591  0.00  0.00    +0.000 C 
BRANCH  11  12
ATOM     12  C   UNL     1      50.766   2.872  17.705  0.00  0.00    +0.000 A 
ATOM     13  N   UNL     1      51.823   3.557  18.194  0.00  0.00    +0.000 NA
ATOM     14  C   UNL     1      52.986   2.886  18.277  0.00  0.00    +0.000 A 
ATOM     15  C   UNL     1      53.142   1.575  17.888  0.00  0.00    +0.000 A 
ATOM     16  C   UNL     1      52.013   0.968  17.396  0.00  0.00    +0.000 A 
ATOM     17  N   UNL     1      50.825   1.587  17.289  0.00  0.00    +0.000 NA
ENDBRANCH  11  12
BRANCH  11  18
ATOM     18  C   UNL     1      48.381   2.663  16.968  0.00  0.00    +0.000 C 
BRANCH  18  19
ATOM     19  O   UNL     1      48.606   2.447  15.572  0.00  0.00    +0.000 OA
ATOM     20  H   UNL     1      48.190   3.205  15.113  0.00  0.00    +0.000 HD
ENDBRANCH  18  19
ENDBRANCH  11  18
ENDBRANCH   9  11
ENDBRANCH   8   9
ENDBRANCH   6   8
ENDBRANCH   1   2
BRANCH   1  23
ATOM     21  O   UNL     1      46.051   8.384  13.247  0.00  0.00    +0.000 OA
ATOM     22  C   UNL     1      46.697   7.380  12.945  0.00  0.00    +0.000 C 
ATOM     23  N   UNL     1      48.056   7.397  12.753  0.00  0.00    +0.000 N 
ATOM     24  H   UNL     1      48.518   6.521  12.563  0.00  0.00    +0.000 HD
BRANCH  22  25
ATOM     25  C   UNL     1      46.159   6.029  12.971  0.00  0.00    +0.000 A 
ATOM     26  C   UNL     1      46.684   5.038  13.782  0.00  0.00    +0.000 A 
ATOM     27  S   UNL     1      46.250   3.472  13.231  0.00  0.00    +0.000 S 
ATOM     28  C   UNL     1      45.259   4.115  12.001  0.00  0.00    +0.000 A 
ATOM     29  N   UNL     1      44.681   3.340  11.046  0.00  0.00    +0.000 NA
ATOM     30  C   UNL     1      43.915   3.986  10.229  0.00  0.00    +0.000 A 
ATOM     31  N   UNL     1      43.633   5.329  10.309  0.00  0.00    +0.000 N 
ATOM     32  C   UNL     1      44.200   6.154  11.249  0.00  0.00    +0.000 A 
ATOM     33  O   UNL     1      43.927   7.345  11.321  0.00  0.00    +0.000 OA
ATOM     34  C   UNL     1      45.154   5.484  12.109  0.00  0.00    +0.000 A 
ATOM     35  H   UNL     1      42.962   5.759   9.689  0.00  0.00    +0.000 HD
ENDBRANCH  22  25
ENDBRANCH   1  23
BRANCH   1  36
ATOM     36  C   UNL     1      50.286   8.453  12.448  0.00  0.00    +0.000 C 
BRANCH  36  37
ATOM     37  O   UNL     1      50.552   7.214  11.791  0.00  0.00    +0.000 OA
ATOM     38  H   UNL     1      49.880   7.071  11.092  0.00  0.00    +0.000 HD
ENDBRANCH  36  37
ENDBRANCH   1  36
TORSDOF 11
ENDMDL
MODEL 9
REMARK VINA RESULT:    -6.623      2.557      4.131
REMARK INTER + INTRA:         -11.811
REMARK INTER:                  -9.616
REMARK INTRA:                  -2.195
REMARK UNBOUND:                -1.317
REMARK  Name = 
REMARK  11 active torsions:
REMARK  status: ('A' for Active; 'I' for Inactive)
REMARK    1  A    between atoms: C_2  and  C_24
REMARK    2  A    between atoms: N_3  and  CA_4
REMARK    3  A    between atoms: CA_4  and  C_5
REMARK    4  A    between atoms: CA_4  and  C_7
REMARK    5  A    between atoms: C_5  and  O_6
REMARK    6  A    between atoms: C_11  and  C_12
REMARK    7  A    between atoms: C_12  and  N_13
REMARK    8  A    between atoms: N_13  and  CA_14
REMARK    9  A    between atoms: CA_14  and  C_15
REMARK   10  A    between atoms: CA_14  and  C_17
REMARK   11  A    between atoms: C_15  and  O_16
REMARK                            x       y       z     vdW  Elec       q    Type
REMARK                         _______ _______ _______ _____ _____    ______ ____
ROOT
ATOM      1  CA  UNL     1      49.096   8.573  17.071  0.00  0.00    +0.000 C 
ENDROOT
BRANCH   1   2
ATOM      2  C   UNL     1      49.051   8.593  15.551  0.00  0.00    +0.000 A 
ATOM      3  C   UNL     1      50.223   8.854  14.841  0.00  0.00    +0.000 A 
ATOM      4  N   UNL     1      50.338   8.785  13.496  0.00  0.00    +0.000 NA
ATOM      5  C   UNL     1      49.230   8.445  12.806  0.00  0.00    +0.000 A 
ATOM      6  C   UNL     1      48.004   8.162  13.395  0.00  0.00    +0.000 A 
ATOM      7  C   UNL     1      47.930   8.231  14.795  0.00  0.00    +0.000 A 
BRANCH   6   8
ATOM      8  C   UNL     1      46.820   7.757  12.555  0.00  0.00    +0.000 C 
BRANCH   8   9
ATOM      9  N   UNL     1      46.016   6.747  13.233  0.00  0.00    +0.000 NA
ATOM     10  H   UNL     1      45.045   6.815  12.920  0.00  0.00    +0.000 HD
BRANCH   9  11
ATOM     11  CA  UNL     1      46.468   5.352  12.952  0.00  0.00    +0.000 C 
BRANCH  11  12
ATOM     12  C   UNL     1      45.375   4.511  12.275  0.00  0.00    +0.000 A 
ATOM     13  N   UNL     1      44.597   3.740  13.066  0.00  0.00    +0.000 NA
ATOM     14  C   UNL     1      43.652   3.008  12.448  0.00  0.00    +0.000 A 
ATOM     15  C   UNL     1      43.458   3.004  11.086  0.00  0.00    +0.000 A 
ATOM     16  C   UNL     1      44.304   3.812  10.367  0.00  0.00    +0.000 A 
ATOM     17  N   UNL     1      45.265   4.565  10.929  0.00  0.00    +0.000 NA
ENDBRANCH  11  12
BRANCH  11  18
ATOM     18  C   UNL     1      46.924   4.634  14.240  0.00  0.00    +0.000 C 
BRANCH  18  19
ATOM     19  O   UNL     1      47.245   3.258  14.013  0.00  0.00    +0.000 OA
ATOM     20  H   UNL     1      48.146   3.130  14.374  0.00  0.00    +0.000 HD
ENDBRANCH  18  19
ENDBRANCH  11  18
ENDBRANCH   9  11
ENDBRANCH   8   9
ENDBRANCH   6   8
ENDBRANCH   1   2
BRANCH   1  23
ATOM     21  O   UNL     1      50.043   7.562  19.587  0.00  0.00    +0.000 OA
ATOM     22  C   UNL     1      49.843   6.790  18.648  0.00  0.00    +0.000 C 
ATOM     23  N   UNL     1      49.261   7.183  17.469  0.00  0.00    +0.000 N 
ATOM     24  H   UNL     1      49.184   6.503  16.729  0.00  0.00    +0.000 HD
BRANCH  22  25
ATOM     25  C   UNL     1      50.386   5.443  18.575  0.00  0.00    +0.000 A 
ATOM     26  C   UNL     1      51.711   5.163  18.862  0.00  0.00    +0.000 A 
ATOM     27  S   UNL     1      52.203   3.665  18.186  0.00  0.00    +0.000 S 
ATOM     28  C   UNL     1      50.626   3.331  17.630  0.00  0.00    +0.000 A 
ATOM     29  N   UNL     1      50.341   2.269  16.831  0.00  0.00    +0.000 NA
ATOM     30  C   UNL     1      49.084   2.134  16.554  0.00  0.00    +0.000 A 
ATOM     31  N   UNL     1      48.080   2.935  17.043  0.00  0.00    +0.000 N 
ATOM     32  C   UNL     1      48.320   4.024  17.845  0.00  0.00    +0.000 A 
ATOM     33  O   UNL     1      47.415   4.719  18.289  0.00  0.00    +0.000 OA
ATOM     34  C   UNL     1      49.727   4.272  18.080  0.00  0.00    +0.000 A 
ATOM     35  H   UNL     1      47.110   2.728  16.855  0.00  0.00    +0.000 HD
ENDBRANCH  22  25
ENDBRANCH   1  23
BRANCH   1  36
ATOM     36  C   UNL     1      47.892   9.236  17.777  0.00  0.00    +0.000 C 
BRANCH  36  37
ATOM     37  O   UNL     1      48.225   9.850  19.022  0.00  0.00    +0.000 OA
ATOM     38  H   UNL     1      49.010   9.400  19.400  0.00  0.00    +0.000 HD
ENDBRANCH  36  37
ENDBRANCH   1  36
TORSDOF 11
ENDMDL
