MODEL 1
REMARK VINA RESULT:    -9.083      0.000      0.000
REMARK INTER + INTRA:         -11.894
REMARK INTER:                 -11.207
REMARK INTRA:                  -0.687
REMARK UNBOUND:                -0.687
REMARK  Name = 
REMARK  4 active torsions:
REMARK  status: ('A' for Active; 'I' for Inactive)
REMARK    1  A    between atoms: C_2  and  C_4
REMARK    2  A    between atoms: N_8  and  C_9
REMARK    3  A    between atoms: C_9  and  C_10
REMARK    4  A    between atoms: C_14  and  C_15
REMARK                            x       y       z     vdW  Elec       q    Type
REMARK                         _______ _______ _______ _____ _____    ______ ____
ROOT
ATOM      1  C   UNL     1      44.124   4.804  11.696  0.00  0.00    +0.000 C 
ATOM      2  C   UNL     1      42.984   5.116  12.643  0.00  0.00    +0.000 C 
ATOM      3  C   UNL     1      42.941   5.625  11.237  0.00  0.00    +0.000 C 
ENDROOT
BRANCH   1   8
ATOM      4  C   UNL     1      46.414   2.756   7.569  0.00  0.00    +0.000 A 
ATOM      5  C   UNL     1      46.128   4.071   7.896  0.00  0.00    +0.000 A 
ATOM      6  C   UNL     1      45.316   4.317   8.997  0.00  0.00    +0.000 A 
ATOM      7  C   UNL     1      44.884   3.274   9.815  0.00  0.00    +0.000 A 
ATOM      8  N   UNL     1      44.219   3.493  11.030  0.00  0.00    +0.000 N 
ATOM      9  N   UNL     1      45.098   1.991   9.464  0.00  0.00    +0.000 NA
ATOM     10  C   UNL     1      45.829   1.760   8.336  0.00  0.00    +0.000 A 
ATOM     11  H   UNL     1      44.094   2.625  11.536  0.00  0.00    +0.000 HD
BRANCH   4  13
ATOM     12  N   UNL     1      47.280   3.218   5.352  0.00  0.00    +0.000 N 
ATOM     13  C   UNL     1      47.316   2.403   6.457  0.00  0.00    +0.000 C 
ATOM     14  O   UNL     1      48.094   1.469   6.552  0.00  0.00    +0.000 OA
ATOM     15  H   UNL     1      47.998   3.058   4.659  0.00  0.00    +0.000 HD
ATOM     16  H   UNL     1      46.831   4.123   5.361  0.00  0.00    +0.000 HD
ENDBRANCH   4  13
ENDBRANCH   1   8
BRANCH   1  17
ATOM     17  C   UNL     1      45.491   5.428  12.020  0.00  0.00    +0.000 A 
ATOM     18  C   UNL     1      45.832   6.703  11.545  0.00  0.00    +0.000 A 
ATOM     19  C   UNL     1      46.818   7.463  12.177  0.00  0.00    +0.000 A 
ATOM     20  C   UNL     1      47.451   6.971  13.320  0.00  0.00    +0.000 A 
ATOM     21  C   UNL     1      47.192   5.673  13.781  0.00  0.00    +0.000 A 
ATOM     22  C   UNL     1      46.307   4.882  13.027  0.00  0.00    +0.000 A 
BRANCH  21  23
ATOM     23  C   UNL     1      47.633   5.202  15.109  0.00  0.00    +0.000 A 
ATOM     24  C   UNL     1      47.130   4.040  15.708  0.00  0.00    +0.000 A 
ATOM     25  C   UNL     1      47.472   3.711  17.020  0.00  0.00    +0.000 A 
ATOM     26  C   UNL     1      48.320   4.558  17.712  0.00  0.00    +0.000 A 
ATOM     27  N   UNL     1      48.827   5.694  17.190  0.00  0.00    +0.000 NA
ATOM     28  C   UNL     1      48.477   5.980  15.911  0.00  0.00    +0.000 A 
ENDBRANCH  21  23
ENDBRANCH   1  17
TORSDOF 4
ENDMDL
MODEL 2
REMARK VINA RESULT:    -8.815      1.992      3.328
REMARK INTER + INTRA:         -11.564
REMARK INTER:                 -10.740
REMARK INTRA:                  -0.824
REMARK UNBOUND:                -0.687
REMARK  Name = 
REMARK  4 active torsions:
REMARK  status: ('A' for Active; 'I' for Inactive)
REMARK    1  A    between atoms: C_2  and  C_4
REMARK    2  A    between atoms: N_8  and  C_9
REMARK    3  A    between atoms: C_9  and  C_10
REMARK    4  A    between atoms: C_14  and  C_15
REMARK                            x       y       z     vdW  Elec       q    Type
REMARK                         _______ _______ _______ _____ _____    ______ ____
ROOT
ATOM      1  C   UNL     1      43.711   4.864  11.568  0.00  0.00    +0.000 C 
ATOM      2  C   UNL     1      42.363   5.446  11.940  0.00  0.00    +0.000 C 
ATOM      3  C   UNL     1      43.066   5.930  10.711  0.00  0.00    +0.000 C 
ENDROOT
BRANCH   1   8
ATOM      4  C   UNL     1      46.359   2.731   7.707  0.00  0.00    +0.000 A 
ATOM      5  C   UNL     1      46.109   4.057   8.019  0.00  0.00    +0.000 A 
ATOM      6  C   UNL     1      45.186   4.338   9.020  0.00  0.00    +0.000 A 
ATOM      7  C   UNL     1      44.603   3.312   9.765  0.00  0.00    +0.000 A 
ATOM      8  N   UNL     1      43.812   3.556  10.895  0.00  0.00    +0.000 N 
ATOM      9  N   UNL     1      44.787   2.022   9.419  0.00  0.00    +0.000 NA
ATOM     10  C   UNL     1      45.633   1.762   8.383  0.00  0.00    +0.000 A 
ATOM     11  H   UNL     1      43.580   2.691  11.369  0.00  0.00    +0.000 HD
BRANCH   4  13
ATOM     12  N   UNL     1      47.471   3.138   5.592  0.00  0.00    +0.000 N 
ATOM     13  C   UNL     1      47.366   2.339   6.703  0.00  0.00    +0.000 C 
ATOM     14  O   UNL     1      48.104   1.386   6.892  0.00  0.00    +0.000 OA
ATOM     15  H   UNL     1      48.256   2.949   4.982  0.00  0.00    +0.000 HD
ATOM     16  H   UNL     1      47.049   4.055   5.541  0.00  0.00    +0.000 HD
ENDBRANCH   4  13
ENDBRANCH   1   8
BRANCH   1  17
ATOM     17  C   UNL     1      44.884   5.159  12.516  0.00  0.00    +0.000 A 
ATOM     18  C   UNL     1      45.507   4.128  13.234  0.00  0.00    +0.000 A 
ATOM     19  C   UNL     1      46.810   4.273  13.714  0.00  0.00    +0.000 A 
ATOM     20  C   UNL     1      47.524   5.443  13.446  0.00  0.00    +0.000 A 
ATOM     21  C   UNL     1      46.911   6.524  12.798  0.00  0.00    +0.000 A 
ATOM     22  C   UNL     1      45.550   6.397  12.468  0.00  0.00    +0.000 A 
BRANCH  21  23
ATOM     23  C   UNL     1      47.680   7.670  12.271  0.00  0.00    +0.000 A 
ATOM     24  C   UNL     1      49.022   7.569  11.882  0.00  0.00    +0.000 A 
ATOM     25  C   UNL     1      49.745   8.707  11.522  0.00  0.00    +0.000 A 
ATOM     26  C   UNL     1      49.104   9.933  11.557  0.00  0.00    +0.000 A 
ATOM     27  N   UNL     1      47.818  10.091  11.931  0.00  0.00    +0.000 NA
ATOM     28  C   UNL     1      47.144   8.963  12.269  0.00  0.00    +0.000 A 
ENDBRANCH  21  23
ENDBRANCH   1  17
TORSDOF 4
ENDMDL
MODEL 3
REMARK VINA RESULT:    -6.747      3.793      5.433
REMARK INTER + INTRA:          -9.012
REMARK INTER:                  -7.995
REMARK INTRA:                  -1.017
REMARK UNBOUND:                -0.687
REMARK  Name = 
REMARK  4 active torsions:
REMARK  status: ('A' for Active; 'I' for Inactive)
REMARK    1  A    between atoms: C_2  and  C_4
REMARK    2  A    between atoms: N_8  and  C_9
REMARK    3  A    between atoms: C_9  and  C_10
REMARK    4  A    between atoms: C_14  and  C_15
REMARK                            x       y       z     vdW  Elec       q    Type
REMARK                         _______ _______ _______ _____ _____    ______ ____
ROOT
ATOM      1  C   UNL     1      49.044   8.297  12.616  0.00  0.00    +0.000 C 
ATOM      2  C   UNL     1      50.169   8.955  11.846  0.00  0.00    +0.000 C 
ATOM      3  C   UNL     1      49.917   7.490  11.684  0.00  0.00    +0.000 C 
ENDROOT
BRANCH   1   8
ATOM      4  C   UNL     1      44.781   5.415  12.589  0.00  0.00    +0.000 A 
ATOM      5  C   UNL     1      46.114   5.072  12.741  0.00  0.00    +0.000 A 
ATOM      6  C   UNL     1      47.078   6.045  12.505  0.00  0.00    +0.000 A 
ATOM      7  C   UNL     1      46.714   7.362  12.224  0.00  0.00    +0.000 A 
ATOM      8  N   UNL     1      47.646   8.406  12.160  0.00  0.00    +0.000 N 
ATOM      9  N   UNL     1      45.424   7.685  12.006  0.00  0.00    +0.000 NA
ATOM     10  C   UNL     1      44.492   6.703  12.161  0.00  0.00    +0.000 A 
ATOM     11  H   UNL     1      47.182   9.301  12.067  0.00  0.00    +0.000 HD
BRANCH   4  13
ATOM     12  N   UNL     1      44.003   3.131  12.821  0.00  0.00    +0.000 N 
ATOM     13  C   UNL     1      43.689   4.467  12.878  0.00  0.00    +0.000 C 
ATOM     14  O   UNL     1      42.585   4.863  13.210  0.00  0.00    +0.000 OA
ATOM     15  H   UNL     1      43.294   2.494  13.160  0.00  0.00    +0.000 HD
ATOM     16  H   UNL     1      44.957   2.799  12.794  0.00  0.00    +0.000 HD
ENDBRANCH   4  13
ENDBRANCH   1   8
BRANCH   1  17
ATOM     17  C   UNL     1      49.186   8.238  14.146  0.00  0.00    +0.000 A 
ATOM     18  C   UNL     1      48.826   9.332  14.946  0.00  0.00    +0.000 A 
ATOM     19  C   UNL     1      48.507   9.160  16.294  0.00  0.00    +0.000 A 
ATOM     20  C   UNL     1      48.508   7.880  16.852  0.00  0.00    +0.000 A 
ATOM     21  C   UNL     1      48.935   6.773  16.106  0.00  0.00    +0.000 A 
ATOM     22  C   UNL     1      49.396   7.010  14.799  0.00  0.00    +0.000 A 
BRANCH  21  23
ATOM     23  C   UNL     1      48.717   5.383  16.557  0.00  0.00    +0.000 A 
ATOM     24  C   UNL     1      49.649   4.681  17.332  0.00  0.00    +0.000 A 
ATOM     25  C   UNL     1      49.462   3.328  17.615  0.00  0.00    +0.000 A 
ATOM     26  C   UNL     1      48.337   2.699  17.113  0.00  0.00    +0.000 A 
ATOM     27  N   UNL     1      47.412   3.321  16.354  0.00  0.00    +0.000 NA
ATOM     28  C   UNL     1      47.622   4.638  16.103  0.00  0.00    +0.000 A 
ENDBRANCH  21  23
ENDBRANCH   1  17
TORSDOF 4
ENDMDL
MODEL 4
REMARK VINA RESULT:    -6.480      3.556      8.452
REMARK INTER + INTRA:          -8.682
REMARK INTER:                  -7.966
REMARK INTRA:                  -0.716
REMARK UNBOUND:                -0.687
REMARK  Name = 
REMARK  4 active torsions:
REMARK  status: ('A' for Active; 'I' for Inactive)
REMARK    1  A    between atoms: C_2  and  C_4
REMARK    2  A    between atoms: N_8  and  C_9
REMARK    3  A    between atoms: C_9  and  C_10
REMARK    4  A    between atoms: C_14  and  C_15
REMARK                            x       y       z     vdW  Elec       q    Type
REMARK                         _______ _______ _______ _____ _____    ______ ____
ROOT
ATOM      1  C   UNL     1      48.951   7.791  12.667  0.00  0.00    +0.000 C 
ATOM      2  C   UNL     1      49.712   8.082  11.390  0.00  0.00    +0.000 C 
ATOM      3  C   UNL     1      49.637   9.122  12.462  0.00  0.00    +0.000 C 
ENDROOT
BRANCH   1   8
ATOM      4  C   UNL     1      48.633   7.363  17.784  0.00  0.00    +0.000 A 
ATOM      5  C   UNL     1      48.268   8.389  16.930  0.00  0.00    +0.000 A 
ATOM      6  C   UNL     1      48.657   8.311  15.597  0.00  0.00    +0.000 A 
ATOM      7  C   UNL     1      49.308   7.179  15.107  0.00  0.00    +0.000 A 
ATOM      8  N   UNL     1      49.554   6.982  13.741  0.00  0.00    +0.000 N 
ATOM      9  N   UNL     1      49.728   6.211  15.945  0.00  0.00    +0.000 NA
ATOM     10  C   UNL     1      49.411   6.338  17.265  0.00  0.00    +0.000 A 
ATOM     11  H   UNL     1      49.924   6.055  13.569  0.00  0.00    +0.000 HD
BRANCH   4  13
ATOM     12  N   UNL     1      48.645   8.365  19.991  0.00  0.00    +0.000 N 
ATOM     13  C   UNL     1      48.213   7.331  19.197  0.00  0.00    +0.000 C 
ATOM     14  O   UNL     1      47.467   6.460  19.612  0.00  0.00    +0.000 OA
ATOM     15  H   UNL     1      48.236   8.416  20.915  0.00  0.00    +0.000 HD
ATOM     16  H   UNL     1      49.046   9.211  19.609  0.00  0.00    +0.000 HD
ENDBRANCH   4  13
ENDBRANCH   1   8
BRANCH   1  17
ATOM     17  C   UNL     1      47.429   7.616  12.547  0.00  0.00    +0.000 A 
ATOM     18  C   UNL     1      46.571   8.725  12.574  0.00  0.00    +0.000 A 
ATOM     19  C   UNL     1      45.291   8.655  12.020  0.00  0.00    +0.000 A 
ATOM     20  C   UNL     1      44.866   7.481  11.396  0.00  0.00    +0.000 A 
ATOM     21  C   UNL     1      45.663   6.329  11.416  0.00  0.00    +0.000 A 
ATOM     22  C   UNL     1      46.879   6.394  12.118  0.00  0.00    +0.000 A 
BRANCH  21  23
ATOM     23  C   UNL     1      45.380   5.155  10.566  0.00  0.00    +0.000 A 
ATOM     24  C   UNL     1      45.706   5.106   9.205  0.00  0.00    +0.000 A 
ATOM     25  C   UNL     1      45.294   4.034   8.413  0.00  0.00    +0.000 A 
ATOM     26  C   UNL     1      44.558   3.023   9.004  0.00  0.00    +0.000 A 
ATOM     27  N   UNL     1      44.207   3.020  10.307  0.00  0.00    +0.000 NA
ATOM     28  C   UNL     1      44.629   4.075  11.048  0.00  0.00    +0.000 A 
ENDBRANCH  21  23
ENDBRANCH   1  17
TORSDOF 4
ENDMDL
MODEL 5
REMARK VINA RESULT:    -6.310      1.814      2.964
REMARK INTER + INTRA:          -8.472
REMARK INTER:                  -7.728
REMARK INTRA:                  -0.744
REMARK UNBOUND:                -0.687
REMARK  Name = 
REMARK  4 active torsions:
REMARK  status: ('A' for Active; 'I' for Inactive)
REMARK    1  A    between atoms: C_2  and  C_4
REMARK    2  A    between atoms: N_8  and  C_9
REMARK    3  A    between atoms: C_9  and  C_10
REMARK    4  A    between atoms: C_14  and  C_15
REMARK                            x       y       z     vdW  Elec       q    Type
REMARK                         _______ _______ _______ _____ _____    ______ ____
ROOT
ATOM      1  C   UNL     1      45.554   7.934  12.311  0.00  0.00    +0.000 C 
ATOM      2  C   UNL     1      45.126   9.258  12.909  0.00  0.00    +0.000 C 
ATOM      3  C   UNL     1      45.177   9.097  11.423  0.00  0.00    +0.000 C 
ENDROOT
BRANCH   1   8
ATOM      4  C   UNL     1      44.972   3.638   9.540  0.00  0.00    +0.000 A 
ATOM      5  C   UNL     1      45.705   4.787   9.299  0.00  0.00    +0.000 A 
ATOM      6  C   UNL     1      45.517   5.880  10.137  0.00  0.00    +0.000 A 
ATOM      7  C   UNL     1      44.690   5.790  11.256  0.00  0.00    +0.000 A 
ATOM      8  N   UNL     1      44.614   6.802  12.223  0.00  0.00    +0.000 N 
ATOM      9  N   UNL     1      43.921   4.701  11.456  0.00  0.00    +0.000 NA
ATOM     10  C   UNL     1      44.054   3.665  10.580  0.00  0.00    +0.000 A 
ATOM     11  H   UNL     1      44.057   6.506  13.015  0.00  0.00    +0.000 HD
BRANCH   4  13
ATOM     12  N   UNL     1      44.428   1.312   9.131  0.00  0.00    +0.000 N 
ATOM     13  C   UNL     1      45.151   2.411   8.741  0.00  0.00    +0.000 C 
ATOM     14  O   UNL     1      45.861   2.405   7.749  0.00  0.00    +0.000 OA
ATOM     15  H   UNL     1      44.443   0.522   8.499  0.00  0.00    +0.000 HD
ATOM     16  H   UNL     1      43.660   1.372   9.786  0.00  0.00    +0.000 HD
ENDBRANCH   4  13
ENDBRANCH   1   8
BRANCH   1  17
ATOM     17  C   UNL     1      47.012   7.503  12.540  0.00  0.00    +0.000 A 
ATOM     18  C   UNL     1      48.068   8.155  11.885  0.00  0.00    +0.000 A 
ATOM     19  C   UNL     1      49.365   8.114  12.400  0.00  0.00    +0.000 A 
ATOM     20  C   UNL     1      49.617   7.449  13.602  0.00  0.00    +0.000 A 
ATOM     21  C   UNL     1      48.605   6.722  14.244  0.00  0.00    +0.000 A 
ATOM     22  C   UNL     1      47.350   6.660  13.614  0.00  0.00    +0.000 A 
BRANCH  21  23
ATOM     23  C   UNL     1      48.748   6.221  15.626  0.00  0.00    +0.000 A 
ATOM     24  C   UNL     1      49.776   6.635  16.483  0.00  0.00    +0.000 A 
ATOM     25  C   UNL     1      49.951   6.031  17.728  0.00  0.00    +0.000 A 
ATOM     26  C   UNL     1      49.085   5.017  18.095  0.00  0.00    +0.000 A 
ATOM     27  N   UNL     1      48.084   4.570  17.309  0.00  0.00    +0.000 NA
ATOM     28  C   UNL     1      47.940   5.184  16.108  0.00  0.00    +0.000 A 
ENDBRANCH  21  23
ENDBRANCH   1  17
TORSDOF 4
ENDMDL
MODEL 6
REMARK VINA RESULT:    -6.304      3.707      7.753
REMARK INTER + INTRA:          -8.465
REMARK INTER:                  -7.362
REMARK INTRA:                  -1.103
REMARK UNBOUND:                -0.687
REMARK  Name = 
REMARK  4 active torsions:
REMARK  status: ('A' for Active; 'I' for Inactive)
REMARK    1  A    between atoms: C_2  and  C_4
REMARK    2  A    between atoms: N_8  and  C_9
REMARK    3  A    between atoms: C_9  and  C_10
REMARK    4  A    between atoms: C_14  and  C_15
REMARK                            x       y       z     vdW  Elec       q    Type
REMARK                         _______ _______ _______ _____ _____    ______ ____
ROOT
ATOM      1  C   UNL     1      49.107   8.856  16.148  0.00  0.00    +0.000 C 
ATOM      2  C   UNL     1      48.817  10.267  16.617  0.00  0.00    +0.000 C 
ATOM      3  C   UNL     1      47.906   9.151  17.017  0.00  0.00    +0.000 C 
ENDROOT
BRANCH   1   8
ATOM      4  C   UNL     1      49.997   3.873  17.071  0.00  0.00    +0.000 A 
ATOM      5  C   UNL     1      48.837   4.544  16.726  0.00  0.00    +0.000 A 
ATOM      6  C   UNL     1      48.849   5.934  16.734  0.00  0.00    +0.000 A 
ATOM      7  C   UNL     1      50.027   6.638  16.980  0.00  0.00    +0.000 A 
ATOM      8  N   UNL     1      50.124   8.027  16.819  0.00  0.00    +0.000 N 
ATOM      9  N   UNL     1      51.140   5.995  17.385  0.00  0.00    +0.000 NA
ATOM     10  C   UNL     1      51.093   4.634  17.451  0.00  0.00    +0.000 A 
ATOM     11  H   UNL     1      51.082   8.339  16.927  0.00  0.00    +0.000 HD
BRANCH   4  13
ATOM     12  N   UNL     1      50.859   1.809  18.005  0.00  0.00    +0.000 N 
ATOM     13  C   UNL     1      50.095   2.402  17.030  0.00  0.00    +0.000 C 
ATOM     14  O   UNL     1      49.473   1.754  16.206  0.00  0.00    +0.000 OA
ATOM     15  H   UNL     1      50.804   0.800  18.059  0.00  0.00    +0.000 HD
ATOM     16  H   UNL     1      51.169   2.306  18.828  0.00  0.00    +0.000 HD
ENDBRANCH   4  13
ENDBRANCH   1   8
BRANCH   1  17
ATOM     17  C   UNL     1      48.992   8.584  14.640  0.00  0.00    +0.000 A 
ATOM     18  C   UNL     1      50.106   8.717  13.797  0.00  0.00    +0.000 A 
ATOM     19  C   UNL     1      50.159   8.055  12.569  0.00  0.00    +0.000 A 
ATOM     20  C   UNL     1      49.109   7.219  12.183  0.00  0.00    +0.000 A 
ATOM     21  C   UNL     1      47.947   7.121  12.961  0.00  0.00    +0.000 A 
ATOM     22  C   UNL     1      47.868   7.922  14.113  0.00  0.00    +0.000 A 
BRANCH  21  23
ATOM     23  C   UNL     1      46.930   6.074  12.736  0.00  0.00    +0.000 A 
ATOM     24  C   UNL     1      46.111   6.043  11.600  0.00  0.00    +0.000 A 
ATOM     25  C   UNL     1      45.072   5.117  11.498  0.00  0.00    +0.000 A 
ATOM     26  C   UNL     1      44.873   4.233  12.543  0.00  0.00    +0.000 A 
ATOM     27  N   UNL     1      45.623   4.223  13.664  0.00  0.00    +0.000 NA
ATOM     28  C   UNL     1      46.627   5.133  13.727  0.00  0.00    +0.000 A 
ENDBRANCH  21  23
ENDBRANCH   1  17
TORSDOF 4
ENDMDL
