MODEL 1
REMARK VINA RESULT:    -7.379      0.000      0.000
REMARK INTER + INTRA:         -11.460
REMARK INTER:                 -10.398
REMARK INTRA:                  -1.061
REMARK UNBOUND:                -1.061
REMARK  Name = 
REMARK  7 active torsions:
REMARK  status: ('A' for Active; 'I' for Inactive)
REMARK    1  A    between atoms: C_2  and  C_19
REMARK    2  A    between atoms: N_3  and  C_4
REMARK    3  A    between atoms: C_4  and  C_5
REMARK    4  A    between atoms: C_8  and  C_9
REMARK    5  A    between atoms: C_9  and  N_10
REMARK    6  A    between atoms: N_10  and  C_11
REMARK    7  A    between atoms: C_11  and  C_12
REMARK                            x       y       z     vdW  Elec       q    Type
REMARK                         _______ _______ _______ _____ _____    ______ ____
ROOT
ATOM      1  C   UNL     1      47.564   7.356  13.395  0.00  0.00    +0.000 C 
ENDROOT
BRANCH   1   2
ATOM      2  C   UNL     1      46.658   6.460  12.603  0.00  0.00    +0.000 A 
ATOM      3  C   UNL     1      45.958   5.419  13.214  0.00  0.00    +0.000 A 
ATOM      4  C   UNL     1      45.150   4.581  12.447  0.00  0.00    +0.000 A 
ATOM      5  C   UNL     1      45.037   4.817  11.079  0.00  0.00    +0.000 A 
ATOM      6  N   UNL     1      45.691   5.835  10.463  0.00  0.00    +0.000 NA
ATOM      7  C   UNL     1      46.480   6.627  11.233  0.00  0.00    +0.000 A 
BRANCH   5   8
ATOM      8  C   UNL     1      44.170   3.911  10.217  0.00  0.00    +0.000 C 
BRANCH   8   9
ATOM      9  N   UNL     1      44.149   4.249   8.782  0.00  0.00    +0.000 NA
ATOM     10  H   UNL     1      44.727   5.086   8.672  0.00  0.00    +0.000 HD
BRANCH   9  11
ATOM     11  C   UNL     1      44.723   3.183   7.946  0.00  0.00    +0.000 C 
BRANCH  11  12
ATOM     12  C   UNL     1      46.277   3.238   7.940  0.00  0.00    +0.000 C 
ATOM     13  C   UNL     1      46.908   1.887   7.633  0.00  0.00    +0.000 C 
ATOM     14  C   UNL     1      46.889   1.828   6.119  0.00  0.00    +0.000 C 
ATOM     15  C   UNL     1      47.034   3.281   5.688  0.00  0.00    +0.000 C 
ATOM     16  N   UNL     1      46.845   4.100   6.889  0.00  0.00    +0.000 NA
ATOM     17  H   UNL     1      46.212   4.882   6.713  0.00  0.00    +0.000 HD
ENDBRANCH  11  12
ENDBRANCH   9  11
ENDBRANCH   8   9
ENDBRANCH   5   8
ENDBRANCH   1   2
BRANCH   1  20
ATOM     18  O   UNL     1      50.045   7.038  14.619  0.00  0.00    +0.000 OA
ATOM     19  C   UNL     1      49.034   6.810  15.274  0.00  0.00    +0.000 C 
ATOM     20  N   UNL     1      47.773   6.876  14.733  0.00  0.00    +0.000 N 
ATOM     21  H   UNL     1      46.969   6.877  15.352  0.00  0.00    +0.000 HD
BRANCH  19  22
ATOM     22  C   UNL     1      49.096   6.399  16.678  0.00  0.00    +0.000 A 
ATOM     23  C   UNL     1      49.563   7.263  17.659  0.00  0.00    +0.000 A 
ATOM     24  S   UNL     1      49.591   6.560  19.216  0.00  0.00    +0.000 S 
ATOM     25  C   UNL     1      48.937   5.101  18.632  0.00  0.00    +0.000 A 
ATOM     26  N   UNL     1      48.694   4.049  19.468  0.00  0.00    +0.000 NA
ATOM     27  C   UNL     1      48.169   3.025  18.881  0.00  0.00    +0.000 A 
ATOM     28  N   UNL     1      47.873   2.943  17.549  0.00  0.00    +0.000 N 
ATOM     29  C   UNL     1      48.143   3.949  16.662  0.00  0.00    +0.000 A 
ATOM     30  O   UNL     1      47.938   3.813  15.461  0.00  0.00    +0.000 OA
ATOM     31  C   UNL     1      48.714   5.142  17.270  0.00  0.00    +0.000 A 
ATOM     32  H   UNL     1      47.486   2.099  17.150  0.00  0.00    +0.000 HD
ENDBRANCH  19  22
ENDBRANCH   1  20
TORSDOF 7
ENDMDL
MODEL 2
REMARK VINA RESULT:    -7.170      4.230      9.261
REMARK INTER + INTRA:         -11.165
REMARK INTER:                 -10.368
REMARK INTRA:                  -0.797
REMARK UNBOUND:                -1.061
REMARK  Name = 
REMARK  7 active torsions:
REMARK  status: ('A' for Active; 'I' for Inactive)
REMARK    1  A    between atoms: C_2  and  C_19
REMARK    2  A    between atoms: N_3  and  C_4
REMARK    3  A    between atoms: C_4  and  C_5
REMARK    4  A    between atoms: C_8  and  C_9
REMARK    5  A    between atoms: C_9  and  N_10
REMARK    6  A    between atoms: N_10  and  C_11
REMARK    7  A    between atoms: C_11  and  C_12
REMARK                            x       y       z     vdW  Elec       q    Type
REMARK                         _______ _______ _______ _____ _____    ______ ____
ROOT
ATOM      1  C   UNL     1      47.111   3.575  16.804  0.00  0.00    +0.000 C 
ENDROOT
BRANCH   1   2
ATOM      2  C   UNL     1      48.574   3.526  17.135  0.00  0.00    +0.000 A 
ATOM      3  C   UNL     1      49.305   2.345  17.007  0.00  0.00    +0.000 A 
ATOM      4  C   UNL     1      50.655   2.322  17.354  0.00  0.00    +0.000 A 
ATOM      5  C   UNL     1      51.258   3.496  17.800  0.00  0.00    +0.000 A 
ATOM      6  N   UNL     1      50.575   4.663  17.915  0.00  0.00    +0.000 NA
ATOM      7  C   UNL     1      49.259   4.652  17.581  0.00  0.00    +0.000 A 
BRANCH   5   8
ATOM      8  C   UNL     1      52.728   3.496  18.195  0.00  0.00    +0.000 C 
BRANCH   8   9
ATOM      9  N   UNL     1      53.174   2.302  18.937  0.00  0.00    +0.000 NA
ATOM     10  H   UNL     1      52.354   1.698  19.036  0.00  0.00    +0.000 HD
BRANCH   9  11
ATOM     11  C   UNL     1      54.213   1.550  18.217  0.00  0.00    +0.000 C 
BRANCH  11  12
ATOM     12  C   UNL     1      53.627   0.283  17.531  0.00  0.00    +0.000 C 
ATOM     13  C   UNL     1      54.672  -0.485  16.735  0.00  0.00    +0.000 C 
ATOM     14  C   UNL     1      55.348  -1.347  17.782  0.00  0.00    +0.000 C 
ATOM     15  C   UNL     1      54.248  -1.631  18.796  0.00  0.00    +0.000 C 
ATOM     16  N   UNL     1      53.132  -0.737  18.472  0.00  0.00    +0.000 NA
ATOM     17  H   UNL     1      52.766  -0.277  19.308  0.00  0.00    +0.000 HD
ENDBRANCH  11  12
ENDBRANCH   9  11
ENDBRANCH   8   9
ENDBRANCH   5   8
ENDBRANCH   1   2
BRANCH   1  20
ATOM     18  O   UNL     1      47.262   3.139  14.058  0.00  0.00    +0.000 OA
ATOM     19  C   UNL     1      46.857   4.224  14.459  0.00  0.00    +0.000 C 
ATOM     20  N   UNL     1      46.813   4.550  15.793  0.00  0.00    +0.000 N 
ATOM     21  H   UNL     1      46.291   5.370  16.085  0.00  0.00    +0.000 HD
BRANCH  19  22
ATOM     22  C   UNL     1      46.433   5.282  13.538  0.00  0.00    +0.000 A 
ATOM     23  C   UNL     1      47.273   6.341  13.226  0.00  0.00    +0.000 A 
ATOM     24  S   UNL     1      46.557   7.479  12.171  0.00  0.00    +0.000 S 
ATOM     25  C   UNL     1      45.125   6.565  12.064  0.00  0.00    +0.000 A 
ATOM     26  N   UNL     1      44.074   6.981  11.298  0.00  0.00    +0.000 NA
ATOM     27  C   UNL     1      43.072   6.166  11.296  0.00  0.00    +0.000 A 
ATOM     28  N   UNL     1      43.011   4.988  11.987  0.00  0.00    +0.000 N 
ATOM     29  C   UNL     1      44.015   4.552  12.808  0.00  0.00    +0.000 A 
ATOM     30  O   UNL     1      43.895   3.530  13.476  0.00  0.00    +0.000 OA
ATOM     31  C   UNL     1      45.184   5.419  12.832  0.00  0.00    +0.000 A 
ATOM     32  H   UNL     1      42.184   4.409  11.961  0.00  0.00    +0.000 HD
ENDBRANCH  19  22
ENDBRANCH   1  20
TORSDOF 7
ENDMDL
MODEL 3
REMARK VINA RESULT:    -6.867      2.036      2.586
REMARK INTER + INTRA:         -10.739
REMARK INTER:                  -9.969
REMARK INTRA:                  -0.770
REMARK UNBOUND:                -1.061
REMARK  Name = 
REMARK  7 active torsions:
REMARK  status: ('A' for Active; 'I' for Inactive)
REMARK    1  A    between atoms: C_2  and  C_19
REMARK    2  A    between atoms: N_3  and  C_4
REMARK    3  A    between atoms: C_4  and  C_5
REMARK    4  A    between atoms: C_8  and  C_9
REMARK    5  A    between atoms: C_9  and  N_10
REMARK    6  A    between atoms: N_10  and  C_11
REMARK    7  A    between atoms: C_11  and  C_12
REMARK                            x       y       z     vdW  Elec       q    Type
REMARK                         _______ _______ _______ _____ _____    ______ ____
ROOT
ATOM      1  C   UNL     1      48.010   7.380  13.819  0.00  0.00    +0.000 C 
ENDROOT
BRANCH   1   2
ATOM      2  C   UNL     1      46.846   6.527  13.409  0.00  0.00    +0.000 A 
ATOM      3  C   UNL     1      45.908   6.982  12.481  0.00  0.00    +0.000 A 
ATOM      4  C   UNL     1      44.818   6.181  12.145  0.00  0.00    +0.000 A 
ATOM      5  C   UNL     1      44.700   4.921  12.727  0.00  0.00    +0.000 A 
ATOM      6  N   UNL     1      45.608   4.446  13.617  0.00  0.00    +0.000 NA
ATOM      7  C   UNL     1      46.653   5.253  13.934  0.00  0.00    +0.000 A 
BRANCH   5   8
ATOM      8  C   UNL     1      43.514   4.030  12.385  0.00  0.00    +0.000 C 
BRANCH   8   9
ATOM      9  N   UNL     1      43.865   2.715  11.818  0.00  0.00    +0.000 NA
ATOM     10  H   UNL     1      43.026   2.371  11.344  0.00  0.00    +0.000 HD
BRANCH   9  11
ATOM     11  C   UNL     1      44.947   2.802  10.826  0.00  0.00    +0.000 C 
BRANCH  11  12
ATOM     12  C   UNL     1      44.463   2.366   9.414  0.00  0.00    +0.000 C 
ATOM     13  C   UNL     1      44.512   3.503   8.403  0.00  0.00    +0.000 C 
ATOM     14  C   UNL     1      45.952   3.489   7.930  0.00  0.00    +0.000 C 
ATOM     15  C   UNL     1      46.360   2.026   8.024  0.00  0.00    +0.000 C 
ATOM     16  N   UNL     1      45.306   1.340   8.778  0.00  0.00    +0.000 NA
ATOM     17  H   UNL     1      45.699   0.731   9.498  0.00  0.00    +0.000 HD
ENDBRANCH  11  12
ENDBRANCH   9  11
ENDBRANCH   8   9
ENDBRANCH   5   8
ENDBRANCH   1   2
BRANCH   1  20
ATOM     18  O   UNL     1      49.676   6.254  15.745  0.00  0.00    +0.000 OA
ATOM     19  C   UNL     1      48.892   7.132  16.088  0.00  0.00    +0.000 C 
ATOM     20  N   UNL     1      47.988   7.695  15.221  0.00  0.00    +0.000 N 
ATOM     21  H   UNL     1      47.504   8.544  15.493  0.00  0.00    +0.000 HD
BRANCH  19  22
ATOM     22  C   UNL     1      48.824   7.614  17.469  0.00  0.00    +0.000 A 
ATOM     23  C   UNL     1      49.384   8.831  17.833  0.00  0.00    +0.000 A 
ATOM     24  S   UNL     1      49.228   9.172  19.500  0.00  0.00    +0.000 S 
ATOM     25  C   UNL     1      48.369   7.728  19.773  0.00  0.00    +0.000 A 
ATOM     26  N   UNL     1      47.920   7.396  21.020  0.00  0.00    +0.000 NA
ATOM     27  C   UNL     1      47.260   6.286  21.059  0.00  0.00    +0.000 A 
ATOM     28  N   UNL     1      47.012   5.475  19.987  0.00  0.00    +0.000 N 
ATOM     29  C   UNL     1      47.483   5.737  18.730  0.00  0.00    +0.000 A 
ATOM     30  O   UNL     1      47.310   4.948  17.806  0.00  0.00    +0.000 OA
ATOM     31  C   UNL     1      48.216   6.990  18.616  0.00  0.00    +0.000 A 
ATOM     32  H   UNL     1      46.509   4.605  20.094  0.00  0.00    +0.000 HD
ENDBRANCH  19  22
ENDBRANCH   1  20
TORSDOF 7
ENDMDL
MODEL 4
REMARK VINA RESULT:    -6.751      3.057      8.541
REMARK INTER + INTRA:         -10.576
REMARK INTER:                  -9.116
REMARK INTRA:                  -1.460
REMARK UNBOUND:                -1.061
REMARK  Name = 
REMARK  7 active torsions:
REMARK  status: ('A' for Active; 'I' for Inactive)
REMARK    1  A    between atoms: C_2  and  C_19
REMARK    2  A    between atoms: N_3  and  C_4
REMARK    3  A    between atoms: C_4  and  C_5
REMARK    4  A    between atoms: C_8  and  C_9
REMARK    5  A    between atoms: C_9  and  N_10
REMARK    6  A    between atoms: N_10  and  C_11
REMARK    7  A    between atoms: C_11  and  C_12
REMARK                            x       y       z     vdW  Elec       q    Type
REMARK                         _______ _______ _______ _____ _____    ______ ____
ROOT
ATOM      1  C   UNL     1      47.378   7.740  12.040  0.00  0.00    +0.000 C 
ENDROOT
BRANCH   1   2
ATOM      2  C   UNL     1      48.045   7.844  13.380  0.00  0.00    +0.000 A 
ATOM      3  C   UNL     1      47.664   8.817  14.304  0.00  0.00    +0.000 A 
ATOM      4  C   UNL     1      48.325   8.911  15.528  0.00  0.00    +0.000 A 
ATOM      5  C   UNL     1      49.345   8.007  15.816  0.00  0.00    +0.000 A 
ATOM      6  N   UNL     1      49.723   7.038  14.944  0.00  0.00    +0.000 NA
ATOM      7  C   UNL     1      49.068   6.978  13.756  0.00  0.00    +0.000 A 
BRANCH   5   8
ATOM      8  C   UNL     1      50.090   8.094  17.140  0.00  0.00    +0.000 C 
BRANCH   8   9
ATOM      9  N   UNL     1      50.588   6.808  17.662  0.00  0.00    +0.000 NA
ATOM     10  H   UNL     1      51.355   7.031  18.300  0.00  0.00    +0.000 HD
BRANCH   9  11
ATOM     11  C   UNL     1      49.562   6.075  18.419  0.00  0.00    +0.000 C 
BRANCH  11  12
ATOM     12  C   UNL     1      49.514   4.575  18.010  0.00  0.00    +0.000 C 
ATOM     13  C   UNL     1      48.359   3.829  18.662  0.00  0.00    +0.000 C 
ATOM     14  C   UNL     1      47.187   4.131  17.750  0.00  0.00    +0.000 C 
ATOM     15  C   UNL     1      47.817   4.281  16.372  0.00  0.00    +0.000 C 
ATOM     16  N   UNL     1      49.268   4.350  16.575  0.00  0.00    +0.000 NA
ATOM     17  H   UNL     1      49.685   5.111  16.037  0.00  0.00    +0.000 HD
ENDBRANCH  11  12
ENDBRANCH   9  11
ENDBRANCH   8   9
ENDBRANCH   5   8
ENDBRANCH   1   2
BRANCH   1  20
ATOM     18  O   UNL     1      44.621   7.489  11.744  0.00  0.00    +0.000 OA
ATOM     19  C   UNL     1      45.313   6.479  11.677  0.00  0.00    +0.000 C 
ATOM     20  N   UNL     1      46.671   6.500  11.879  0.00  0.00    +0.000 N 
ATOM     21  H   UNL     1      47.222   5.688  11.619  0.00  0.00    +0.000 HD
BRANCH  19  22
ATOM     22  C   UNL     1      44.733   5.157  11.426  0.00  0.00    +0.000 A 
ATOM     23  C   UNL     1      43.937   4.531  12.374  0.00  0.00    +0.000 A 
ATOM     24  S   UNL     1      43.407   2.980  11.889  0.00  0.00    +0.000 S 
ATOM     25  C   UNL     1      44.187   3.122  10.383  0.00  0.00    +0.000 A 
ATOM     26  N   UNL     1      44.128   2.120   9.457  0.00  0.00    +0.000 NA
ATOM     27  C   UNL     1      44.744   2.390   8.353  0.00  0.00    +0.000 A 
ATOM     28  N   UNL     1      45.417   3.550   8.088  0.00  0.00    +0.000 N 
ATOM     29  C   UNL     1      45.549   4.561   8.999  0.00  0.00    +0.000 A 
ATOM     30  O   UNL     1      46.226   5.555   8.757  0.00  0.00    +0.000 OA
ATOM     31  C   UNL     1      44.853   4.326  10.256  0.00  0.00    +0.000 A 
ATOM     32  H   UNL     1      45.900   3.685   7.210  0.00  0.00    +0.000 HD
ENDBRANCH  19  22
ENDBRANCH   1  20
TORSDOF 7
ENDMDL
MODEL 5
REMARK VINA RESULT:    -6.714      2.304      3.144
REMARK INTER + INTRA:         -10.523
REMARK INTER:                  -9.709
REMARK INTRA:                  -0.815
REMARK UNBOUND:                -1.061
REMARK  Name = 
REMARK  7 active torsions:
REMARK  status: ('A' for Active; 'I' for Inactive)
REMARK    1  A    between atoms: C_2  and  C_19
REMARK    2  A    between atoms: N_3  and  C_4
REMARK    3  A    between atoms: C_4  and  C_5
REMARK    4  A    between atoms: C_8  and  C_9
REMARK    5  A    between atoms: C_9  and  N_10
REMARK    6  A    between atoms: N_10  and  C_11
REMARK    7  A    between atoms: C_11  and  C_12
REMARK                            x       y       z     vdW  Elec       q    Type
REMARK                         _______ _______ _______ _____ _____    ______ ____
ROOT
ATOM      1  C   UNL     1      47.148   4.226  14.930  0.00  0.00    +0.000 C 
ENDROOT
BRANCH   1   2
ATOM      2  C   UNL     1      46.482   4.322  13.589  0.00  0.00    +0.000 A 
ATOM      3  C   UNL     1      46.404   5.536  12.906  0.00  0.00    +0.000 A 
ATOM      4  C   UNL     1      45.749   5.602  11.677  0.00  0.00    +0.000 A 
ATOM      5  C   UNL     1      45.205   4.439  11.138  0.00  0.00    +0.000 A 
ATOM      6  N   UNL     1      45.284   3.241  11.772  0.00  0.00    +0.000 NA
ATOM      7  C   UNL     1      45.917   3.210  12.972  0.00  0.00    +0.000 A 
BRANCH   5   8
ATOM      8  C   UNL     1      44.475   4.485   9.804  0.00  0.00    +0.000 C 
BRANCH   8   9
ATOM      9  N   UNL     1      45.244   5.077   8.693  0.00  0.00    +0.000 NA
ATOM     10  H   UNL     1      45.637   5.953   9.047  0.00  0.00    +0.000 HD
BRANCH   9  11
ATOM     11  C   UNL     1      46.356   4.218   8.260  0.00  0.00    +0.000 C 
BRANCH  11  12
ATOM     12  C   UNL     1      45.854   3.030   7.390  0.00  0.00    +0.000 C 
ATOM     13  C   UNL     1      46.470   3.024   5.999  0.00  0.00    +0.000 C 
ATOM     14  C   UNL     1      47.800   2.329   6.208  0.00  0.00    +0.000 C 
ATOM     15  C   UNL     1      47.535   1.351   7.343  0.00  0.00    +0.000 C 
ATOM     16  N   UNL     1      46.229   1.703   7.909  0.00  0.00    +0.000 NA
ATOM     17  H   UNL     1      46.260   1.736   8.930  0.00  0.00    +0.000 HD
ENDBRANCH  11  12
ENDBRANCH   9  11
ENDBRANCH   8   9
ENDBRANCH   5   8
ENDBRANCH   1   2
BRANCH   1  20
ATOM     18  O   UNL     1      49.249   4.763  16.676  0.00  0.00    +0.000 OA
ATOM     19  C   UNL     1      48.559   5.697  16.284  0.00  0.00    +0.000 C 
ATOM     20  N   UNL     1      47.462   5.517  15.476  0.00  0.00    +0.000 N 
ATOM     21  H   UNL     1      47.047   6.322  15.019  0.00  0.00    +0.000 HD
BRANCH  19  22
ATOM     22  C   UNL     1      48.822   7.080  16.689  0.00  0.00    +0.000 A 
ATOM     23  C   UNL     1      49.512   7.952  15.860  0.00  0.00    +0.000 A 
ATOM     24  S   UNL     1      49.744   9.497  16.552  0.00  0.00    +0.000 S 
ATOM     25  C   UNL     1      48.889   9.059  17.957  0.00  0.00    +0.000 A 
ATOM     26  N   UNL     1      48.707   9.944  18.981  0.00  0.00    +0.000 NA
ATOM     27  C   UNL     1      48.013   9.473  19.963  0.00  0.00    +0.000 A 
ATOM     28  N   UNL     1      47.493   8.210  20.029  0.00  0.00    +0.000 N 
ATOM     29  C   UNL     1      47.690   7.271  19.055  0.00  0.00    +0.000 A 
ATOM     30  O   UNL     1      47.277   6.123  19.181  0.00  0.00    +0.000 OA
ATOM     31  C   UNL     1      48.446   7.752  17.907  0.00  0.00    +0.000 A 
ATOM     32  H   UNL     1      46.980   7.898  20.842  0.00  0.00    +0.000 HD
ENDBRANCH  19  22
ENDBRANCH   1  20
TORSDOF 7
ENDMDL
MODEL 6
REMARK VINA RESULT:    -6.699      4.245      9.245
REMARK INTER + INTRA:         -10.502
REMARK INTER:                  -9.449
REMARK INTRA:                  -1.053
REMARK UNBOUND:                -1.061
REMARK  Name = 
REMARK  7 active torsions:
REMARK  status: ('A' for Active; 'I' for Inactive)
REMARK    1  A    between atoms: C_2  and  C_19
REMARK    2  A    between atoms: N_3  and  C_4
REMARK    3  A    between atoms: C_4  and  C_5
REMARK    4  A    between atoms: C_8  and  C_9
REMARK    5  A    between atoms: C_9  and  N_10
REMARK    6  A    between atoms: N_10  and  C_11
REMARK    7  A    between atoms: C_11  and  C_12
REMARK                            x       y       z     vdW  Elec       q    Type
REMARK                         _______ _______ _______ _____ _____    ______ ____
ROOT
ATOM      1  C   UNL     1      47.157   3.435  16.950  0.00  0.00    +0.000 C 
ENDROOT
BRANCH   1   2
ATOM      2  C   UNL     1      48.632   3.376  17.221  0.00  0.00    +0.000 A 
ATOM      3  C   UNL     1      49.362   2.210  16.992  0.00  0.00    +0.000 A 
ATOM      4  C   UNL     1      50.725   2.174  17.286  0.00  0.00    +0.000 A 
ATOM      5  C   UNL     1      51.340   3.322  17.780  0.00  0.00    +0.000 A 
ATOM      6  N   UNL     1      50.657   4.475  17.994  0.00  0.00    +0.000 NA
ATOM      7  C   UNL     1      49.329   4.477  17.710  0.00  0.00    +0.000 A 
BRANCH   5   8
ATOM      8  C   UNL     1      52.823   3.307  18.119  0.00  0.00    +0.000 C 
BRANCH   8   9
ATOM      9  N   UNL     1      53.253   2.200  18.993  0.00  0.00    +0.000 NA
ATOM     10  H   UNL     1      52.436   1.597  19.120  0.00  0.00    +0.000 HD
BRANCH   9  11
ATOM     11  C   UNL     1      54.326   1.394  18.392  0.00  0.00    +0.000 C 
BRANCH  11  12
ATOM     12  C   UNL     1      53.759   0.145  17.658  0.00  0.00    +0.000 C 
ATOM     13  C   UNL     1      54.846  -0.679  16.984  0.00  0.00    +0.000 C 
ATOM     14  C   UNL     1      55.368  -1.556  18.105  0.00  0.00    +0.000 C 
ATOM     15  C   UNL     1      54.156  -1.777  18.999  0.00  0.00    +0.000 C 
ATOM     16  N   UNL     1      53.122  -0.839  18.550  0.00  0.00    +0.000 NA
ATOM     17  H   UNL     1      52.691  -0.352  19.338  0.00  0.00    +0.000 HD
ENDBRANCH  11  12
ENDBRANCH   9  11
ENDBRANCH   8   9
ENDBRANCH   5   8
ENDBRANCH   1   2
BRANCH   1  20
ATOM     18  O   UNL     1      47.319   3.025  14.201  0.00  0.00    +0.000 OA
ATOM     19  C   UNL     1      46.879   4.094  14.610  0.00  0.00    +0.000 C 
ATOM     20  N   UNL     1      46.826   4.408  15.946  0.00  0.00    +0.000 N 
ATOM     21  H   UNL     1      46.278   5.208  16.245  0.00  0.00    +0.000 HD
BRANCH  19  22
ATOM     22  C   UNL     1      46.420   5.144  13.697  0.00  0.00    +0.000 A 
ATOM     23  C   UNL     1      45.225   5.020  13.003  0.00  0.00    +0.000 A 
ATOM     24  S   UNL     1      44.911   6.339  11.964  0.00  0.00    +0.000 S 
ATOM     25  C   UNL     1      46.336   7.133  12.447  0.00  0.00    +0.000 A 
ATOM     26  N   UNL     1      46.680   8.350  11.929  0.00  0.00    +0.000 NA
ATOM     27  C   UNL     1      47.773   8.836  12.417  0.00  0.00    +0.000 A 
ATOM     28  N   UNL     1      48.558   8.228  13.357  0.00  0.00    +0.000 N 
ATOM     29  C   UNL     1      48.285   6.989  13.868  0.00  0.00    +0.000 A 
ATOM     30  O   UNL     1      49.052   6.439  14.651  0.00  0.00    +0.000 OA
ATOM     31  C   UNL     1      47.049   6.399  13.374  0.00  0.00    +0.000 A 
ATOM     32  H   UNL     1      49.417   8.655  13.676  0.00  0.00    +0.000 HD
ENDBRANCH  19  22
ENDBRANCH   1  20
TORSDOF 7
ENDMDL
MODEL 7
REMARK VINA RESULT:    -6.611      1.803      3.322
REMARK INTER + INTRA:         -10.377
REMARK INTER:                  -9.386
REMARK INTRA:                  -0.991
REMARK UNBOUND:                -1.061
REMARK  Name = 
REMARK  7 active torsions:
REMARK  status: ('A' for Active; 'I' for Inactive)
REMARK    1  A    between atoms: C_2  and  C_19
REMARK    2  A    between atoms: N_3  and  C_4
REMARK    3  A    between atoms: C_4  and  C_5
REMARK    4  A    between atoms: C_8  and  C_9
REMARK    5  A    between atoms: C_9  and  N_10
REMARK    6  A    between atoms: N_10  and  C_11
REMARK    7  A    between atoms: C_11  and  C_12
REMARK                            x       y       z     vdW  Elec       q    Type
REMARK                         _______ _______ _______ _____ _____    ______ ____
ROOT
ATOM      1  C   UNL     1      47.295   3.987  14.654  0.00  0.00    +0.000 C 
ENDROOT
BRANCH   1   2
ATOM      2  C   UNL     1      46.458   4.162  13.421  0.00  0.00    +0.000 A 
ATOM      3  C   UNL     1      46.347   5.402  12.793  0.00  0.00    +0.000 A 
ATOM      4  C   UNL     1      45.535   5.542  11.668  0.00  0.00    +0.000 A 
ATOM      5  C   UNL     1      44.866   4.425  11.174  0.00  0.00    +0.000 A 
ATOM      6  N   UNL     1      44.972   3.202  11.754  0.00  0.00    +0.000 NA
ATOM      7  C   UNL     1      45.761   3.099  12.855  0.00  0.00    +0.000 A 
BRANCH   5   8
ATOM      8  C   UNL     1      43.965   4.551   9.954  0.00  0.00    +0.000 C 
BRANCH   8   9
ATOM      9  N   UNL     1      44.670   4.780   8.680  0.00  0.00    +0.000 NA
ATOM     10  H   UNL     1      45.517   5.306   8.907  0.00  0.00    +0.000 HD
BRANCH   9  11
ATOM     11  C   UNL     1      45.071   3.525   8.027  0.00  0.00    +0.000 C 
BRANCH  11  12
ATOM     12  C   UNL     1      46.597   3.502   7.725  0.00  0.00    +0.000 C 
ATOM     13  C   UNL     1      47.132   2.091   7.530  0.00  0.00    +0.000 C 
ATOM     14  C   UNL     1      46.824   1.797   6.075  0.00  0.00    +0.000 C 
ATOM     15  C   UNL     1      46.911   3.156   5.395  0.00  0.00    +0.000 C 
ATOM     16  N   UNL     1      46.970   4.161   6.461  0.00  0.00    +0.000 NA
ATOM     17  H   UNL     1      46.329   4.935   6.281  0.00  0.00    +0.000 HD
ENDBRANCH  11  12
ENDBRANCH   9  11
ENDBRANCH   8   9
ENDBRANCH   5   8
ENDBRANCH   1   2
BRANCH   1  20
ATOM     18  O   UNL     1      49.175   4.452  16.654  0.00  0.00    +0.000 OA
ATOM     19  C   UNL     1      48.427   5.367  16.328  0.00  0.00    +0.000 C 
ATOM     20  N   UNL     1      47.427   5.208  15.400  0.00  0.00    +0.000 N 
ATOM     21  H   UNL     1      46.970   6.031  15.019  0.00  0.00    +0.000 HD
BRANCH  19  22
ATOM     22  C   UNL     1      48.511   6.694  16.942  0.00  0.00    +0.000 A 
ATOM     23  C   UNL     1      48.225   6.882  18.287  0.00  0.00    +0.000 A 
ATOM     24  S   UNL     1      48.342   8.514  18.778  0.00  0.00    +0.000 S 
ATOM     25  C   UNL     1      48.823   9.008  17.222  0.00  0.00    +0.000 A 
ATOM     26  N   UNL     1      49.097  10.318  16.947  0.00  0.00    +0.000 NA
ATOM     27  C   UNL     1      49.477  10.528  15.730  0.00  0.00    +0.000 A 
ATOM     28  N   UNL     1      49.602   9.569  14.764  0.00  0.00    +0.000 N 
ATOM     29  C   UNL     1      49.292   8.254  14.975  0.00  0.00    +0.000 A 
ATOM     30  O   UNL     1      49.339   7.433  14.064  0.00  0.00    +0.000 OA
ATOM     31  C   UNL     1      48.879   7.949  16.337  0.00  0.00    +0.000 A 
ATOM     32  H   UNL     1      49.881   9.808  13.823  0.00  0.00    +0.000 HD
ENDBRANCH  19  22
ENDBRANCH   1  20
TORSDOF 7
ENDMDL
MODEL 8
REMARK VINA RESULT:    -6.232      3.798      8.898
REMARK INTER + INTRA:          -9.844
REMARK INTER:                  -8.508
REMARK INTRA:                  -1.336
REMARK UNBOUND:                -1.061
REMARK  Name = 
REMARK  7 active torsions:
REMARK  status: ('A' for Active; 'I' for Inactive)
REMARK    1  A    between atoms: C_2  and  C_19
REMARK    2  A    between atoms: N_3  and  C_4
REMARK    3  A    between atoms: C_4  and  C_5
REMARK    4  A    between atoms: C_8  and  C_9
REMARK    5  A    between atoms: C_9  and  N_10
REMARK    6  A    between atoms: N_10  and  C_11
REMARK    7  A    between atoms: C_11  and  C_12
REMARK                            x       y       z     vdW  Elec       q    Type
REMARK                         _______ _______ _______ _____ _____    ______ ____
ROOT
ATOM      1  C   UNL     1      47.140   3.553  16.816  0.00  0.00    +0.000 C 
ENDROOT
BRANCH   1   2
ATOM      2  C   UNL     1      48.455   3.828  17.484  0.00  0.00    +0.000 A 
ATOM      3  C   UNL     1      49.602   3.109  17.145  0.00  0.00    +0.000 A 
ATOM      4  C   UNL     1      50.802   3.362  17.806  0.00  0.00    +0.000 A 
ATOM      5  C   UNL     1      50.840   4.355  18.783  0.00  0.00    +0.000 A 
ATOM      6  N   UNL     1      49.744   5.082  19.119  0.00  0.00    +0.000 NA
ATOM      7  C   UNL     1      48.586   4.805  18.466  0.00  0.00    +0.000 A 
BRANCH   5   8
ATOM      8  C   UNL     1      52.134   4.645  19.528  0.00  0.00    +0.000 C 
BRANCH   8   9
ATOM      9  N   UNL     1      53.174   5.323  18.732  0.00  0.00    +0.000 NA
ATOM     10  H   UNL     1      53.054   5.006  17.767  0.00  0.00    +0.000 HD
BRANCH   9  11
ATOM     11  C   UNL     1      53.031   6.787  18.753  0.00  0.00    +0.000 C 
BRANCH  11  12
ATOM     12  C   UNL     1      53.263   7.403  17.344  0.00  0.00    +0.000 C 
ATOM     13  C   UNL     1      52.731   6.518  16.226  0.00  0.00    +0.000 C 
ATOM     14  C   UNL     1      51.262   6.883  16.160  0.00  0.00    +0.000 C 
ATOM     15  C   UNL     1      51.223   8.347  16.575  0.00  0.00    +0.000 C 
ATOM     16  N   UNL     1      52.547   8.670  17.115  0.00  0.00    +0.000 NA
ATOM     17  H   UNL     1      52.477   9.183  17.996  0.00  0.00    +0.000 HD
ENDBRANCH  11  12
ENDBRANCH   9  11
ENDBRANCH   8   9
ENDBRANCH   5   8
ENDBRANCH   1   2
BRANCH   1  20
ATOM     18  O   UNL     1      47.301   3.169  14.063  0.00  0.00    +0.000 OA
ATOM     19  C   UNL     1      46.869   4.237  14.482  0.00  0.00    +0.000 C 
ATOM     20  N   UNL     1      46.818   4.539  15.821  0.00  0.00    +0.000 N 
ATOM     21  H   UNL     1      46.276   5.340  16.128  0.00  0.00    +0.000 HD
BRANCH  19  22
ATOM     22  C   UNL     1      46.420   5.300  13.580  0.00  0.00    +0.000 A 
ATOM     23  C   UNL     1      47.230   6.389  13.292  0.00  0.00    +0.000 A 
ATOM     24  S   UNL     1      46.488   7.526  12.256  0.00  0.00    +0.000 S 
ATOM     25  C   UNL     1      45.083   6.574  12.125  0.00  0.00    +0.000 A 
ATOM     26  N   UNL     1      44.024   6.975  11.361  0.00  0.00    +0.000 NA
ATOM     27  C   UNL     1      43.046   6.131  11.338  0.00  0.00    +0.000 A 
ATOM     28  N   UNL     1      43.015   4.939  12.006  0.00  0.00    +0.000 N 
ATOM     29  C   UNL     1      44.027   4.516  12.824  0.00  0.00    +0.000 A 
ATOM     30  O   UNL     1      43.933   3.478  13.471  0.00  0.00    +0.000 OA
ATOM     31  C   UNL     1      45.171   5.415  12.871  0.00  0.00    +0.000 A 
ATOM     32  H   UNL     1      42.204   4.337  11.965  0.00  0.00    +0.000 HD
ENDBRANCH  19  22
ENDBRANCH   1  20
TORSDOF 7
ENDMDL
MODEL 9
REMARK VINA RESULT:    -6.124      3.802      9.192
REMARK INTER + INTRA:          -9.691
REMARK INTER:                  -8.460
REMARK INTRA:                  -1.231
REMARK UNBOUND:                -1.061
REMARK  Name = 
REMARK  7 active torsions:
REMARK  status: ('A' for Active; 'I' for Inactive)
REMARK    1  A    between atoms: C_2  and  C_19
REMARK    2  A    between atoms: N_3  and  C_4
REMARK    3  A    between atoms: C_4  and  C_5
REMARK    4  A    between atoms: C_8  and  C_9
REMARK    5  A    between atoms: C_9  and  N_10
REMARK    6  A    between atoms: N_10  and  C_11
REMARK    7  A    between atoms: C_11  and  C_12
REMARK                            x       y       z     vdW  Elec       q    Type
REMARK                         _______ _______ _______ _____ _____    ______ ____
ROOT
ATOM      1  C   UNL     1      47.323   3.597  16.552  0.00  0.00    +0.000 C 
ENDROOT
BRANCH   1   2
ATOM      2  C   UNL     1      47.998   4.254  17.721  0.00  0.00    +0.000 A 
ATOM      3  C   UNL     1      47.319   5.167  18.528  0.00  0.00    +0.000 A 
ATOM      4  C   UNL     1      47.981   5.787  19.586  0.00  0.00    +0.000 A 
ATOM      5  C   UNL     1      49.312   5.461  19.834  0.00  0.00    +0.000 A 
ATOM      6  N   UNL     1      49.992   4.562  19.076  0.00  0.00    +0.000 NA
ATOM      7  C   UNL     1      49.324   3.983  18.046  0.00  0.00    +0.000 A 
BRANCH   5   8
ATOM      8  C   UNL     1      50.063   6.132  20.976  0.00  0.00    +0.000 C 
BRANCH   8   9
ATOM      9  N   UNL     1      50.971   7.220  20.571  0.00  0.00    +0.000 NA
ATOM     10  H   UNL     1      51.509   6.868  19.775  0.00  0.00    +0.000 HD
BRANCH   9  11
ATOM     11  C   UNL     1      50.247   8.424  20.137  0.00  0.00    +0.000 C 
BRANCH  11  12
ATOM     12  C   UNL     1      50.853   9.015  18.832  0.00  0.00    +0.000 C 
ATOM     13  C   UNL     1      50.985   7.976  17.728  0.00  0.00    +0.000 C 
ATOM     14  C   UNL     1      49.607   7.958  17.097  0.00  0.00    +0.000 C 
ATOM     15  C   UNL     1      49.100   9.382  17.271  0.00  0.00    +0.000 C 
ATOM     16  N   UNL     1      50.020  10.050  18.197  0.00  0.00    +0.000 NA
ATOM     17  H   UNL     1      49.515  10.568  18.918  0.00  0.00    +0.000 HD
ENDBRANCH  11  12
ENDBRANCH   9  11
ENDBRANCH   8   9
ENDBRANCH   5   8
ENDBRANCH   1   2
BRANCH   1  20
ATOM     18  O   UNL     1      47.195   3.210  13.798  0.00  0.00    +0.000 OA
ATOM     19  C   UNL     1      46.743   4.249  14.266  0.00  0.00    +0.000 C 
ATOM     20  N   UNL     1      46.824   4.554  15.603  0.00  0.00    +0.000 N 
ATOM     21  H   UNL     1      46.267   5.318  15.971  0.00  0.00    +0.000 HD
BRANCH  19  22
ATOM     22  C   UNL     1      46.122   5.274  13.424  0.00  0.00    +0.000 A 
ATOM     23  C   UNL     1      46.772   6.469  13.151  0.00  0.00    +0.000 A 
ATOM     24  S   UNL     1      45.846   7.534  12.188  0.00  0.00    +0.000 S 
ATOM     25  C   UNL     1      44.573   6.411  12.069  0.00  0.00    +0.000 A 
ATOM     26  N   UNL     1      43.440   6.695  11.360  0.00  0.00    +0.000 NA
ATOM     27  C   UNL     1      42.580   5.731  11.339  0.00  0.00    +0.000 A 
ATOM     28  N   UNL     1      42.733   4.522  11.959  0.00  0.00    +0.000 N 
ATOM     29  C   UNL     1      43.823   4.208  12.723  0.00  0.00    +0.000 A 
ATOM     30  O   UNL     1      43.892   3.145  13.331  0.00  0.00    +0.000 OA
ATOM     31  C   UNL     1      44.841   5.248  12.765  0.00  0.00    +0.000 A 
ATOM     32  H   UNL     1      42.006   3.821  11.923  0.00  0.00    +0.000 HD
ENDBRANCH  19  22
ENDBRANCH   1  20
TORSDOF 7
ENDMDL
