MODEL 1
REMARK VINA RESULT:    -8.185      0.000      0.000
REMARK INTER + INTRA:         -11.395
REMARK INTER:                 -10.578
REMARK INTRA:                  -0.817
REMARK UNBOUND:                -0.817
REMARK  Name = 
REMARK  6 active torsions:
REMARK  status: ('A' for Active; 'I' for Inactive)
REMARK    1  A    between atoms: C_1  and  C_2
REMARK    2  A    between atoms: C_2  and  C_3
REMARK    3  A    between atoms: C_2  and  C_14
REMARK    4  A    between atoms: C_3  and  N_4
REMARK    5  A    between atoms: C_8  and  C_9
REMARK    6  A    between atoms: C_18  and  C_19
REMARK                            x       y       z     vdW  Elec       q    Type
REMARK                         _______ _______ _______ _____ _____    ______ ____
ROOT
ATOM      1  C   UNL     1      43.620   4.703  10.581  0.00  0.00    +0.000 C 
ENDROOT
BRANCH   1   2
ATOM      2  N   UNL     1      43.955   3.299  10.368  0.00  0.00    +0.000 N 
ATOM      3  C   UNL     1      44.874   3.080   9.326  0.00  0.00    +0.000 A 
ATOM      4  C   UNL     1      45.240   1.769   9.037  0.00  0.00    +0.000 A 
ATOM      5  C   UNL     1      46.143   1.513   8.009  0.00  0.00    +0.000 A 
ATOM      6  C   UNL     1      46.643   2.592   7.306  0.00  0.00    +0.000 A 
ATOM      7  N   UNL     1      46.299   3.867   7.602  0.00  0.00    +0.000 NA
ATOM      8  N   UNL     1      45.419   4.102   8.629  0.00  0.00    +0.000 NA
ATOM      9  H   UNL     1      43.122   2.743  10.189  0.00  0.00    +0.000 HD
BRANCH   6  10
ATOM     10  C   UNL     1      47.583   2.398   6.169  0.00  0.00    +0.000 C 
ATOM     11  N   UNL     1      47.460   3.281   5.128  0.00  0.00    +0.000 N 
ATOM     12  O   UNL     1      48.415   1.500   6.153  0.00  0.00    +0.000 OA
ATOM     13  H   UNL     1      46.771   4.024   5.153  0.00  0.00    +0.000 HD
ATOM     14  H   UNL     1      48.073   3.188   4.330  0.00  0.00    +0.000 HD
ENDBRANCH   6  10
ENDBRANCH   1   2
BRANCH   1  16
ATOM     15  C   UNL     1      42.647   5.492  12.831  0.00  0.00    +0.000 C 
ATOM     16  C   UNL     1      43.814   4.983  12.045  0.00  0.00    +0.000 C 
BRANCH  16  17
ATOM     17  C   UNL     1      45.183   5.256  12.507  0.00  0.00    +0.000 A 
ATOM     18  C   UNL     1      45.973   6.226  11.881  0.00  0.00    +0.000 A 
ATOM     19  C   UNL     1      47.232   6.554  12.396  0.00  0.00    +0.000 A 
ATOM     20  C   UNL     1      47.696   5.929  13.553  0.00  0.00    +0.000 A 
ATOM     21  C   UNL     1      46.921   4.953  14.191  0.00  0.00    +0.000 A 
ATOM     22  C   UNL     1      45.678   4.604  13.641  0.00  0.00    +0.000 A 
BRANCH  21  23
ATOM     23  C   UNL     1      47.359   4.300  15.477  0.00  0.00    +0.000 C 
ATOM     24  F   UNL     1      46.404   4.302  16.447  0.00  0.00    +0.000 F 
ATOM     25  F   UNL     1      47.700   2.993  15.293  0.00  0.00    +0.000 F 
ATOM     26  F   UNL     1      48.454   4.898  16.021  0.00  0.00    +0.000 F 
ENDBRANCH  21  23
ENDBRANCH  16  17
ENDBRANCH   1  16
TORSDOF 5
ENDMDL
MODEL 2
REMARK VINA RESULT:    -7.848      2.435      3.017
REMARK INTER + INTRA:         -10.959
REMARK INTER:                 -10.147
REMARK INTRA:                  -0.811
REMARK UNBOUND:                -0.817
REMARK  Name = 
REMARK  6 active torsions:
REMARK  status: ('A' for Active; 'I' for Inactive)
REMARK    1  A    between atoms: C_1  and  C_2
REMARK    2  A    between atoms: C_2  and  C_3
REMARK    3  A    between atoms: C_2  and  C_14
REMARK    4  A    between atoms: C_3  and  N_4
REMARK    5  A    between atoms: C_8  and  C_9
REMARK    6  A    between atoms: C_18  and  C_19
REMARK                            x       y       z     vdW  Elec       q    Type
REMARK                         _______ _______ _______ _____ _____    ______ ____
ROOT
ATOM      1  C   UNL     1      43.254   4.380  10.898  0.00  0.00    +0.000 C 
ENDROOT
BRANCH   1   2
ATOM      2  N   UNL     1      43.903   4.802   9.661  0.00  0.00    +0.000 N 
ATOM      3  C   UNL     1      44.698   3.808   9.063  0.00  0.00    +0.000 A 
ATOM      4  C   UNL     1      45.373   4.125   7.888  0.00  0.00    +0.000 A 
ATOM      5  C   UNL     1      46.174   3.169   7.270  0.00  0.00    +0.000 A 
ATOM      6  C   UNL     1      46.268   1.925   7.863  0.00  0.00    +0.000 A 
ATOM      7  N   UNL     1      45.596   1.614   8.995  0.00  0.00    +0.000 NA
ATOM      8  N   UNL     1      44.799   2.564   9.584  0.00  0.00    +0.000 NA
ATOM      9  H   UNL     1      44.475   5.631   9.808  0.00  0.00    +0.000 HD
BRANCH   6  10
ATOM     10  C   UNL     1      47.134   0.862   7.284  0.00  0.00    +0.000 C 
ATOM     11  N   UNL     1      46.830  -0.425   7.643  0.00  0.00    +0.000 N 
ATOM     12  O   UNL     1      48.070   1.116   6.536  0.00  0.00    +0.000 OA
ATOM     13  H   UNL     1      46.051  -0.623   8.260  0.00  0.00    +0.000 HD
ATOM     14  H   UNL     1      47.392  -1.181   7.280  0.00  0.00    +0.000 HD
ENDBRANCH   6  10
ENDBRANCH   1   2
BRANCH   1  16
ATOM     15  C   UNL     1      42.545   6.677  11.823  0.00  0.00    +0.000 C 
ATOM     16  C   UNL     1      43.451   5.487  11.896  0.00  0.00    +0.000 C 
BRANCH  16  17
ATOM     17  C   UNL     1      44.778   5.614  12.515  0.00  0.00    +0.000 A 
ATOM     18  C   UNL     1      45.283   4.609  13.347  0.00  0.00    +0.000 A 
ATOM     19  C   UNL     1      46.588   4.690  13.843  0.00  0.00    +0.000 A 
ATOM     20  C   UNL     1      47.403   5.766  13.490  0.00  0.00    +0.000 A 
ATOM     21  C   UNL     1      46.913   6.784  12.661  0.00  0.00    +0.000 A 
ATOM     22  C   UNL     1      45.588   6.710  12.205  0.00  0.00    +0.000 A 
BRANCH  21  23
ATOM     23  C   UNL     1      47.780   7.929  12.207  0.00  0.00    +0.000 C 
ATOM     24  F   UNL     1      48.609   8.408  13.174  0.00  0.00    +0.000 F 
ATOM     25  F   UNL     1      48.586   7.576  11.166  0.00  0.00    +0.000 F 
ATOM     26  F   UNL     1      47.053   8.995  11.769  0.00  0.00    +0.000 F 
ENDBRANCH  21  23
ENDBRANCH  16  17
ENDBRANCH   1  16
TORSDOF 5
ENDMDL
MODEL 3
REMARK VINA RESULT:    -7.822      1.491      2.131
REMARK INTER + INTRA:         -10.925
REMARK INTER:                 -10.225
REMARK INTRA:                  -0.700
REMARK UNBOUND:                -0.817
REMARK  Name = 
REMARK  6 active torsions:
REMARK  status: ('A' for Active; 'I' for Inactive)
REMARK    1  A    between atoms: C_1  and  C_2
REMARK    2  A    between atoms: C_2  and  C_3
REMARK    3  A    between atoms: C_2  and  C_14
REMARK    4  A    between atoms: C_3  and  N_4
REMARK    5  A    between atoms: C_8  and  C_9
REMARK    6  A    between atoms: C_18  and  C_19
REMARK                            x       y       z     vdW  Elec       q    Type
REMARK                         _______ _______ _______ _____ _____    ______ ____
ROOT
ATOM      1  C   UNL     1      43.664   5.111  10.486  0.00  0.00    +0.000 C 
ENDROOT
BRANCH   1   2
ATOM      2  N   UNL     1      43.966   3.687  10.379  0.00  0.00    +0.000 N 
ATOM      3  C   UNL     1      44.876   3.370   9.355  0.00  0.00    +0.000 A 
ATOM      4  C   UNL     1      45.210   2.032   9.164  0.00  0.00    +0.000 A 
ATOM      5  C   UNL     1      46.104   1.680   8.156  0.00  0.00    +0.000 A 
ATOM      6  C   UNL     1      46.627   2.691   7.374  0.00  0.00    +0.000 A 
ATOM      7  N   UNL     1      46.314   3.992   7.575  0.00  0.00    +0.000 NA
ATOM      8  N   UNL     1      45.442   4.324   8.582  0.00  0.00    +0.000 NA
ATOM      9  H   UNL     1      43.119   3.139  10.242  0.00  0.00    +0.000 HD
BRANCH   6  10
ATOM     10  C   UNL     1      47.558   2.391   6.253  0.00  0.00    +0.000 C 
ATOM     11  N   UNL     1      47.461   3.203   5.154  0.00  0.00    +0.000 N 
ATOM     12  O   UNL     1      48.363   1.468   6.300  0.00  0.00    +0.000 OA
ATOM     13  H   UNL     1      46.794   3.966   5.128  0.00  0.00    +0.000 HD
ATOM     14  H   UNL     1      48.069   3.037   4.365  0.00  0.00    +0.000 HD
ENDBRANCH   6  10
ENDBRANCH   1   2
BRANCH   1  16
ATOM     15  C   UNL     1      42.969   5.246  12.963  0.00  0.00    +0.000 C 
ATOM     16  C   UNL     1      43.983   5.521  11.897  0.00  0.00    +0.000 C 
BRANCH  16  17
ATOM     17  C   UNL     1      44.967   6.597  12.083  0.00  0.00    +0.000 A 
ATOM     18  C   UNL     1      44.672   7.914  11.714  0.00  0.00    +0.000 A 
ATOM     19  C   UNL     1      45.572   8.947  11.995  0.00  0.00    +0.000 A 
ATOM     20  C   UNL     1      46.762   8.671  12.667  0.00  0.00    +0.000 A 
ATOM     21  C   UNL     1      47.077   7.358  13.042  0.00  0.00    +0.000 A 
ATOM     22  C   UNL     1      46.184   6.326  12.717  0.00  0.00    +0.000 A 
BRANCH  21  23
ATOM     23  C   UNL     1      48.322   7.028  13.824  0.00  0.00    +0.000 C 
ATOM     24  F   UNL     1      49.357   6.597  13.052  0.00  0.00    +0.000 F 
ATOM     25  F   UNL     1      48.793   8.107  14.510  0.00  0.00    +0.000 F 
ATOM     26  F   UNL     1      48.113   6.057  14.755  0.00  0.00    +0.000 F 
ENDBRANCH  21  23
ENDBRANCH  16  17
ENDBRANCH   1  16
TORSDOF 5
ENDMDL
MODEL 4
REMARK VINA RESULT:    -7.602      3.855      4.465
REMARK INTER + INTRA:         -10.642
REMARK INTER:                  -9.987
REMARK INTRA:                  -0.655
REMARK UNBOUND:                -0.817
REMARK  Name = 
REMARK  6 active torsions:
REMARK  status: ('A' for Active; 'I' for Inactive)
REMARK    1  A    between atoms: C_1  and  C_2
REMARK    2  A    between atoms: C_2  and  C_3
REMARK    3  A    between atoms: C_2  and  C_14
REMARK    4  A    between atoms: C_3  and  N_4
REMARK    5  A    between atoms: C_8  and  C_9
REMARK    6  A    between atoms: C_18  and  C_19
REMARK                            x       y       z     vdW  Elec       q    Type
REMARK                         _______ _______ _______ _____ _____    ______ ____
ROOT
ATOM      1  C   UNL     1      43.761   5.126  10.787  0.00  0.00    +0.000 C 
ENDROOT
BRANCH   1   2
ATOM      2  N   UNL     1      44.043   3.715  10.544  0.00  0.00    +0.000 N 
ATOM      3  C   UNL     1      44.885   3.479   9.443  0.00  0.00    +0.000 A 
ATOM      4  C   UNL     1      45.194   2.160   9.123  0.00  0.00    +0.000 A 
ATOM      5  C   UNL     1      46.020   1.888   8.036  0.00  0.00    +0.000 A 
ATOM      6  C   UNL     1      46.503   2.958   7.308  0.00  0.00    +0.000 A 
ATOM      7  N   UNL     1      46.216   4.240   7.634  0.00  0.00    +0.000 NA
ATOM      8  N   UNL     1      45.412   4.491   8.717  0.00  0.00    +0.000 NA
ATOM      9  H   UNL     1      43.184   3.183  10.416  0.00  0.00    +0.000 HD
BRANCH   6  10
ATOM     10  C   UNL     1      47.361   2.748   6.111  0.00  0.00    +0.000 C 
ATOM     11  N   UNL     1      48.674   2.441   6.355  0.00  0.00    +0.000 N 
ATOM     12  O   UNL     1      46.928   2.849   4.969  0.00  0.00    +0.000 OA
ATOM     13  H   UNL     1      49.022   2.357   7.304  0.00  0.00    +0.000 HD
ATOM     14  H   UNL     1      49.298   2.294   5.575  0.00  0.00    +0.000 HD
ENDBRANCH   6  10
ENDBRANCH   1   2
BRANCH   1  16
ATOM     15  C   UNL     1      44.718   4.662  13.134  0.00  0.00    +0.000 C 
ATOM     16  C   UNL     1      44.632   5.555  11.935  0.00  0.00    +0.000 C 
BRANCH  16  17
ATOM     17  C   UNL     1      44.914   6.991  12.072  0.00  0.00    +0.000 A 
ATOM     18  C   UNL     1      46.009   7.441  12.818  0.00  0.00    +0.000 A 
ATOM     19  C   UNL     1      46.331   8.801  12.852  0.00  0.00    +0.000 A 
ATOM     20  C   UNL     1      45.574   9.716  12.122  0.00  0.00    +0.000 A 
ATOM     21  C   UNL     1      44.471   9.285  11.372  0.00  0.00    +0.000 A 
ATOM     22  C   UNL     1      44.135   7.923  11.380  0.00  0.00    +0.000 A 
BRANCH  21  23
ATOM     23  C   UNL     1      43.666  10.231  10.520  0.00  0.00    +0.000 C 
ATOM     24  F   UNL     1      44.344  10.714   9.444  0.00  0.00    +0.000 F 
ATOM     25  F   UNL     1      42.546   9.637  10.020  0.00  0.00    +0.000 F 
ATOM     26  F   UNL     1      43.231  11.320  11.214  0.00  0.00    +0.000 F 
ENDBRANCH  21  23
ENDBRANCH  16  17
ENDBRANCH   1  16
TORSDOF 5
ENDMDL
MODEL 5
REMARK VINA RESULT:    -7.235      4.862      7.394
REMARK INTER + INTRA:         -10.167
REMARK INTER:                  -9.545
REMARK INTRA:                  -0.622
REMARK UNBOUND:                -0.817
REMARK  Name = 
REMARK  6 active torsions:
REMARK  status: ('A' for Active; 'I' for Inactive)
REMARK    1  A    between atoms: C_1  and  C_2
REMARK    2  A    between atoms: C_2  and  C_3
REMARK    3  A    between atoms: C_2  and  C_14
REMARK    4  A    between atoms: C_3  and  N_4
REMARK    5  A    between atoms: C_8  and  C_9
REMARK    6  A    between atoms: C_18  and  C_19
REMARK                            x       y       z     vdW  Elec       q    Type
REMARK                         _______ _______ _______ _____ _____    ______ ____
ROOT
ATOM      1  C   UNL     1      47.817   7.028  12.043  0.00  0.00    +0.000 C 
ENDROOT
BRANCH   1   2
ATOM      2  N   UNL     1      48.290   7.398  13.373  0.00  0.00    +0.000 N 
ATOM      3  C   UNL     1      48.143   6.385  14.337  0.00  0.00    +0.000 A 
ATOM      4  C   UNL     1      48.550   6.653  15.641  0.00  0.00    +0.000 A 
ATOM      5  C   UNL     1      48.414   5.676  16.623  0.00  0.00    +0.000 A 
ATOM      6  C   UNL     1      47.869   4.462  16.255  0.00  0.00    +0.000 A 
ATOM      7  N   UNL     1      47.492   4.198  14.982  0.00  0.00    +0.000 NA
ATOM      8  N   UNL     1      47.646   5.167  14.023  0.00  0.00    +0.000 NA
ATOM      9  H   UNL     1      47.825   8.238  13.711  0.00  0.00    +0.000 HD
BRANCH   6  10
ATOM     10  C   UNL     1      47.657   3.381  17.255  0.00  0.00    +0.000 C 
ATOM     11  N   UNL     1      48.775   2.937  17.911  0.00  0.00    +0.000 N 
ATOM     12  O   UNL     1      46.551   2.904  17.478  0.00  0.00    +0.000 OA
ATOM     13  H   UNL     1      49.685   3.341  17.720  0.00  0.00    +0.000 HD
ATOM     14  H   UNL     1      48.683   2.201  18.595  0.00  0.00    +0.000 HD
ENDBRANCH   6  10
ENDBRANCH   1   2
BRANCH   1  16
ATOM     15  C   UNL     1      45.870   8.501  12.862  0.00  0.00    +0.000 C 
ATOM     16  C   UNL     1      46.362   7.400  11.976  0.00  0.00    +0.000 C 
BRANCH  16  17
ATOM     17  C   UNL     1      45.424   6.380  11.487  0.00  0.00    +0.000 A 
ATOM     18  C   UNL     1      44.119   6.305  11.986  0.00  0.00    +0.000 A 
ATOM     19  C   UNL     1      43.202   5.402  11.437  0.00  0.00    +0.000 A 
ATOM     20  C   UNL     1      43.579   4.585  10.372  0.00  0.00    +0.000 A 
ATOM     21  C   UNL     1      44.883   4.644   9.862  0.00  0.00    +0.000 A 
ATOM     22  C   UNL     1      45.804   5.524  10.449  0.00  0.00    +0.000 A 
BRANCH  21  23
ATOM     23  C   UNL     1      45.312   3.824   8.672  0.00  0.00    +0.000 C 
ATOM     24  F   UNL     1      45.674   2.550   8.985  0.00  0.00    +0.000 F 
ATOM     25  F   UNL     1      44.317   3.712   7.747  0.00  0.00    +0.000 F 
ATOM     26  F   UNL     1      46.372   4.369   8.015  0.00  0.00    +0.000 F 
ENDBRANCH  21  23
ENDBRANCH  16  17
ENDBRANCH   1  16
TORSDOF 5
ENDMDL
MODEL 6
REMARK VINA RESULT:    -7.083      5.409      7.875
REMARK INTER + INTRA:          -9.970
REMARK INTER:                  -9.402
REMARK INTRA:                  -0.568
REMARK UNBOUND:                -0.817
REMARK  Name = 
REMARK  6 active torsions:
REMARK  status: ('A' for Active; 'I' for Inactive)
REMARK    1  A    between atoms: C_1  and  C_2
REMARK    2  A    between atoms: C_2  and  C_3
REMARK    3  A    between atoms: C_2  and  C_14
REMARK    4  A    between atoms: C_3  and  N_4
REMARK    5  A    between atoms: C_8  and  C_9
REMARK    6  A    between atoms: C_18  and  C_19
REMARK                            x       y       z     vdW  Elec       q    Type
REMARK                         _______ _______ _______ _____ _____    ______ ____
ROOT
ATOM      1  C   UNL     1      46.826   4.278  15.282  0.00  0.00    +0.000 C 
ENDROOT
BRANCH   1   2
ATOM      2  N   UNL     1      47.716   4.722  16.350  0.00  0.00    +0.000 N 
ATOM      3  C   UNL     1      48.751   3.816  16.647  0.00  0.00    +0.000 A 
ATOM      4  C   UNL     1      49.640   4.146  17.666  0.00  0.00    +0.000 A 
ATOM      5  C   UNL     1      50.673   3.271  17.992  0.00  0.00    +0.000 A 
ATOM      6  C   UNL     1      50.770   2.093  17.278  0.00  0.00    +0.000 A 
ATOM      7  N   UNL     1      49.915   1.784  16.276  0.00  0.00    +0.000 NA
ATOM      8  N   UNL     1      48.911   2.664  15.958  0.00  0.00    +0.000 NA
ATOM      9  H   UNL     1      47.200   4.917  17.205  0.00  0.00    +0.000 HD
BRANCH   6  10
ATOM     10  C   UNL     1      51.824   1.090  17.593  0.00  0.00    +0.000 C 
ATOM     11  N   UNL     1      51.410  -0.030  18.265  0.00  0.00    +0.000 N 
ATOM     12  O   UNL     1      52.996   1.252  17.278  0.00  0.00    +0.000 OA
ATOM     13  H   UNL     1      50.436  -0.155  18.518  0.00  0.00    +0.000 HD
ATOM     14  H   UNL     1      52.089  -0.737  18.506  0.00  0.00    +0.000 HD
ENDBRANCH   6  10
ENDBRANCH   1   2
BRANCH   1  16
ATOM     15  C   UNL     1      48.096   6.262  14.240  0.00  0.00    +0.000 C 
ATOM     16  C   UNL     1      47.073   5.178  14.103  0.00  0.00    +0.000 C 
BRANCH  16  17
ATOM     17  C   UNL     1      45.994   5.311  13.114  0.00  0.00    +0.000 A 
ATOM     18  C   UNL     1      45.390   6.549  12.870  0.00  0.00    +0.000 A 
ATOM     19  C   UNL     1      44.441   6.686  11.852  0.00  0.00    +0.000 A 
ATOM     20  C   UNL     1      44.108   5.590  11.057  0.00  0.00    +0.000 A 
ATOM     21  C   UNL     1      44.700   4.341  11.288  0.00  0.00    +0.000 A 
ATOM     22  C   UNL     1      45.619   4.208  12.340  0.00  0.00    +0.000 A 
BRANCH  21  23
ATOM     23  C   UNL     1      44.414   3.148  10.413  0.00  0.00    +0.000 C 
ATOM     24  F   UNL     1      45.518   2.409  10.116  0.00  0.00    +0.000 F 
ATOM     25  F   UNL     1      43.535   2.287  10.998  0.00  0.00    +0.000 F 
ATOM     26  F   UNL     1      43.857   3.494   9.220  0.00  0.00    +0.000 F 
ENDBRANCH  21  23
ENDBRANCH  16  17
ENDBRANCH   1  16
TORSDOF 5
ENDMDL
MODEL 7
REMARK VINA RESULT:    -6.884      5.329      7.888
REMARK INTER + INTRA:          -9.713
REMARK INTER:                  -9.133
REMARK INTRA:                  -0.580
REMARK UNBOUND:                -0.817
REMARK  Name = 
REMARK  6 active torsions:
REMARK  status: ('A' for Active; 'I' for Inactive)
REMARK    1  A    between atoms: C_1  and  C_2
REMARK    2  A    between atoms: C_2  and  C_3
REMARK    3  A    between atoms: C_2  and  C_14
REMARK    4  A    between atoms: C_3  and  N_4
REMARK    5  A    between atoms: C_8  and  C_9
REMARK    6  A    between atoms: C_18  and  C_19
REMARK                            x       y       z     vdW  Elec       q    Type
REMARK                         _______ _______ _______ _____ _____    ______ ____
ROOT
ATOM      1  C   UNL     1      47.269   6.423  13.314  0.00  0.00    +0.000 C 
ENDROOT
BRANCH   1   2
ATOM      2  N   UNL     1      46.722   5.385  14.182  0.00  0.00    +0.000 N 
ATOM      3  C   UNL     1      47.527   5.085  15.295  0.00  0.00    +0.000 A 
ATOM      4  C   UNL     1      47.095   4.093  16.170  0.00  0.00    +0.000 A 
ATOM      5  C   UNL     1      47.869   3.765  17.280  0.00  0.00    +0.000 A 
ATOM      6  C   UNL     1      49.054   4.448  17.465  0.00  0.00    +0.000 A 
ATOM      7  N   UNL     1      49.462   5.426  16.623  0.00  0.00    +0.000 NA
ATOM      8  N   UNL     1      48.680   5.747  15.541  0.00  0.00    +0.000 NA
ATOM      9  H   UNL     1      46.548   4.525  13.665  0.00  0.00    +0.000 HD
BRANCH   6  10
ATOM     10  C   UNL     1      49.954   4.129  18.606  0.00  0.00    +0.000 C 
ATOM     11  N   UNL     1      49.346   3.933  19.818  0.00  0.00    +0.000 N 
ATOM     12  O   UNL     1      51.170   4.052  18.479  0.00  0.00    +0.000 OA
ATOM     13  H   UNL     1      48.339   3.995  19.912  0.00  0.00    +0.000 HD
ATOM     14  H   UNL     1      49.915   3.718  20.624  0.00  0.00    +0.000 HD
ENDBRANCH   6  10
ENDBRANCH   1   2
BRANCH   1  16
ATOM     15  C   UNL     1      45.613   8.349  12.887  0.00  0.00    +0.000 C 
ATOM     16  C   UNL     1      46.119   6.987  12.527  0.00  0.00    +0.000 C 
BRANCH  16  17
ATOM     17  C   UNL     1      45.233   6.034  11.844  0.00  0.00    +0.000 A 
ATOM     18  C   UNL     1      43.905   5.868  12.252  0.00  0.00    +0.000 A 
ATOM     19  C   UNL     1      43.040   5.039  11.528  0.00  0.00    +0.000 A 
ATOM     20  C   UNL     1      43.494   4.391  10.380  0.00  0.00    +0.000 A 
ATOM     21  C   UNL     1      44.821   4.542   9.958  0.00  0.00    +0.000 A 
ATOM     22  C   UNL     1      45.688   5.343  10.717  0.00  0.00    +0.000 A 
BRANCH  21  23
ATOM     23  C   UNL     1      45.333   3.910   8.690  0.00  0.00    +0.000 C 
ATOM     24  F   UNL     1      44.404   3.839   7.698  0.00  0.00    +0.000 F 
ATOM     25  F   UNL     1      46.386   4.600   8.166  0.00  0.00    +0.000 F 
ATOM     26  F   UNL     1      45.781   2.639   8.882  0.00  0.00    +0.000 F 
ENDBRANCH  21  23
ENDBRANCH  16  17
ENDBRANCH   1  16
TORSDOF 5
ENDMDL
MODEL 8
REMARK VINA RESULT:    -6.699      4.682      6.761
REMARK INTER + INTRA:          -9.474
REMARK INTER:                  -8.694
REMARK INTRA:                  -0.780
REMARK UNBOUND:                -0.817
REMARK  Name = 
REMARK  6 active torsions:
REMARK  status: ('A' for Active; 'I' for Inactive)
REMARK    1  A    between atoms: C_1  and  C_2
REMARK    2  A    between atoms: C_2  and  C_3
REMARK    3  A    between atoms: C_2  and  C_14
REMARK    4  A    between atoms: C_3  and  N_4
REMARK    5  A    between atoms: C_8  and  C_9
REMARK    6  A    between atoms: C_18  and  C_19
REMARK                            x       y       z     vdW  Elec       q    Type
REMARK                         _______ _______ _______ _____ _____    ______ ____
ROOT
ATOM      1  C   UNL     1      44.585   6.703  11.490  0.00  0.00    +0.000 C 
ENDROOT
BRANCH   1   2
ATOM      2  N   UNL     1      45.363   6.171  12.603  0.00  0.00    +0.000 N 
ATOM      3  C   UNL     1      46.664   6.697  12.698  0.00  0.00    +0.000 A 
ATOM      4  C   UNL     1      47.488   6.234  13.720  0.00  0.00    +0.000 A 
ATOM      5  C   UNL     1      48.783   6.728  13.841  0.00  0.00    +0.000 A 
ATOM      6  C   UNL     1      49.203   7.672  12.925  0.00  0.00    +0.000 A 
ATOM      7  N   UNL     1      48.393   8.134  11.944  0.00  0.00    +0.000 NA
ATOM      8  N   UNL     1      47.114   7.647  11.847  0.00  0.00    +0.000 NA
ATOM      9  H   UNL     1      45.426   5.156  12.558  0.00  0.00    +0.000 HD
BRANCH   6  10
ATOM     10  C   UNL     1      50.586   8.220  12.965  0.00  0.00    +0.000 C 
ATOM     11  N   UNL     1      51.459   7.724  12.034  0.00  0.00    +0.000 N 
ATOM     12  O   UNL     1      50.933   9.061  13.786  0.00  0.00    +0.000 OA
ATOM     13  H   UNL     1      51.161   7.031  11.357  0.00  0.00    +0.000 HD
ATOM     14  H   UNL     1      52.411   8.061  12.024  0.00  0.00    +0.000 HD
ENDBRANCH   6  10
ENDBRANCH   1   2
BRANCH   1  16
ATOM     15  C   UNL     1      42.288   5.571  11.759  0.00  0.00    +0.000 C 
ATOM     16  C   UNL     1      43.619   5.629  11.077  0.00  0.00    +0.000 C 
BRANCH  16  17
ATOM     17  C   UNL     1      44.175   4.418  10.455  0.00  0.00    +0.000 A 
ATOM     18  C   UNL     1      43.717   3.148  10.819  0.00  0.00    +0.000 A 
ATOM     19  C   UNL     1      44.175   2.011  10.146  0.00  0.00    +0.000 A 
ATOM     20  C   UNL     1      45.076   2.141   9.090  0.00  0.00    +0.000 A 
ATOM     21  C   UNL     1      45.549   3.405   8.714  0.00  0.00    +0.000 A 
ATOM     22  C   UNL     1      45.113   4.533   9.425  0.00  0.00    +0.000 A 
BRANCH  21  23
ATOM     23  C   UNL     1      46.475   3.594   7.540  0.00  0.00    +0.000 C 
ATOM     24  F   UNL     1      45.853   3.512   6.332  0.00  0.00    +0.000 F 
ATOM     25  F   UNL     1      47.083   4.814   7.563  0.00  0.00    +0.000 F 
ATOM     26  F   UNL     1      47.481   2.677   7.512  0.00  0.00    +0.000 F 
ENDBRANCH  21  23
ENDBRANCH  16  17
ENDBRANCH   1  16
TORSDOF 5
ENDMDL
MODEL 9
REMARK VINA RESULT:    -6.698      4.089      6.242
REMARK INTER + INTRA:          -9.474
REMARK INTER:                  -8.882
REMARK INTRA:                  -0.591
REMARK UNBOUND:                -0.817
REMARK  Name = 
REMARK  6 active torsions:
REMARK  status: ('A' for Active; 'I' for Inactive)
REMARK    1  A    between atoms: C_1  and  C_2
REMARK    2  A    between atoms: C_2  and  C_3
REMARK    3  A    between atoms: C_2  and  C_14
REMARK    4  A    between atoms: C_3  and  N_4
REMARK    5  A    between atoms: C_8  and  C_9
REMARK    6  A    between atoms: C_18  and  C_19
REMARK                            x       y       z     vdW  Elec       q    Type
REMARK                         _______ _______ _______ _____ _____    ______ ____
ROOT
ATOM      1  C   UNL     1      47.585   3.648  15.933  0.00  0.00    +0.000 C 
ENDROOT
BRANCH   1   2
ATOM      2  N   UNL     1      47.178   4.870  15.246  0.00  0.00    +0.000 N 
ATOM      3  C   UNL     1      46.469   4.647  14.052  0.00  0.00    +0.000 A 
ATOM      4  C   UNL     1      46.055   5.754  13.317  0.00  0.00    +0.000 A 
ATOM      5  C   UNL     1      45.356   5.572  12.127  0.00  0.00    +0.000 A 
ATOM      6  C   UNL     1      45.101   4.278  11.719  0.00  0.00    +0.000 A 
ATOM      7  N   UNL     1      45.488   3.204  12.446  0.00  0.00    +0.000 NA
ATOM      8  N   UNL     1      46.164   3.401  13.624  0.00  0.00    +0.000 NA
ATOM      9  H   UNL     1      47.978   5.464  15.042  0.00  0.00    +0.000 HD
BRANCH   6  10
ATOM     10  C   UNL     1      44.393   4.001  10.440  0.00  0.00    +0.000 C 
ATOM     11  N   UNL     1      44.496   4.965   9.472  0.00  0.00    +0.000 N 
ATOM     12  O   UNL     1      43.747   2.977  10.259  0.00  0.00    +0.000 OA
ATOM     13  H   UNL     1      45.037   5.808   9.632  0.00  0.00    +0.000 HD
ATOM     14  H   UNL     1      44.029   4.826   8.588  0.00  0.00    +0.000 HD
ENDBRANCH   6  10
ENDBRANCH   1   2
BRANCH   1  16
ATOM     15  C   UNL     1      47.517   5.057  18.088  0.00  0.00    +0.000 C 
ATOM     16  C   UNL     1      48.232   4.067  17.224  0.00  0.00    +0.000 C 
BRANCH  16  17
ATOM     17  C   UNL     1      49.692   3.925  17.327  0.00  0.00    +0.000 A 
ATOM     18  C   UNL     1      50.513   5.046  17.484  0.00  0.00    +0.000 A 
ATOM     19  C   UNL     1      51.888   4.893  17.690  0.00  0.00    +0.000 A 
ATOM     20  C   UNL     1      52.445   3.616  17.763  0.00  0.00    +0.000 A 
ATOM     21  C   UNL     1      51.638   2.482  17.604  0.00  0.00    +0.000 A 
ATOM     22  C   UNL     1      50.267   2.652  17.357  0.00  0.00    +0.000 A 
BRANCH  21  23
ATOM     23  C   UNL     1      52.189   1.086  17.738  0.00  0.00    +0.000 C 
ATOM     24  F   UNL     1      53.215   0.983  18.625  0.00  0.00    +0.000 F 
ATOM     25  F   UNL     1      51.240   0.203  18.162  0.00  0.00    +0.000 F 
ATOM     26  F   UNL     1      52.655   0.591  16.558  0.00  0.00    +0.000 F 
ENDBRANCH  21  23
ENDBRANCH  16  17
ENDBRANCH   1  16
TORSDOF 5
ENDMDL
