MODEL 1
REMARK VINA RESULT:    -7.949      0.000      0.000
REMARK INTER + INTRA:         -12.154
REMARK INTER:                 -11.202
REMARK INTRA:                  -0.952
REMARK UNBOUND:                -0.952
REMARK  Name = 
REMARK  9 active torsions:
REMARK  status: ('A' for Active; 'I' for Inactive)
REMARK    1  A    between atoms: C_1  and  C_2
REMARK    2  A    between atoms: C_2  and  N_3
REMARK    3  A    between atoms: C_2  and  C_25
REMARK    4  A    between atoms: N_3  and  C_4
REMARK    5  A    between atoms: C_6  and  C_7
REMARK    6  A    between atoms: C_12  and  C_13
REMARK    7  A    between atoms: C_13  and  C_14
REMARK    8  A    between atoms: C_14  and  N_15
REMARK    9  A    between atoms: C_18  and  C_19
REMARK                            x       y       z     vdW  Elec       q    Type
REMARK                         _______ _______ _______ _____ _____    ______ ____
ROOT
ATOM      1  C   UNL     1      46.752   4.842  13.639  0.00  0.00    +0.000 A 
ATOM      2  C   UNL     1      47.844   5.720  13.514  0.00  0.00    +0.000 A 
ATOM      3  C   UNL     1      47.860   6.756  12.574  0.00  0.00    +0.000 A 
ATOM      4  C   UNL     1      46.764   6.908  11.725  0.00  0.00    +0.000 A 
ATOM      5  C   UNL     1      45.663   6.052  11.848  0.00  0.00    +0.000 A 
ATOM      6  C   UNL     1      45.626   5.021  12.812  0.00  0.00    +0.000 A 
ENDROOT
BRANCH   3   7
ATOM      7  C   UNL     1      49.064   7.636  12.547  0.00  0.00    +0.000 C 
ATOM      8  N   UNL     1      50.107   7.350  13.381  0.00  0.00    +0.000 N 
ATOM      9  O   UNL     1      49.145   8.598  11.789  0.00  0.00    +0.000 OA
ATOM     10  H   UNL     1      50.155   6.567  14.010  0.00  0.00    +0.000 HD
ATOM     11  H   UNL     1      50.918   7.952  13.305  0.00  0.00    +0.000 HD
ENDBRANCH   3   7
BRANCH   1  12
ATOM     12  N   UNL     1      46.802   3.796  14.577  0.00  0.00    +0.000 N 
ATOM     13  H   UNL     1      46.524   2.907  14.150  0.00  0.00    +0.000 HD
BRANCH  12  15
ATOM     14  C   UNL     1      48.259   2.476  16.069  0.00  0.00    +0.000 C 
ATOM     15  C   UNL     1      47.506   3.731  15.755  0.00  0.00    +0.000 C 
ATOM     16  C   UNL     1      47.134   4.622  16.903  0.00  0.00    +0.000 C 
ENDBRANCH  12  15
ENDBRANCH   1  12
BRANCH   6  17
ATOM     17  C   UNL     1      44.324   4.226  12.883  0.00  0.00    +0.000 C 
BRANCH  17  18
ATOM     18  C   UNL     1      43.571   3.811  11.605  0.00  0.00    +0.000 C 
BRANCH  18  19
ATOM     19  N   UNL     1      44.176   2.634  10.948  0.00  0.00    +0.000 N 
ATOM     20  C   UNL     1      44.917   2.902   9.785  0.00  0.00    +0.000 A 
ATOM     21  C   UNL     1      45.582   1.842   9.181  0.00  0.00    +0.000 A 
ATOM     22  C   UNL     1      46.272   2.074   7.991  0.00  0.00    +0.000 A 
ATOM     23  C   UNL     1      46.259   3.343   7.421  0.00  0.00    +0.000 A 
ATOM     24  C   UNL     1      45.592   4.339   8.099  0.00  0.00    +0.000 A 
ATOM     25  N   UNL     1      44.945   4.145   9.267  0.00  0.00    +0.000 NA
ATOM     26  H   UNL     1      43.444   1.973  10.687  0.00  0.00    +0.000 HD
BRANCH  22  27
ATOM     27  C   UNL     1      47.004   0.994   7.287  0.00  0.00    +0.000 C 
ATOM     28  N   UNL     1      46.709  -0.295   7.634  0.00  0.00    +0.000 N 
ATOM     29  O   UNL     1      47.865   1.247   6.457  0.00  0.00    +0.000 OA
ATOM     30  H   UNL     1      46.206  -0.532   8.477  0.00  0.00    +0.000 HD
ATOM     31  H   UNL     1      47.300  -1.011   7.228  0.00  0.00    +0.000 HD
ENDBRANCH  22  27
ENDBRANCH  18  19
ENDBRANCH  17  18
ENDBRANCH   6  17
TORSDOF 7
ENDMDL
MODEL 2
REMARK VINA RESULT:    -7.662      2.421      3.962
REMARK INTER + INTRA:         -11.750
REMARK INTER:                 -10.945
REMARK INTRA:                  -0.804
REMARK UNBOUND:                -0.952
REMARK  Name = 
REMARK  9 active torsions:
REMARK  status: ('A' for Active; 'I' for Inactive)
REMARK    1  A    between atoms: C_1  and  C_2
REMARK    2  A    between atoms: C_2  and  N_3
REMARK    3  A    between atoms: C_2  and  C_25
REMARK    4  A    between atoms: N_3  and  C_4
REMARK    5  A    between atoms: C_6  and  C_7
REMARK    6  A    between atoms: C_12  and  C_13
REMARK    7  A    between atoms: C_13  and  C_14
REMARK    8  A    between atoms: C_14  and  N_15
REMARK    9  A    between atoms: C_18  and  C_19
REMARK                            x       y       z     vdW  Elec       q    Type
REMARK                         _______ _______ _______ _____ _____    ______ ____
ROOT
ATOM      1  C   UNL     1      45.543   7.887  12.660  0.00  0.00    +0.000 A 
ATOM      2  C   UNL     1      46.835   8.064  13.185  0.00  0.00    +0.000 A 
ATOM      3  C   UNL     1      47.699   6.987  13.411  0.00  0.00    +0.000 A 
ATOM      4  C   UNL     1      47.253   5.698  13.122  0.00  0.00    +0.000 A 
ATOM      5  C   UNL     1      45.975   5.506  12.584  0.00  0.00    +0.000 A 
ATOM      6  C   UNL     1      45.107   6.590  12.326  0.00  0.00    +0.000 A 
ENDROOT
BRANCH   3   7
ATOM      7  C   UNL     1      49.054   7.298  13.952  0.00  0.00    +0.000 C 
ATOM      8  N   UNL     1      49.724   8.383  13.463  0.00  0.00    +0.000 N 
ATOM      9  O   UNL     1      49.571   6.615  14.831  0.00  0.00    +0.000 OA
ATOM     10  H   UNL     1      49.373   9.025  12.773  0.00  0.00    +0.000 HD
ATOM     11  H   UNL     1      50.624   8.579  13.884  0.00  0.00    +0.000 HD
ENDBRANCH   3   7
BRANCH   1  12
ATOM     12  N   UNL     1      44.703   9.000  12.484  0.00  0.00    +0.000 N 
ATOM     13  H   UNL     1      44.282   9.287  13.374  0.00  0.00    +0.000 HD
BRANCH  12  15
ATOM     14  C   UNL     1      45.544  11.150  11.609  0.00  0.00    +0.000 C 
ATOM     15  C   UNL     1      44.699   9.922  11.465  0.00  0.00    +0.000 C 
ATOM     16  C   UNL     1      43.543   9.983  10.512  0.00  0.00    +0.000 C 
ENDBRANCH  12  15
ENDBRANCH   1  12
BRANCH   6  17
ATOM     17  C   UNL     1      43.780   6.232  11.659  0.00  0.00    +0.000 C 
BRANCH  17  18
ATOM     18  C   UNL     1      43.677   5.065  10.660  0.00  0.00    +0.000 C 
BRANCH  18  19
ATOM     19  N   UNL     1      44.652   5.177   9.555  0.00  0.00    +0.000 N 
ATOM     20  C   UNL     1      45.080   3.960   8.999  0.00  0.00    +0.000 A 
ATOM     21  C   UNL     1      45.925   4.013   7.897  0.00  0.00    +0.000 A 
ATOM     22  C   UNL     1      46.412   2.817   7.368  0.00  0.00    +0.000 A 
ATOM     23  C   UNL     1      46.069   1.608   7.963  0.00  0.00    +0.000 A 
ATOM     24  C   UNL     1      45.209   1.648   9.038  0.00  0.00    +0.000 A 
ATOM     25  N   UNL     1      44.701   2.790   9.547  0.00  0.00    +0.000 NA
ATOM     26  H   UNL     1      45.487   5.663   9.882  0.00  0.00    +0.000 HD
BRANCH  22  27
ATOM     27  C   UNL     1      47.319   2.793   6.195  0.00  0.00    +0.000 C 
ATOM     28  N   UNL     1      48.651   2.603   6.434  0.00  0.00    +0.000 N 
ATOM     29  O   UNL     1      46.897   2.974   5.062  0.00  0.00    +0.000 OA
ATOM     30  H   UNL     1      49.061   2.708   7.351  0.00  0.00    +0.000 HD
ATOM     31  H   UNL     1      49.266   2.706   5.635  0.00  0.00    +0.000 HD
ENDBRANCH  22  27
ENDBRANCH  18  19
ENDBRANCH  17  18
ENDBRANCH   6  17
TORSDOF 7
ENDMDL
MODEL 3
REMARK VINA RESULT:    -7.622      1.836      2.157
REMARK INTER + INTRA:         -11.692
REMARK INTER:                 -11.094
REMARK INTRA:                  -0.599
REMARK UNBOUND:                -0.952
REMARK  Name = 
REMARK  9 active torsions:
REMARK  status: ('A' for Active; 'I' for Inactive)
REMARK    1  A    between atoms: C_1  and  C_2
REMARK    2  A    between atoms: C_2  and  N_3
REMARK    3  A    between atoms: C_2  and  C_25
REMARK    4  A    between atoms: N_3  and  C_4
REMARK    5  A    between atoms: C_6  and  C_7
REMARK    6  A    between atoms: C_12  and  C_13
REMARK    7  A    between atoms: C_13  and  C_14
REMARK    8  A    between atoms: C_14  and  N_15
REMARK    9  A    between atoms: C_18  and  C_19
REMARK                            x       y       z     vdW  Elec       q    Type
REMARK                         _______ _______ _______ _____ _____    ______ ____
ROOT
ATOM      1  C   UNL     1      45.907   5.803  12.976  0.00  0.00    +0.000 A 
ATOM      2  C   UNL     1      46.142   7.188  12.909  0.00  0.00    +0.000 A 
ATOM      3  C   UNL     1      45.271   8.057  12.243  0.00  0.00    +0.000 A 
ATOM      4  C   UNL     1      44.147   7.526  11.611  0.00  0.00    +0.000 A 
ATOM      5  C   UNL     1      43.891   6.152  11.682  0.00  0.00    +0.000 A 
ATOM      6  C   UNL     1      44.749   5.271  12.376  0.00  0.00    +0.000 A 
ENDROOT
BRANCH   3   7
ATOM      7  C   UNL     1      45.612   9.509  12.256  0.00  0.00    +0.000 C 
ATOM      8  N   UNL     1      46.811   9.899  12.782  0.00  0.00    +0.000 N 
ATOM      9  O   UNL     1      44.852  10.356  11.796  0.00  0.00    +0.000 OA
ATOM     10  H   UNL     1      47.517   9.283  13.147  0.00  0.00    +0.000 HD
ATOM     11  H   UNL     1      47.017  10.889  12.737  0.00  0.00    +0.000 HD
ENDBRANCH   3   7
BRANCH   1  12
ATOM     12  N   UNL     1      46.832   4.970  13.629  0.00  0.00    +0.000 N 
ATOM     13  H   UNL     1      47.392   4.441  12.952  0.00  0.00    +0.000 HD
BRANCH  12  15
ATOM     14  C   UNL     1      48.408   6.071  15.178  0.00  0.00    +0.000 C 
ATOM     15  C   UNL     1      47.327   5.071  14.907  0.00  0.00    +0.000 C 
ATOM     16  C   UNL     1      47.195   3.917  15.856  0.00  0.00    +0.000 C 
ENDBRANCH  12  15
ENDBRANCH   1  12
BRANCH   6  17
ATOM     17  C   UNL     1      44.294   3.814  12.439  0.00  0.00    +0.000 C 
BRANCH  17  18
ATOM     18  C   UNL     1      43.410   3.205  11.334  0.00  0.00    +0.000 C 
BRANCH  18  19
ATOM     19  N   UNL     1      44.126   2.197  10.526  0.00  0.00    +0.000 N 
ATOM     20  C   UNL     1      44.931   2.707   9.494  0.00  0.00    +0.000 A 
ATOM     21  C   UNL     1      45.697   1.806   8.764  0.00  0.00    +0.000 A 
ATOM     22  C   UNL     1      46.455   2.284   7.694  0.00  0.00    +0.000 A 
ATOM     23  C   UNL     1      46.410   3.633   7.363  0.00  0.00    +0.000 A 
ATOM     24  C   UNL     1      45.640   4.458   8.154  0.00  0.00    +0.000 A 
ATOM     25  N   UNL     1      44.924   4.024   9.212  0.00  0.00    +0.000 NA
ATOM     26  H   UNL     1      43.453   1.564  10.092  0.00  0.00    +0.000 HD
BRANCH  22  27
ATOM     27  C   UNL     1      47.296   1.384   6.868  0.00  0.00    +0.000 C 
ATOM     28  N   UNL     1      48.303   1.955   6.143  0.00  0.00    +0.000 N 
ATOM     29  O   UNL     1      47.071   0.184   6.806  0.00  0.00    +0.000 OA
ATOM     30  H   UNL     1      48.355   2.948   5.968  0.00  0.00    +0.000 HD
ATOM     31  H   UNL     1      48.790   1.344   5.498  0.00  0.00    +0.000 HD
ENDBRANCH  22  27
ENDBRANCH  18  19
ENDBRANCH  17  18
ENDBRANCH   6  17
TORSDOF 7
ENDMDL
MODEL 4
REMARK VINA RESULT:    -6.903      1.526      2.373
REMARK INTER + INTRA:         -10.680
REMARK INTER:                  -9.606
REMARK INTRA:                  -1.074
REMARK UNBOUND:                -0.952
REMARK  Name = 
REMARK  9 active torsions:
REMARK  status: ('A' for Active; 'I' for Inactive)
REMARK    1  A    between atoms: C_1  and  C_2
REMARK    2  A    between atoms: C_2  and  N_3
REMARK    3  A    between atoms: C_2  and  C_25
REMARK    4  A    between atoms: N_3  and  C_4
REMARK    5  A    between atoms: C_6  and  C_7
REMARK    6  A    between atoms: C_12  and  C_13
REMARK    7  A    between atoms: C_13  and  C_14
REMARK    8  A    between atoms: C_14  and  N_15
REMARK    9  A    between atoms: C_18  and  C_19
REMARK                            x       y       z     vdW  Elec       q    Type
REMARK                         _______ _______ _______ _____ _____    ______ ____
ROOT
ATOM      1  C   UNL     1      47.166   6.817  13.427  0.00  0.00    +0.000 A 
ATOM      2  C   UNL     1      48.528   7.041  13.696  0.00  0.00    +0.000 A 
ATOM      3  C   UNL     1      49.250   8.063  13.070  0.00  0.00    +0.000 A 
ATOM      4  C   UNL     1      48.599   8.870  12.138  0.00  0.00    +0.000 A 
ATOM      5  C   UNL     1      47.240   8.670  11.871  0.00  0.00    +0.000 A 
ATOM      6  C   UNL     1      46.496   7.659  12.518  0.00  0.00    +0.000 A 
ENDROOT
BRANCH   3   7
ATOM      7  C   UNL     1      50.684   8.218  13.451  0.00  0.00    +0.000 C 
ATOM      8  N   UNL     1      51.156   7.530  14.532  0.00  0.00    +0.000 N 
ATOM      9  O   UNL     1      51.448   8.934  12.811  0.00  0.00    +0.000 OA
ATOM     10  H   UNL     1      50.623   6.892  15.097  0.00  0.00    +0.000 HD
ATOM     11  H   UNL     1      52.143   7.636  14.733  0.00  0.00    +0.000 HD
ENDBRANCH   3   7
BRANCH   1  12
ATOM     12  N   UNL     1      46.495   5.755  14.057  0.00  0.00    +0.000 N 
ATOM     13  H   UNL     1      45.482   5.908  14.057  0.00  0.00    +0.000 HD
BRANCH  12  15
ATOM     14  C   UNL     1      46.518   3.401  13.313  0.00  0.00    +0.000 C 
ATOM     15  C   UNL     1      46.933   4.470  14.275  0.00  0.00    +0.000 C 
ATOM     16  C   UNL     1      47.351   4.042  15.650  0.00  0.00    +0.000 C 
ENDBRANCH  12  15
ENDBRANCH   1  12
BRANCH   6  17
ATOM     17  C   UNL     1      45.005   7.619  12.187  0.00  0.00    +0.000 C 
BRANCH  17  18
ATOM     18  C   UNL     1      44.402   6.471  11.356  0.00  0.00    +0.000 C 
BRANCH  18  19
ATOM     19  N   UNL     1      45.263   6.080  10.221  0.00  0.00    +0.000 N 
ATOM     20  C   UNL     1      45.120   4.754   9.780  0.00  0.00    +0.000 A 
ATOM     21  C   UNL     1      45.839   4.364   8.657  0.00  0.00    +0.000 A 
ATOM     22  C   UNL     1      45.761   3.035   8.239  0.00  0.00    +0.000 A 
ATOM     23  C   UNL     1      44.995   2.127   8.963  0.00  0.00    +0.000 A 
ATOM     24  C   UNL     1      44.298   2.606  10.050  0.00  0.00    +0.000 A 
ATOM     25  N   UNL     1      44.334   3.893  10.454  0.00  0.00    +0.000 NA
ATOM     26  H   UNL     1      46.243   6.205  10.474  0.00  0.00    +0.000 HD
BRANCH  22  27
ATOM     27  C   UNL     1      46.500   2.542   7.052  0.00  0.00    +0.000 C 
ATOM     28  N   UNL     1      47.156   1.349   7.170  0.00  0.00    +0.000 N 
ATOM     29  O   UNL     1      46.554   3.197   6.021  0.00  0.00    +0.000 OA
ATOM     30  H   UNL     1      47.346   0.917   8.062  0.00  0.00    +0.000 HD
ATOM     31  H   UNL     1      47.748   1.088   6.390  0.00  0.00    +0.000 HD
ENDBRANCH  22  27
ENDBRANCH  18  19
ENDBRANCH  17  18
ENDBRANCH   6  17
TORSDOF 7
ENDMDL
MODEL 5
REMARK VINA RESULT:    -6.888      3.881      7.426
REMARK INTER + INTRA:         -10.659
REMARK INTER:                  -9.695
REMARK INTRA:                  -0.964
REMARK UNBOUND:                -0.952
REMARK  Name = 
REMARK  9 active torsions:
REMARK  status: ('A' for Active; 'I' for Inactive)
REMARK    1  A    between atoms: C_1  and  C_2
REMARK    2  A    between atoms: C_2  and  N_3
REMARK    3  A    between atoms: C_2  and  C_25
REMARK    4  A    between atoms: N_3  and  C_4
REMARK    5  A    between atoms: C_6  and  C_7
REMARK    6  A    between atoms: C_12  and  C_13
REMARK    7  A    between atoms: C_13  and  C_14
REMARK    8  A    between atoms: C_14  and  N_15
REMARK    9  A    between atoms: C_18  and  C_19
REMARK                            x       y       z     vdW  Elec       q    Type
REMARK                         _______ _______ _______ _____ _____    ______ ____
ROOT
ATOM      1  C   UNL     1      45.066   6.830  11.403  0.00  0.00    +0.000 A 
ATOM      2  C   UNL     1      44.619   8.157  11.274  0.00  0.00    +0.000 A 
ATOM      3  C   UNL     1      45.164   9.201  12.030  0.00  0.00    +0.000 A 
ATOM      4  C   UNL     1      46.168   8.907  12.953  0.00  0.00    +0.000 A 
ATOM      5  C   UNL     1      46.634   7.594  13.082  0.00  0.00    +0.000 A 
ATOM      6  C   UNL     1      46.110   6.539  12.302  0.00  0.00    +0.000 A 
ENDROOT
BRANCH   3   7
ATOM      7  C   UNL     1      44.625  10.571  11.793  0.00  0.00    +0.000 C 
ATOM      8  N   UNL     1      45.430  11.502  11.200  0.00  0.00    +0.000 N 
ATOM      9  O   UNL     1      43.478  10.877  12.103  0.00  0.00    +0.000 OA
ATOM     10  H   UNL     1      46.368  11.341  10.875  0.00  0.00    +0.000 HD
ATOM     11  H   UNL     1      45.013  12.407  11.025  0.00  0.00    +0.000 HD
ENDBRANCH   3   7
BRANCH   1  12
ATOM     12  N   UNL     1      44.461   5.814  10.644  0.00  0.00    +0.000 N 
ATOM     13  H   UNL     1      45.021   5.591   9.815  0.00  0.00    +0.000 HD
BRANCH  12  15
ATOM     14  C   UNL     1      42.602   5.229  12.160  0.00  0.00    +0.000 C 
ATOM     15  C   UNL     1      43.534   4.879  11.042  0.00  0.00    +0.000 C 
ATOM     16  C   UNL     1      43.767   3.425  10.762  0.00  0.00    +0.000 C 
ENDBRANCH  12  15
ENDBRANCH   1  12
BRANCH   6  17
ATOM     17  C   UNL     1      46.777   5.178  12.494  0.00  0.00    +0.000 C 
BRANCH  17  18
ATOM     18  C   UNL     1      46.287   4.192  13.570  0.00  0.00    +0.000 C 
BRANCH  18  19
ATOM     19  N   UNL     1      46.372   4.752  14.934  0.00  0.00    +0.000 N 
ATOM     20  C   UNL     1      47.268   4.104  15.801  0.00  0.00    +0.000 A 
ATOM     21  C   UNL     1      47.454   4.648  17.066  0.00  0.00    +0.000 A 
ATOM     22  C   UNL     1      48.291   3.985  17.964  0.00  0.00    +0.000 A 
ATOM     23  C   UNL     1      48.896   2.790  17.591  0.00  0.00    +0.000 A 
ATOM     24  C   UNL     1      48.673   2.335  16.310  0.00  0.00    +0.000 A 
ATOM     25  N   UNL     1      47.893   2.975  15.415  0.00  0.00    +0.000 NA
ATOM     26  H   UNL     1      45.454   4.718  15.378  0.00  0.00    +0.000 HD
BRANCH  22  27
ATOM     27  C   UNL     1      48.538   4.502  19.331  0.00  0.00    +0.000 C 
ATOM     28  N   UNL     1      48.554   3.596  20.353  0.00  0.00    +0.000 N 
ATOM     29  O   UNL     1      48.681   5.698  19.542  0.00  0.00    +0.000 OA
ATOM     30  H   UNL     1      48.190   2.659  20.258  0.00  0.00    +0.000 HD
ATOM     31  H   UNL     1      48.607   3.980  21.289  0.00  0.00    +0.000 HD
ENDBRANCH  22  27
ENDBRANCH  18  19
ENDBRANCH  17  18
ENDBRANCH   6  17
TORSDOF 7
ENDMDL
MODEL 6
REMARK VINA RESULT:    -6.861      3.772      5.868
REMARK INTER + INTRA:         -10.621
REMARK INTER:                  -9.794
REMARK INTRA:                  -0.828
REMARK UNBOUND:                -0.952
REMARK  Name = 
REMARK  9 active torsions:
REMARK  status: ('A' for Active; 'I' for Inactive)
REMARK    1  A    between atoms: C_1  and  C_2
REMARK    2  A    between atoms: C_2  and  N_3
REMARK    3  A    between atoms: C_2  and  C_25
REMARK    4  A    between atoms: N_3  and  C_4
REMARK    5  A    between atoms: C_6  and  C_7
REMARK    6  A    between atoms: C_12  and  C_13
REMARK    7  A    between atoms: C_13  and  C_14
REMARK    8  A    between atoms: C_14  and  N_15
REMARK    9  A    between atoms: C_18  and  C_19
REMARK                            x       y       z     vdW  Elec       q    Type
REMARK                         _______ _______ _______ _____ _____    ______ ____
ROOT
ATOM      1  C   UNL     1      49.733   4.276  17.974  0.00  0.00    +0.000 A 
ATOM      2  C   UNL     1      51.010   3.749  18.237  0.00  0.00    +0.000 A 
ATOM      3  C   UNL     1      51.416   2.505  17.743  0.00  0.00    +0.000 A 
ATOM      4  C   UNL     1      50.516   1.760  16.982  0.00  0.00    +0.000 A 
ATOM      5  C   UNL     1      49.247   2.277  16.699  0.00  0.00    +0.000 A 
ATOM      6  C   UNL     1      48.838   3.544  17.169  0.00  0.00    +0.000 A 
ENDROOT
BRANCH   3   7
ATOM      7  C   UNL     1      52.801   2.059  18.070  0.00  0.00    +0.000 C 
ATOM      8  N   UNL     1      53.361   2.460  19.250  0.00  0.00    +0.000 N 
ATOM      9  O   UNL     1      53.441   1.334  17.315  0.00  0.00    +0.000 OA
ATOM     10  H   UNL     1      52.907   3.021  19.951  0.00  0.00    +0.000 HD
ATOM     11  H   UNL     1      54.288   2.105  19.448  0.00  0.00    +0.000 HD
ENDBRANCH   3   7
BRANCH   1  12
ATOM     12  N   UNL     1      49.363   5.516  18.523  0.00  0.00    +0.000 N 
ATOM     13  H   UNL     1      49.381   6.254  17.811  0.00  0.00    +0.000 HD
BRANCH  12  15
ATOM     14  C   UNL     1      48.654   4.745  20.758  0.00  0.00    +0.000 C 
ATOM     15  C   UNL     1      48.644   5.770  19.667  0.00  0.00    +0.000 C 
ATOM     16  C   UNL     1      47.501   6.740  19.636  0.00  0.00    +0.000 C 
ENDBRANCH  12  15
ENDBRANCH   1  12
BRANCH   6  17
ATOM     17  C   UNL     1      47.458   4.010  16.707  0.00  0.00    +0.000 C 
BRANCH  17  18
ATOM     18  C   UNL     1      47.265   4.707  15.347  0.00  0.00    +0.000 C 
BRANCH  18  19
ATOM     19  N   UNL     1      46.348   3.967  14.456  0.00  0.00    +0.000 N 
ATOM     20  C   UNL     1      46.133   4.544  13.193  0.00  0.00    +0.000 A 
ATOM     21  C   UNL     1      45.352   3.840  12.284  0.00  0.00    +0.000 A 
ATOM     22  C   UNL     1      45.074   4.423  11.047  0.00  0.00    +0.000 A 
ATOM     23  C   UNL     1      45.555   5.695  10.759  0.00  0.00    +0.000 A 
ATOM     24  C   UNL     1      46.339   6.311  11.711  0.00  0.00    +0.000 A 
ATOM     25  N   UNL     1      46.646   5.753  12.900  0.00  0.00    +0.000 NA
ATOM     26  H   UNL     1      45.434   3.878  14.901  0.00  0.00    +0.000 HD
BRANCH  22  27
ATOM     27  C   UNL     1      44.247   3.735  10.026  0.00  0.00    +0.000 C 
ATOM     28  N   UNL     1      44.087   4.361   8.822  0.00  0.00    +0.000 N 
ATOM     29  O   UNL     1      43.698   2.670  10.266  0.00  0.00    +0.000 OA
ATOM     30  H   UNL     1      44.302   5.337   8.681  0.00  0.00    +0.000 HD
ATOM     31  H   UNL     1      43.426   3.933   8.183  0.00  0.00    +0.000 HD
ENDBRANCH  22  27
ENDBRANCH  18  19
ENDBRANCH  17  18
ENDBRANCH   6  17
TORSDOF 7
ENDMDL
MODEL 7
REMARK VINA RESULT:    -6.609      3.725      7.803
REMARK INTER + INTRA:         -10.266
REMARK INTER:                  -9.684
REMARK INTRA:                  -0.582
REMARK UNBOUND:                -0.952
REMARK  Name = 
REMARK  9 active torsions:
REMARK  status: ('A' for Active; 'I' for Inactive)
REMARK    1  A    between atoms: C_1  and  C_2
REMARK    2  A    between atoms: C_2  and  N_3
REMARK    3  A    between atoms: C_2  and  C_25
REMARK    4  A    between atoms: N_3  and  C_4
REMARK    5  A    between atoms: C_6  and  C_7
REMARK    6  A    between atoms: C_12  and  C_13
REMARK    7  A    between atoms: C_13  and  C_14
REMARK    8  A    between atoms: C_14  and  N_15
REMARK    9  A    between atoms: C_18  and  C_19
REMARK                            x       y       z     vdW  Elec       q    Type
REMARK                         _______ _______ _______ _____ _____    ______ ____
ROOT
ATOM      1  C   UNL     1      46.184   5.900  13.239  0.00  0.00    +0.000 A 
ATOM      2  C   UNL     1      45.360   5.575  12.146  0.00  0.00    +0.000 A 
ATOM      3  C   UNL     1      45.106   4.250  11.777  0.00  0.00    +0.000 A 
ATOM      4  C   UNL     1      45.706   3.223  12.505  0.00  0.00    +0.000 A 
ATOM      5  C   UNL     1      46.516   3.530  13.605  0.00  0.00    +0.000 A 
ATOM      6  C   UNL     1      46.755   4.864  14.003  0.00  0.00    +0.000 A 
ENDROOT
BRANCH   3   7
ATOM      7  C   UNL     1      44.199   4.026  10.613  0.00  0.00    +0.000 C 
ATOM      8  N   UNL     1      44.304   4.852   9.530  0.00  0.00    +0.000 N 
ATOM      9  O   UNL     1      43.376   3.116  10.601  0.00  0.00    +0.000 OA
ATOM     10  H   UNL     1      44.968   5.599   9.426  0.00  0.00    +0.000 HD
ATOM     11  H   UNL     1      43.695   4.642   8.749  0.00  0.00    +0.000 HD
ENDBRANCH   3   7
BRANCH   1  12
ATOM     12  N   UNL     1      46.434   7.248  13.547  0.00  0.00    +0.000 N 
ATOM     13  H   UNL     1      46.583   7.374  14.554  0.00  0.00    +0.000 HD
BRANCH  12  15
ATOM     14  C   UNL     1      45.890   9.256  12.218  0.00  0.00    +0.000 C 
ATOM     15  C   UNL     1      46.879   8.251  12.719  0.00  0.00    +0.000 C 
ATOM     16  C   UNL     1      48.142   8.068  11.932  0.00  0.00    +0.000 C 
ENDBRANCH  12  15
ENDBRANCH   1  12
BRANCH   6  17
ATOM     17  C   UNL     1      47.589   5.038  15.271  0.00  0.00    +0.000 C 
BRANCH  17  18
ATOM     18  C   UNL     1      47.371   4.136  16.500  0.00  0.00    +0.000 C 
BRANCH  18  19
ATOM     19  N   UNL     1      48.191   2.908  16.456  0.00  0.00    +0.000 N 
ATOM     20  C   UNL     1      49.488   3.026  16.982  0.00  0.00    +0.000 A 
ATOM     21  C   UNL     1      50.267   1.877  17.049  0.00  0.00    +0.000 A 
ATOM     22  C   UNL     1      51.580   1.983  17.510  0.00  0.00    +0.000 A 
ATOM     23  C   UNL     1      52.089   3.227  17.866  0.00  0.00    +0.000 A 
ATOM     24  C   UNL     1      51.239   4.309  17.790  0.00  0.00    +0.000 A 
ATOM     25  N   UNL     1      49.958   4.225  17.376  0.00  0.00    +0.000 NA
ATOM     26  H   UNL     1      48.291   2.597  15.489  0.00  0.00    +0.000 HD
BRANCH  22  27
ATOM     27  C   UNL     1      52.473   0.803  17.607  0.00  0.00    +0.000 C 
ATOM     28  N   UNL     1      52.095  -0.204  18.450  0.00  0.00    +0.000 N 
ATOM     29  O   UNL     1      53.525   0.751  16.987  0.00  0.00    +0.000 OA
ATOM     30  H   UNL     1      51.384  -0.086  19.157  0.00  0.00    +0.000 HD
ATOM     31  H   UNL     1      52.772  -0.945  18.590  0.00  0.00    +0.000 HD
ENDBRANCH  22  27
ENDBRANCH  18  19
ENDBRANCH  17  18
ENDBRANCH   6  17
TORSDOF 7
ENDMDL
MODEL 8
REMARK VINA RESULT:    -6.159      3.753      8.419
REMARK INTER + INTRA:          -9.631
REMARK INTER:                  -8.734
REMARK INTRA:                  -0.897
REMARK UNBOUND:                -0.952
REMARK  Name = 
REMARK  9 active torsions:
REMARK  status: ('A' for Active; 'I' for Inactive)
REMARK    1  A    between atoms: C_1  and  C_2
REMARK    2  A    between atoms: C_2  and  N_3
REMARK    3  A    between atoms: C_2  and  C_25
REMARK    4  A    between atoms: N_3  and  C_4
REMARK    5  A    between atoms: C_6  and  C_7
REMARK    6  A    between atoms: C_12  and  C_13
REMARK    7  A    between atoms: C_13  and  C_14
REMARK    8  A    between atoms: C_14  and  N_15
REMARK    9  A    between atoms: C_18  and  C_19
REMARK                            x       y       z     vdW  Elec       q    Type
REMARK                         _______ _______ _______ _____ _____    ______ ____
ROOT
ATOM      1  C   UNL     1      45.421   7.165  12.797  0.00  0.00    +0.000 A 
ATOM      2  C   UNL     1      44.463   6.187  12.476  0.00  0.00    +0.000 A 
ATOM      3  C   UNL     1      44.775   4.823  12.449  0.00  0.00    +0.000 A 
ATOM      4  C   UNL     1      46.083   4.429  12.731  0.00  0.00    +0.000 A 
ATOM      5  C   UNL     1      47.044   5.390  13.067  0.00  0.00    +0.000 A 
ATOM      6  C   UNL     1      46.731   6.766  13.125  0.00  0.00    +0.000 A 
ENDROOT
BRANCH   3   7
ATOM      7  C   UNL     1      43.672   3.876  12.115  0.00  0.00    +0.000 C 
ATOM      8  N   UNL     1      43.791   2.569  12.492  0.00  0.00    +0.000 N 
ATOM      9  O   UNL     1      42.661   4.244  11.525  0.00  0.00    +0.000 OA
ATOM     10  H   UNL     1      44.559   2.177  13.011  0.00  0.00    +0.000 HD
ATOM     11  H   UNL     1      43.004   1.969  12.278  0.00  0.00    +0.000 HD
ENDBRANCH   3   7
BRANCH   1  12
ATOM     12  N   UNL     1      45.063   8.524  12.777  0.00  0.00    +0.000 N 
ATOM     13  H   UNL     1      45.062   8.919  13.723  0.00  0.00    +0.000 HD
BRANCH  12  15
ATOM     14  C   UNL     1      46.121  10.526  11.792  0.00  0.00    +0.000 C 
ATOM     15  C   UNL     1      45.122   9.413  11.730  0.00  0.00    +0.000 C 
ATOM     16  C   UNL     1      43.933   9.598  10.834  0.00  0.00    +0.000 C 
ENDBRANCH  12  15
ENDBRANCH   1  12
BRANCH   6  17
ATOM     17  C   UNL     1      47.861   7.683  13.590  0.00  0.00    +0.000 C 
BRANCH  17  18
ATOM     18  C   UNL     1      49.052   7.137  14.398  0.00  0.00    +0.000 C 
BRANCH  18  19
ATOM     19  N   UNL     1      48.882   7.322  15.853  0.00  0.00    +0.000 N 
ATOM     20  C   UNL     1      48.617   6.153  16.586  0.00  0.00    +0.000 A 
ATOM     21  C   UNL     1      48.541   6.258  17.970  0.00  0.00    +0.000 A 
ATOM     22  C   UNL     1      48.216   5.122  18.712  0.00  0.00    +0.000 A 
ATOM     23  C   UNL     1      47.950   3.923  18.059  0.00  0.00    +0.000 A 
ATOM     24  C   UNL     1      48.070   3.904  16.687  0.00  0.00    +0.000 A 
ATOM     25  N   UNL     1      48.413   4.983  15.951  0.00  0.00    +0.000 NA
ATOM     26  H   UNL     1      48.110   7.964  16.030  0.00  0.00    +0.000 HD
BRANCH  22  27
ATOM     27  C   UNL     1      48.114   5.156  20.190  0.00  0.00    +0.000 C 
ATOM     28  N   UNL     1      48.712   4.143  20.885  0.00  0.00    +0.000 N 
ATOM     29  O   UNL     1      47.486   6.035  20.763  0.00  0.00    +0.000 OA
ATOM     30  H   UNL     1      49.008   3.282  20.449  0.00  0.00    +0.000 HD
ATOM     31  H   UNL     1      48.532   4.121  21.882  0.00  0.00    +0.000 HD
ENDBRANCH  22  27
ENDBRANCH  18  19
ENDBRANCH  17  18
ENDBRANCH   6  17
TORSDOF 7
ENDMDL
MODEL 9
REMARK VINA RESULT:    -5.866      4.080      6.427
REMARK INTER + INTRA:          -9.218
REMARK INTER:                  -8.434
REMARK INTRA:                  -0.784
REMARK UNBOUND:                -0.952
REMARK  Name = 
REMARK  9 active torsions:
REMARK  status: ('A' for Active; 'I' for Inactive)
REMARK    1  A    between atoms: C_1  and  C_2
REMARK    2  A    between atoms: C_2  and  N_3
REMARK    3  A    between atoms: C_2  and  C_25
REMARK    4  A    between atoms: N_3  and  C_4
REMARK    5  A    between atoms: C_6  and  C_7
REMARK    6  A    between atoms: C_12  and  C_13
REMARK    7  A    between atoms: C_13  and  C_14
REMARK    8  A    between atoms: C_14  and  N_15
REMARK    9  A    between atoms: C_18  and  C_19
REMARK                            x       y       z     vdW  Elec       q    Type
REMARK                         _______ _______ _______ _____ _____    ______ ____
ROOT
ATOM      1  C   UNL     1      51.200   5.726  17.083  0.00  0.00    +0.000 A 
ATOM      2  C   UNL     1      52.007   4.651  17.493  0.00  0.00    +0.000 A 
ATOM      3  C   UNL     1      51.479   3.381  17.749  0.00  0.00    +0.000 A 
ATOM      4  C   UNL     1      50.105   3.186  17.611  0.00  0.00    +0.000 A 
ATOM      5  C   UNL     1      49.290   4.242  17.189  0.00  0.00    +0.000 A 
ATOM      6  C   UNL     1      49.818   5.520  16.900  0.00  0.00    +0.000 A 
ENDROOT
BRANCH   3   7
ATOM      7  C   UNL     1      52.436   2.312  18.158  0.00  0.00    +0.000 C 
ATOM      8  N   UNL     1      53.243   2.529  19.239  0.00  0.00    +0.000 N 
ATOM      9  O   UNL     1      52.506   1.244  17.558  0.00  0.00    +0.000 OA
ATOM     10  H   UNL     1      53.236   3.352  19.818  0.00  0.00    +0.000 HD
ATOM     11  H   UNL     1      53.851   1.764  19.503  0.00  0.00    +0.000 HD
ENDBRANCH   3   7
BRANCH   1  12
ATOM     12  N   UNL     1      51.776   6.991  16.871  0.00  0.00    +0.000 N 
ATOM     13  H   UNL     1      51.958   7.465  17.761  0.00  0.00    +0.000 HD
BRANCH  12  15
ATOM     14  C   UNL     1      51.660   8.089  14.663  0.00  0.00    +0.000 C 
ATOM     15  C   UNL     1      52.449   7.454  15.766  0.00  0.00    +0.000 C 
ATOM     16  C   UNL     1      53.800   6.902  15.423  0.00  0.00    +0.000 C 
ENDBRANCH  12  15
ENDBRANCH   1  12
BRANCH   6  17
ATOM     17  C   UNL     1      48.819   6.546  16.368  0.00  0.00    +0.000 C 
BRANCH  17  18
ATOM     18  C   UNL     1      48.279   6.464  14.929  0.00  0.00    +0.000 C 
BRANCH  18  19
ATOM     19  N   UNL     1      47.153   5.516  14.798  0.00  0.00    +0.000 N 
ATOM     20  C   UNL     1      46.548   5.464  13.532  0.00  0.00    +0.000 A 
ATOM     21  C   UNL     1      45.545   4.523  13.331  0.00  0.00    +0.000 A 
ATOM     22  C   UNL     1      44.888   4.497  12.100  0.00  0.00    +0.000 A 
ATOM     23  C   UNL     1      45.225   5.420  11.117  0.00  0.00    +0.000 A 
ATOM     24  C   UNL     1      46.246   6.303  11.394  0.00  0.00    +0.000 A 
ATOM     25  N   UNL     1      46.916   6.326  12.565  0.00  0.00    +0.000 NA
ATOM     26  H   UNL     1      46.421   5.759  15.467  0.00  0.00    +0.000 HD
BRANCH  22  27
ATOM     27  C   UNL     1      43.806   3.524  11.812  0.00  0.00    +0.000 C 
ATOM     28  N   UNL     1      43.765   2.388  12.569  0.00  0.00    +0.000 N 
ATOM     29  O   UNL     1      43.007   3.714  10.906  0.00  0.00    +0.000 OA
ATOM     30  H   UNL     1      44.541   2.081  13.136  0.00  0.00    +0.000 HD
ATOM     31  H   UNL     1      43.093   1.685  12.281  0.00  0.00    +0.000 HD
ENDBRANCH  22  27
ENDBRANCH  18  19
ENDBRANCH  17  18
ENDBRANCH   6  17
TORSDOF 7
ENDMDL
