MODEL 1
REMARK VINA RESULT:    -6.792      0.000      0.000
REMARK INTER + INTRA:          -9.062
REMARK INTER:                  -8.380
REMARK INTRA:                  -0.682
REMARK UNBOUND:                -0.682
REMARK  Name = 
REMARK  5 active torsions:
REMARK  status: ('A' for Active; 'I' for Inactive)
REMARK    1  A    between atoms: C_1  and  S_2
REMARK    2  A    between atoms: S_2  and  N_5
REMARK    3  A    between atoms: C_8  and  C_9
REMARK    4  A    between atoms: C_9  and  N_10
REMARK    5  A    between atoms: C_15  and  C_16
REMARK                            x       y       z     vdW  Elec       q    Type
REMARK                         _______ _______ _______ _____ _____    ______ ____
ROOT
ATOM      1  N   UNL     1      44.564   5.184  10.627  0.00  0.00    +0.000 N 
ATOM      2  C   UNL     1      43.827   4.211  11.257  0.00  0.00    +0.000 A 
ATOM      3  C   UNL     1      44.019   3.026  10.586  0.00  0.00    +0.000 A 
ATOM      4  C   UNL     1      44.909   3.276   9.506  0.00  0.00    +0.000 A 
ATOM      5  C   UNL     1      45.436   2.467   8.472  0.00  0.00    +0.000 A 
ATOM      6  C   UNL     1      46.327   3.019   7.538  0.00  0.00    +0.000 A 
ATOM      7  C   UNL     1      46.736   4.346   7.684  0.00  0.00    +0.000 A 
ATOM      8  C   UNL     1      46.261   5.146   8.726  0.00  0.00    +0.000 A 
ATOM      9  C   UNL     1      45.297   4.617   9.596  0.00  0.00    +0.000 A 
ENDROOT
BRANCH   6  10
ATOM     10  C   UNL     1      46.874   2.260   6.376  0.00  0.00    +0.000 C 
ATOM     11  N   UNL     1      47.166   2.933   5.224  0.00  0.00    +0.000 N 
ATOM     12  O   UNL     1      47.070   1.049   6.433  0.00  0.00    +0.000 OA
ATOM     13  H   UNL     1      46.994   3.911   5.063  0.00  0.00    +0.000 HD
ATOM     14  H   UNL     1      47.523   2.380   4.456  0.00  0.00    +0.000 HD
ENDBRANCH   6  10
BRANCH   1  15
ATOM     15  C   UNL     1      44.590   6.578  11.055  0.00  0.00    +0.000 C 
BRANCH  15  19
ATOM     16  N   UNL     1      47.641   8.032  12.586  0.00  0.00    +0.000 NA
ATOM     17  C   UNL     1      46.427   8.834  12.264  0.00  0.00    +0.000 C 
ATOM     18  C   UNL     1      45.182   8.271  12.934  0.00  0.00    +0.000 C 
ATOM     19  C   UNL     1      44.937   6.807  12.549  0.00  0.00    +0.000 C 
ATOM     20  C   UNL     1      46.197   6.022  12.958  0.00  0.00    +0.000 C 
ATOM     21  C   UNL     1      47.474   6.571  12.317  0.00  0.00    +0.000 C 
BRANCH  16  23
ATOM     22  C   UNL     1      50.101   9.007  13.236  0.00  0.00    +0.000 C 
ATOM     23  S   UNL     1      49.066   8.657  11.831  0.00  0.00    +0.000 S 
ATOM     24  O   UNL     1      48.710   9.901  11.179  0.00  0.00    +0.000 OA
ATOM     25  O   UNL     1      49.685   7.578  11.091  0.00  0.00    +0.000 OA
ENDBRANCH  16  23
ENDBRANCH  15  19
ENDBRANCH   1  15
TORSDOF 4
ENDMDL
MODEL 2
REMARK VINA RESULT:    -6.209      4.580      8.337
REMARK INTER + INTRA:          -8.342
REMARK INTER:                  -7.820
REMARK INTRA:                  -0.523
REMARK UNBOUND:                -0.682
REMARK  Name = 
REMARK  5 active torsions:
REMARK  status: ('A' for Active; 'I' for Inactive)
REMARK    1  A    between atoms: C_1  and  S_2
REMARK    2  A    between atoms: S_2  and  N_5
REMARK    3  A    between atoms: C_8  and  C_9
REMARK    4  A    between atoms: C_9  and  N_10
REMARK    5  A    between atoms: C_15  and  C_16
REMARK                            x       y       z     vdW  Elec       q    Type
REMARK                         _______ _______ _______ _____ _____    ______ ____
ROOT
ATOM      1  N   UNL     1      47.595   5.431  14.284  0.00  0.00    +0.000 N 
ATOM      2  C   UNL     1      48.218   6.626  14.019  0.00  0.00    +0.000 A 
ATOM      3  C   UNL     1      48.796   7.076  15.183  0.00  0.00    +0.000 A 
ATOM      4  C   UNL     1      48.523   6.122  16.201  0.00  0.00    +0.000 A 
ATOM      5  C   UNL     1      48.826   6.059  17.582  0.00  0.00    +0.000 A 
ATOM      6  C   UNL     1      48.418   4.948  18.337  0.00  0.00    +0.000 A 
ATOM      7  C   UNL     1      47.779   3.884  17.698  0.00  0.00    +0.000 A 
ATOM      8  C   UNL     1      47.514   3.909  16.327  0.00  0.00    +0.000 A 
ATOM      9  C   UNL     1      47.835   5.063  15.599  0.00  0.00    +0.000 A 
ENDROOT
BRANCH   6  10
ATOM     10  C   UNL     1      48.631   4.832  19.809  0.00  0.00    +0.000 C 
ATOM     11  N   UNL     1      48.426   3.624  20.414  0.00  0.00    +0.000 N 
ATOM     12  O   UNL     1      48.987   5.792  20.485  0.00  0.00    +0.000 OA
ATOM     13  H   UNL     1      48.086   2.795  19.957  0.00  0.00    +0.000 HD
ATOM     14  H   UNL     1      48.569   3.591  21.415  0.00  0.00    +0.000 HD
ENDBRANCH   6  10
BRANCH   1  15
ATOM     15  C   UNL     1      46.858   4.668  13.284  0.00  0.00    +0.000 C 
BRANCH  15  19
ATOM     16  N   UNL     1      44.767   4.546  10.220  0.00  0.00    +0.000 NA
ATOM     17  C   UNL     1      44.785   3.460  11.241  0.00  0.00    +0.000 C 
ATOM     18  C   UNL     1      44.439   3.981  12.628  0.00  0.00    +0.000 C 
ATOM     19  C   UNL     1      45.385   5.105  13.070  0.00  0.00    +0.000 C 
ATOM     20  C   UNL     1      45.279   6.218  12.011  0.00  0.00    +0.000 C 
ATOM     21  C   UNL     1      45.603   5.727  10.598  0.00  0.00    +0.000 C 
BRANCH  16  23
ATOM     22  C   UNL     1      45.598   2.277   8.962  0.00  0.00    +0.000 C 
ATOM     23  S   UNL     1      45.160   3.971   8.637  0.00  0.00    +0.000 S 
ATOM     24  O   UNL     1      46.335   4.688   8.187  0.00  0.00    +0.000 OA
ATOM     25  O   UNL     1      43.944   3.965   7.852  0.00  0.00    +0.000 OA
ENDBRANCH  16  23
ENDBRANCH  15  19
ENDBRANCH   1  15
TORSDOF 4
ENDMDL
MODEL 3
REMARK VINA RESULT:    -5.918      4.573      6.356
REMARK INTER + INTRA:          -7.984
REMARK INTER:                  -7.234
REMARK INTRA:                  -0.750
REMARK UNBOUND:                -0.682
REMARK  Name = 
REMARK  5 active torsions:
REMARK  status: ('A' for Active; 'I' for Inactive)
REMARK    1  A    between atoms: C_1  and  S_2
REMARK    2  A    between atoms: S_2  and  N_5
REMARK    3  A    between atoms: C_8  and  C_9
REMARK    4  A    between atoms: C_9  and  N_10
REMARK    5  A    between atoms: C_15  and  C_16
REMARK                            x       y       z     vdW  Elec       q    Type
REMARK                         _______ _______ _______ _____ _____    ______ ____
ROOT
ATOM      1  N   UNL     1      47.952   7.274  13.589  0.00  0.00    +0.000 N 
ATOM      2  C   UNL     1      47.414   8.498  13.275  0.00  0.00    +0.000 A 
ATOM      3  C   UNL     1      46.141   8.297  12.796  0.00  0.00    +0.000 A 
ATOM      4  C   UNL     1      45.883   6.899  12.818  0.00  0.00    +0.000 A 
ATOM      5  C   UNL     1      44.780   6.106  12.423  0.00  0.00    +0.000 A 
ATOM      6  C   UNL     1      44.825   4.713  12.590  0.00  0.00    +0.000 A 
ATOM      7  C   UNL     1      45.933   4.133  13.210  0.00  0.00    +0.000 A 
ATOM      8  C   UNL     1      47.012   4.906  13.648  0.00  0.00    +0.000 A 
ATOM      9  C   UNL     1      47.003   6.284  13.390  0.00  0.00    +0.000 A 
ENDROOT
BRANCH   6  10
ATOM     10  C   UNL     1      43.739   3.795  12.136  0.00  0.00    +0.000 C 
ATOM     11  N   UNL     1      43.770   2.488  12.532  0.00  0.00    +0.000 N 
ATOM     12  O   UNL     1      42.823   4.188  11.420  0.00  0.00    +0.000 OA
ATOM     13  H   UNL     1      44.502   2.061  13.073  0.00  0.00    +0.000 HD
ATOM     14  H   UNL     1      43.022   1.897  12.192  0.00  0.00    +0.000 HD
ENDBRANCH   6  10
BRANCH   1  15
ATOM     15  C   UNL     1      49.303   7.098  14.111  0.00  0.00    +0.000 C 
BRANCH  15  19
ATOM     16  N   UNL     1      50.237   5.954  17.515  0.00  0.00    +0.000 NA
ATOM     17  C   UNL     1      51.238   6.292  16.463  0.00  0.00    +0.000 C 
ATOM     18  C   UNL     1      51.049   7.707  15.935  0.00  0.00    +0.000 C 
ATOM     19  C   UNL     1      49.636   7.927  15.379  0.00  0.00    +0.000 C 
ATOM     20  C   UNL     1      48.654   7.619  16.524  0.00  0.00    +0.000 C 
ATOM     21  C   UNL     1      48.826   6.210  17.093  0.00  0.00    +0.000 C 
BRANCH  16  23
ATOM     22  C   UNL     1      48.851   4.043  18.874  0.00  0.00    +0.000 C 
ATOM     23  S   UNL     1      50.436   4.348  18.125  0.00  0.00    +0.000 S 
ATOM     24  O   UNL     1      51.451   4.391  19.158  0.00  0.00    +0.000 OA
ATOM     25  O   UNL     1      50.563   3.456  16.992  0.00  0.00    +0.000 OA
ENDBRANCH  16  23
ENDBRANCH  15  19
ENDBRANCH   1  15
TORSDOF 4
ENDMDL
MODEL 4
REMARK VINA RESULT:    -5.846      4.834      6.283
REMARK INTER + INTRA:          -7.895
REMARK INTER:                  -7.404
REMARK INTRA:                  -0.490
REMARK UNBOUND:                -0.682
REMARK  Name = 
REMARK  5 active torsions:
REMARK  status: ('A' for Active; 'I' for Inactive)
REMARK    1  A    between atoms: C_1  and  S_2
REMARK    2  A    between atoms: S_2  and  N_5
REMARK    3  A    between atoms: C_8  and  C_9
REMARK    4  A    between atoms: C_9  and  N_10
REMARK    5  A    between atoms: C_15  and  C_16
REMARK                            x       y       z     vdW  Elec       q    Type
REMARK                         _______ _______ _______ _____ _____    ______ ____
ROOT
ATOM      1  N   UNL     1      47.843   6.468  13.821  0.00  0.00    +0.000 N 
ATOM      2  C   UNL     1      48.219   7.567  13.088  0.00  0.00    +0.000 A 
ATOM      3  C   UNL     1      47.516   7.556  11.906  0.00  0.00    +0.000 A 
ATOM      4  C   UNL     1      46.673   6.411  11.912  0.00  0.00    +0.000 A 
ATOM      5  C   UNL     1      45.765   5.867  10.974  0.00  0.00    +0.000 A 
ATOM      6  C   UNL     1      45.052   4.699  11.287  0.00  0.00    +0.000 A 
ATOM      7  C   UNL     1      45.199   4.127  12.552  0.00  0.00    +0.000 A 
ATOM      8  C   UNL     1      46.057   4.677  13.507  0.00  0.00    +0.000 A 
ATOM      9  C   UNL     1      46.838   5.786  13.152  0.00  0.00    +0.000 A 
ENDROOT
BRANCH   6  10
ATOM     10  C   UNL     1      44.130   4.018  10.332  0.00  0.00    +0.000 C 
ATOM     11  N   UNL     1      44.085   4.447   9.036  0.00  0.00    +0.000 N 
ATOM     12  O   UNL     1      43.416   3.083  10.684  0.00  0.00    +0.000 OA
ATOM     13  H   UNL     1      44.591   5.234   8.666  0.00  0.00    +0.000 HD
ATOM     14  H   UNL     1      43.437   3.967   8.424  0.00  0.00    +0.000 HD
ENDBRANCH   6  10
BRANCH   1  15
ATOM     15  C   UNL     1      48.399   6.144  15.129  0.00  0.00    +0.000 C 
BRANCH  15  19
ATOM     16  N   UNL     1      49.792   6.435  18.556  0.00  0.00    +0.000 NA
ATOM     17  C   UNL     1      50.497   5.737  17.444  0.00  0.00    +0.000 C 
ATOM     18  C   UNL     1      50.694   6.645  16.239  0.00  0.00    +0.000 C 
ATOM     19  C   UNL     1      49.363   7.205  15.721  0.00  0.00    +0.000 C 
ATOM     20  C   UNL     1      48.712   7.962  16.893  0.00  0.00    +0.000 C 
ATOM     21  C   UNL     1      48.514   7.084  18.131  0.00  0.00    +0.000 C 
BRANCH  16  23
ATOM     22  C   UNL     1      51.228   4.939  20.323  0.00  0.00    +0.000 C 
ATOM     23  S   UNL     1      49.558   5.416  19.934  0.00  0.00    +0.000 S 
ATOM     24  O   UNL     1      48.819   4.249  19.499  0.00  0.00    +0.000 OA
ATOM     25  O   UNL     1      49.076   6.242  21.020  0.00  0.00    +0.000 OA
ENDBRANCH  16  23
ENDBRANCH  15  19
ENDBRANCH   1  15
TORSDOF 4
ENDMDL
MODEL 5
REMARK VINA RESULT:    -5.482      4.495      8.131
REMARK INTER + INTRA:          -7.446
REMARK INTER:                  -6.660
REMARK INTRA:                  -0.786
REMARK UNBOUND:                -0.682
REMARK  Name = 
REMARK  5 active torsions:
REMARK  status: ('A' for Active; 'I' for Inactive)
REMARK    1  A    between atoms: C_1  and  S_2
REMARK    2  A    between atoms: S_2  and  N_5
REMARK    3  A    between atoms: C_8  and  C_9
REMARK    4  A    between atoms: C_9  and  N_10
REMARK    5  A    between atoms: C_15  and  C_16
REMARK                            x       y       z     vdW  Elec       q    Type
REMARK                         _______ _______ _______ _____ _____    ______ ____
ROOT
ATOM      1  N   UNL     1      48.786   7.984  14.605  0.00  0.00    +0.000 N 
ATOM      2  C   UNL     1      49.918   8.677  14.252  0.00  0.00    +0.000 A 
ATOM      3  C   UNL     1      50.981   8.141  14.940  0.00  0.00    +0.000 A 
ATOM      4  C   UNL     1      50.488   7.077  15.744  0.00  0.00    +0.000 A 
ATOM      5  C   UNL     1      51.093   6.197  16.671  0.00  0.00    +0.000 A 
ATOM      6  C   UNL     1      50.319   5.215  17.311  0.00  0.00    +0.000 A 
ATOM      7  C   UNL     1      48.972   5.076  16.971  0.00  0.00    +0.000 A 
ATOM      8  C   UNL     1      48.369   5.907  16.023  0.00  0.00    +0.000 A 
ATOM      9  C   UNL     1      49.123   6.947  15.461  0.00  0.00    +0.000 A 
ENDROOT
BRANCH   6  10
ATOM     10  C   UNL     1      50.858   4.294  18.354  0.00  0.00    +0.000 C 
ATOM     11  N   UNL     1      50.936   2.959  18.080  0.00  0.00    +0.000 N 
ATOM     12  O   UNL     1      51.234   4.709  19.446  0.00  0.00    +0.000 OA
ATOM     13  H   UNL     1      50.607   2.517  17.237  0.00  0.00    +0.000 HD
ATOM     14  H   UNL     1      51.295   2.367  18.818  0.00  0.00    +0.000 HD
ENDBRANCH   6  10
BRANCH   1  15
ATOM     15  C   UNL     1      47.458   8.289  14.083  0.00  0.00    +0.000 C 
BRANCH  15  19
ATOM     16  N   UNL     1      45.295   5.970  12.157  0.00  0.00    +0.000 NA
ATOM     17  C   UNL     1      44.885   7.355  12.523  0.00  0.00    +0.000 C 
ATOM     18  C   UNL     1      45.881   8.391  12.021  0.00  0.00    +0.000 C 
ATOM     19  C   UNL     1      47.297   8.126  12.549  0.00  0.00    +0.000 C 
ATOM     20  C   UNL     1      47.685   6.708  12.091  0.00  0.00    +0.000 C 
ATOM     21  C   UNL     1      46.695   5.640  12.562  0.00  0.00    +0.000 C 
BRANCH  16  23
ATOM     22  C   UNL     1      43.565   4.098  11.194  0.00  0.00    +0.000 C 
ATOM     23  S   UNL     1      44.174   4.779  12.722  0.00  0.00    +0.000 S 
ATOM     24  O   UNL     1      43.097   5.472  13.397  0.00  0.00    +0.000 OA
ATOM     25  O   UNL     1      44.929   3.742  13.391  0.00  0.00    +0.000 OA
ENDBRANCH  16  23
ENDBRANCH  15  19
ENDBRANCH   1  15
TORSDOF 4
ENDMDL
MODEL 6
REMARK VINA RESULT:    -5.024      4.612      6.742
REMARK INTER + INTRA:          -6.881
REMARK INTER:                  -6.113
REMARK INTRA:                  -0.768
REMARK UNBOUND:                -0.682
REMARK  Name = 
REMARK  5 active torsions:
REMARK  status: ('A' for Active; 'I' for Inactive)
REMARK    1  A    between atoms: C_1  and  S_2
REMARK    2  A    between atoms: S_2  and  N_5
REMARK    3  A    between atoms: C_8  and  C_9
REMARK    4  A    between atoms: C_9  and  N_10
REMARK    5  A    between atoms: C_15  and  C_16
REMARK                            x       y       z     vdW  Elec       q    Type
REMARK                         _______ _______ _______ _____ _____    ______ ____
ROOT
ATOM      1  N   UNL     1      46.906   4.279  13.949  0.00  0.00    +0.000 N 
ATOM      2  C   UNL     1      45.934   3.561  13.296  0.00  0.00    +0.000 A 
ATOM      3  C   UNL     1      45.171   4.440  12.564  0.00  0.00    +0.000 A 
ATOM      4  C   UNL     1      45.692   5.746  12.771  0.00  0.00    +0.000 A 
ATOM      5  C   UNL     1      45.309   7.030  12.317  0.00  0.00    +0.000 A 
ATOM      6  C   UNL     1      46.055   8.157  12.696  0.00  0.00    +0.000 A 
ATOM      7  C   UNL     1      47.210   7.987  13.462  0.00  0.00    +0.000 A 
ATOM      8  C   UNL     1      47.628   6.722  13.881  0.00  0.00    +0.000 A 
ATOM      9  C   UNL     1      46.825   5.613  13.582  0.00  0.00    +0.000 A 
ENDROOT
BRANCH   6  10
ATOM     10  C   UNL     1      45.683   9.553  12.323  0.00  0.00    +0.000 C 
ATOM     11  N   UNL     1      44.397   9.970  12.522  0.00  0.00    +0.000 N 
ATOM     12  O   UNL     1      46.503  10.332  11.845  0.00  0.00    +0.000 OA
ATOM     13  H   UNL     1      43.645   9.393  12.859  0.00  0.00    +0.000 HD
ATOM     14  H   UNL     1      44.183  10.919  12.244  0.00  0.00    +0.000 HD
ENDBRANCH   6  10
BRANCH   1  15
ATOM     15  C   UNL     1      47.893   3.675  14.838  0.00  0.00    +0.000 C 
BRANCH  15  19
ATOM     16  N   UNL     1      49.490   4.687  18.031  0.00  0.00    +0.000 NA
ATOM     17  C   UNL     1      48.465   5.513  17.333  0.00  0.00    +0.000 C 
ATOM     18  C   UNL     1      47.176   4.737  17.099  0.00  0.00    +0.000 C 
ATOM     19  C   UNL     1      47.420   3.451  16.298  0.00  0.00    +0.000 C 
ATOM     20  C   UNL     1      48.440   2.617  17.096  0.00  0.00    +0.000 C 
ATOM     21  C   UNL     1      49.743   3.371  17.367  0.00  0.00    +0.000 C 
BRANCH  16  23
ATOM     22  C   UNL     1      51.616   4.720  19.735  0.00  0.00    +0.000 C 
ATOM     23  S   UNL     1      50.962   5.553  18.304  0.00  0.00    +0.000 S 
ATOM     24  O   UNL     1      50.614   6.913  18.662  0.00  0.00    +0.000 OA
ATOM     25  O   UNL     1      51.851   5.278  17.195  0.00  0.00    +0.000 OA
ENDBRANCH  16  23
ENDBRANCH  15  19
ENDBRANCH   1  15
TORSDOF 4
ENDMDL
MODEL 7
REMARK VINA RESULT:    -4.995      4.850      6.616
REMARK INTER + INTRA:          -6.845
REMARK INTER:                  -6.256
REMARK INTRA:                  -0.589
REMARK UNBOUND:                -0.682
REMARK  Name = 
REMARK  5 active torsions:
REMARK  status: ('A' for Active; 'I' for Inactive)
REMARK    1  A    between atoms: C_1  and  S_2
REMARK    2  A    between atoms: S_2  and  N_5
REMARK    3  A    between atoms: C_8  and  C_9
REMARK    4  A    between atoms: C_9  and  N_10
REMARK    5  A    between atoms: C_15  and  C_16
REMARK                            x       y       z     vdW  Elec       q    Type
REMARK                         _______ _______ _______ _____ _____    ______ ____
ROOT
ATOM      1  N   UNL     1      48.517   7.133  14.203  0.00  0.00    +0.000 N 
ATOM      2  C   UNL     1      48.565   8.416  13.716  0.00  0.00    +0.000 A 
ATOM      3  C   UNL     1      47.649   8.523  12.697  0.00  0.00    +0.000 A 
ATOM      4  C   UNL     1      47.010   7.261  12.552  0.00  0.00    +0.000 A 
ATOM      5  C   UNL     1      46.025   6.765  11.666  0.00  0.00    +0.000 A 
ATOM      6  C   UNL     1      45.578   5.440  11.789  0.00  0.00    +0.000 A 
ATOM      7  C   UNL     1      46.062   4.648  12.831  0.00  0.00    +0.000 A 
ATOM      8  C   UNL     1      47.001   5.137  13.744  0.00  0.00    +0.000 A 
ATOM      9  C   UNL     1      47.515   6.427  13.556  0.00  0.00    +0.000 A 
ENDROOT
BRANCH   6  10
ATOM     10  C   UNL     1      44.597   4.814  10.855  0.00  0.00    +0.000 C 
ATOM     11  N   UNL     1      43.450   5.489  10.550  0.00  0.00    +0.000 N 
ATOM     12  O   UNL     1      44.800   3.711  10.354  0.00  0.00    +0.000 OA
ATOM     13  H   UNL     1      43.172   6.371  10.946  0.00  0.00    +0.000 HD
ATOM     14  H   UNL     1      42.806   5.024   9.923  0.00  0.00    +0.000 HD
ENDBRANCH   6  10
BRANCH   1  15
ATOM     15  C   UNL     1      49.369   6.649  15.284  0.00  0.00    +0.000 C 
BRANCH  15  19
ATOM     16  N   UNL     1      50.546   5.019  18.403  0.00  0.00    +0.000 NA
ATOM     17  C   UNL     1      50.783   6.458  18.093  0.00  0.00    +0.000 C 
ATOM     18  C   UNL     1      49.482   7.200  17.821  0.00  0.00    +0.000 C 
ATOM     19  C   UNL     1      48.688   6.560  16.675  0.00  0.00    +0.000 C 
ATOM     20  C   UNL     1      48.424   5.098  17.078  0.00  0.00    +0.000 C 
ATOM     21  C   UNL     1      49.709   4.323  17.378  0.00  0.00    +0.000 C 
BRANCH  16  23
ATOM     22  C   UNL     1      53.207   5.145  17.835  0.00  0.00    +0.000 C 
ATOM     23  S   UNL     1      52.014   4.159  18.714  0.00  0.00    +0.000 S 
ATOM     24  O   UNL     1      51.908   2.862  18.079  0.00  0.00    +0.000 OA
ATOM     25  O   UNL     1      52.306   4.276  20.126  0.00  0.00    +0.000 OA
ENDBRANCH  16  23
ENDBRANCH  15  19
ENDBRANCH   1  15
TORSDOF 4
ENDMDL
MODEL 8
REMARK VINA RESULT:    -4.937      3.969      5.563
REMARK INTER + INTRA:          -6.774
REMARK INTER:                  -6.178
REMARK INTRA:                  -0.596
REMARK UNBOUND:                -0.682
REMARK  Name = 
REMARK  5 active torsions:
REMARK  status: ('A' for Active; 'I' for Inactive)
REMARK    1  A    between atoms: C_1  and  S_2
REMARK    2  A    between atoms: S_2  and  N_5
REMARK    3  A    between atoms: C_8  and  C_9
REMARK    4  A    between atoms: C_9  and  N_10
REMARK    5  A    between atoms: C_15  and  C_16
REMARK                            x       y       z     vdW  Elec       q    Type
REMARK                         _______ _______ _______ _____ _____    ______ ____
ROOT
ATOM      1  N   UNL     1      47.314   7.726  13.409  0.00  0.00    +0.000 N 
ATOM      2  C   UNL     1      46.592   8.821  13.000  0.00  0.00    +0.000 A 
ATOM      3  C   UNL     1      45.427   8.375  12.422  0.00  0.00    +0.000 A 
ATOM      4  C   UNL     1      45.428   6.955  12.481  0.00  0.00    +0.000 A 
ATOM      5  C   UNL     1      44.529   5.961  12.026  0.00  0.00    +0.000 A 
ATOM      6  C   UNL     1      44.812   4.605  12.253  0.00  0.00    +0.000 A 
ATOM      7  C   UNL     1      45.946   4.257  12.989  0.00  0.00    +0.000 A 
ATOM      8  C   UNL     1      46.821   5.227  13.486  0.00  0.00    +0.000 A 
ATOM      9  C   UNL     1      46.584   6.573  13.171  0.00  0.00    +0.000 A 
ENDROOT
BRANCH   6  10
ATOM     10  C   UNL     1      43.959   3.491  11.747  0.00  0.00    +0.000 C 
ATOM     11  N   UNL     1      43.804   2.374  12.517  0.00  0.00    +0.000 N 
ATOM     12  O   UNL     1      43.393   3.557  10.659  0.00  0.00    +0.000 OA
ATOM     13  H   UNL     1      44.265   2.204  13.395  0.00  0.00    +0.000 HD
ATOM     14  H   UNL     1      43.228   1.636  12.132  0.00  0.00    +0.000 HD
ENDBRANCH   6  10
BRANCH   1  15
ATOM     15  C   UNL     1      48.620   7.817  14.051  0.00  0.00    +0.000 C 
BRANCH  15  19
ATOM     16  N   UNL     1      51.270   8.565  16.539  0.00  0.00    +0.000 NA
ATOM     17  C   UNL     1      50.187   9.526  16.185  0.00  0.00    +0.000 C 
ATOM     18  C   UNL     1      48.805   8.925  16.394  0.00  0.00    +0.000 C 
ATOM     19  C   UNL     1      48.616   7.631  15.591  0.00  0.00    +0.000 C 
ATOM     20  C   UNL     1      49.723   6.661  16.042  0.00  0.00    +0.000 C 
ATOM     21  C   UNL     1      51.129   7.239  15.863  0.00  0.00    +0.000 C 
BRANCH  16  23
ATOM     22  C   UNL     1      53.608   8.013  15.254  0.00  0.00    +0.000 C 
ATOM     23  S   UNL     1      52.848   9.232  16.305  0.00  0.00    +0.000 S 
ATOM     24  O   UNL     1      53.519   9.238  17.589  0.00  0.00    +0.000 OA
ATOM     25  O   UNL     1      52.706  10.448  15.533  0.00  0.00    +0.000 OA
ENDBRANCH  16  23
ENDBRANCH  15  19
ENDBRANCH   1  15
TORSDOF 4
ENDMDL
MODEL 9
REMARK VINA RESULT:    -4.822      3.815      5.324
REMARK INTER + INTRA:          -6.632
REMARK INTER:                  -6.024
REMARK INTRA:                  -0.608
REMARK UNBOUND:                -0.682
REMARK  Name = 
REMARK  5 active torsions:
REMARK  status: ('A' for Active; 'I' for Inactive)
REMARK    1  A    between atoms: C_1  and  S_2
REMARK    2  A    between atoms: S_2  and  N_5
REMARK    3  A    between atoms: C_8  and  C_9
REMARK    4  A    between atoms: C_9  and  N_10
REMARK    5  A    between atoms: C_15  and  C_16
REMARK                            x       y       z     vdW  Elec       q    Type
REMARK                         _______ _______ _______ _____ _____    ______ ____
ROOT
ATOM      1  N   UNL     1      47.961   6.230  14.239  0.00  0.00    +0.000 N 
ATOM      2  C   UNL     1      47.799   5.244  15.181  0.00  0.00    +0.000 A 
ATOM      3  C   UNL     1      46.759   4.437  14.783  0.00  0.00    +0.000 A 
ATOM      4  C   UNL     1      46.264   4.942  13.550  0.00  0.00    +0.000 A 
ATOM      5  C   UNL     1      45.204   4.558  12.696  0.00  0.00    +0.000 A 
ATOM      6  C   UNL     1      44.969   5.269  11.509  0.00  0.00    +0.000 A 
ATOM      7  C   UNL     1      45.831   6.307  11.151  0.00  0.00    +0.000 A 
ATOM      8  C   UNL     1      46.911   6.670  11.959  0.00  0.00    +0.000 A 
ATOM      9  C   UNL     1      47.080   6.020  13.190  0.00  0.00    +0.000 A 
ENDROOT
BRANCH   6  10
ATOM     10  C   UNL     1      43.831   4.978  10.588  0.00  0.00    +0.000 C 
ATOM     11  N   UNL     1      44.101   4.570   9.313  0.00  0.00    +0.000 N 
ATOM     12  O   UNL     1      42.664   5.095  10.950  0.00  0.00    +0.000 OA
ATOM     13  H   UNL     1      45.019   4.493   8.908  0.00  0.00    +0.000 HD
ATOM     14  H   UNL     1      43.302   4.395   8.716  0.00  0.00    +0.000 HD
ENDBRANCH   6  10
BRANCH   1  15
ATOM     15  C   UNL     1      48.966   7.283  14.340  0.00  0.00    +0.000 C 
BRANCH  15  19
ATOM     16  N   UNL     1      50.546  10.131  16.118  0.00  0.00    +0.000 NA
ATOM     17  C   UNL     1      50.613   9.952  14.640  0.00  0.00    +0.000 C 
ATOM     18  C   UNL     1      49.227   9.848  14.019  0.00  0.00    +0.000 C 
ATOM     19  C   UNL     1      48.411   8.702  14.631  0.00  0.00    +0.000 C 
ATOM     20  C   UNL     1      48.328   8.973  16.145  0.00  0.00    +0.000 C 
ATOM     21  C   UNL     1      49.704   9.102  16.801  0.00  0.00    +0.000 C 
BRANCH  16  23
ATOM     22  C   UNL     1      52.094   8.884  17.981  0.00  0.00    +0.000 C 
ATOM     23  S   UNL     1      52.114  10.250  16.840  0.00  0.00    +0.000 S 
ATOM     24  O   UNL     1      52.164  11.491  17.584  0.00  0.00    +0.000 OA
ATOM     25  O   UNL     1      53.096   9.952  15.820  0.00  0.00    +0.000 OA
ENDBRANCH  16  23
ENDBRANCH  15  19
ENDBRANCH   1  15
TORSDOF 4
ENDMDL
