MODEL 1
REMARK VINA RESULT:    -8.399      0.000      0.000
REMARK INTER + INTRA:         -12.402
REMARK INTER:                 -11.345
REMARK INTRA:                  -1.057
REMARK UNBOUND:                -1.057
REMARK  Name = 
REMARK  6 active torsions:
REMARK  status: ('A' for Active; 'I' for Inactive)
REMARK    1  A    between atoms: C_2  and  C_3
REMARK    2  A    between atoms: C_6  and  C_7
REMARK    3  A    between atoms: C_11  and  C_12
REMARK    4  A    between atoms: C_12  and  N_13
REMARK    5  A    between atoms: N_13  and  C_14
REMARK    6  A    between atoms: C_17  and  C_18
REMARK                            x       y       z     vdW  Elec       q    Type
REMARK                         _______ _______ _______ _____ _____    ______ ____
ROOT
ATOM      1  C   UNL     1      43.865   5.078  11.342  0.00  0.00    +0.000 C 
ATOM      2  C   UNL     1      43.192   6.403  11.006  0.00  0.00    +0.000 C 
ATOM      3  C   UNL     1      42.558   5.506  12.011  0.00  0.00    +0.000 C 
ENDROOT
BRANCH   1   8
ATOM      4  C   UNL     1      47.170   6.255  12.599  0.00  0.00    +0.000 A 
ATOM      5  C   UNL     1      47.550   5.287  13.524  0.00  0.00    +0.000 A 
ATOM      6  C   UNL     1      46.689   4.232  13.789  0.00  0.00    +0.000 A 
ATOM      7  C   UNL     1      45.481   4.161  13.106  0.00  0.00    +0.000 A 
ATOM      8  C   UNL     1      45.153   5.147  12.172  0.00  0.00    +0.000 A 
ATOM      9  N   UNL     1      45.980   6.201  11.956  0.00  0.00    +0.000 NA
BRANCH   4  13
ATOM     10  C   UNL     1      49.701   9.545  11.483  0.00  0.00    +0.000 A 
ATOM     11  C   UNL     1      50.217   8.251  11.530  0.00  0.00    +0.000 A 
ATOM     12  C   UNL     1      49.393   7.184  11.891  0.00  0.00    +0.000 A 
ATOM     13  C   UNL     1      48.039   7.382  12.218  0.00  0.00    +0.000 A 
ATOM     14  C   UNL     1      47.534   8.694  12.144  0.00  0.00    +0.000 A 
ATOM     15  C   UNL     1      48.356   9.767  11.788  0.00  0.00    +0.000 A 
BRANCH  10  17
ATOM     16  N   UNL     1      51.238  11.516  10.805  0.00  0.00    +0.000 NA
ATOM     17  C   UNL     1      50.546  10.637  11.117  0.00  0.00    +0.000 C 
ENDBRANCH  10  17
ENDBRANCH   4  13
ENDBRANCH   1   8
BRANCH   1  18
ATOM     18  N   UNL     1      43.746   3.841  10.519  0.00  0.00    +0.000 N 
ATOM     19  H   UNL     1      43.448   3.036  11.071  0.00  0.00    +0.000 HD
BRANCH  18  20
ATOM     20  C   UNL     1      44.704   3.472   9.555  0.00  0.00    +0.000 A 
ATOM     21  C   UNL     1      45.058   2.126   9.389  0.00  0.00    +0.000 A 
ATOM     22  C   UNL     1      45.955   1.751   8.383  0.00  0.00    +0.000 A 
ATOM     23  C   UNL     1      46.460   2.743   7.554  0.00  0.00    +0.000 A 
ATOM     24  N   UNL     1      46.121   4.054   7.654  0.00  0.00    +0.000 NA
ATOM     25  C   UNL     1      45.243   4.366   8.635  0.00  0.00    +0.000 A 
BRANCH  23  26
ATOM     26  C   UNL     1      47.434   2.408   6.471  0.00  0.00    +0.000 C 
ATOM     27  N   UNL     1      47.421   3.274   5.404  0.00  0.00    +0.000 N 
ATOM     28  O   UNL     1      48.179   1.444   6.513  0.00  0.00    +0.000 OA
ATOM     29  H   UNL     1      46.776   4.057   5.410  0.00  0.00    +0.000 HD
ATOM     30  H   UNL     1      48.051   3.131   4.629  0.00  0.00    +0.000 HD
ENDBRANCH  23  26
ENDBRANCH  18  20
ENDBRANCH   1  18
TORSDOF 6
ENDMDL
MODEL 2
REMARK VINA RESULT:    -8.134      2.677      4.503
REMARK INTER + INTRA:         -12.043
REMARK INTER:                 -12.058
REMARK INTRA:                   0.014
REMARK UNBOUND:                -1.057
REMARK  Name = 
REMARK  6 active torsions:
REMARK  status: ('A' for Active; 'I' for Inactive)
REMARK    1  A    between atoms: C_2  and  C_3
REMARK    2  A    between atoms: C_6  and  C_7
REMARK    3  A    between atoms: C_11  and  C_12
REMARK    4  A    between atoms: C_12  and  N_13
REMARK    5  A    between atoms: N_13  and  C_14
REMARK    6  A    between atoms: C_17  and  C_18
REMARK                            x       y       z     vdW  Elec       q    Type
REMARK                         _______ _______ _______ _____ _____    ______ ____
ROOT
ATOM      1  C   UNL     1      44.040   4.759  11.573  0.00  0.00    +0.000 C 
ATOM      2  C   UNL     1      42.907   4.915  12.579  0.00  0.00    +0.000 C 
ATOM      3  C   UNL     1      43.516   3.571  12.382  0.00  0.00    +0.000 C 
ENDROOT
BRANCH   1   8
ATOM      4  C   UNL     1      47.039   5.608  13.615  0.00  0.00    +0.000 A 
ATOM      5  C   UNL     1      47.773   6.470  12.805  0.00  0.00    +0.000 A 
ATOM      6  C   UNL     1      47.308   6.759  11.531  0.00  0.00    +0.000 A 
ATOM      7  C   UNL     1      46.110   6.196  11.108  0.00  0.00    +0.000 A 
ATOM      8  C   UNL     1      45.399   5.351  11.965  0.00  0.00    +0.000 A 
ATOM      9  N   UNL     1      45.888   5.036  13.191  0.00  0.00    +0.000 NA
BRANCH   4  13
ATOM     10  C   UNL     1      48.182   4.662  17.649  0.00  0.00    +0.000 A 
ATOM     11  C   UNL     1      47.346   3.801  16.940  0.00  0.00    +0.000 A 
ATOM     12  C   UNL     1      46.977   4.110  15.630  0.00  0.00    +0.000 A 
ATOM     13  C   UNL     1      47.429   5.283  14.998  0.00  0.00    +0.000 A 
ATOM     14  C   UNL     1      48.290   6.126  15.726  0.00  0.00    +0.000 A 
ATOM     15  C   UNL     1      48.658   5.825  17.040  0.00  0.00    +0.000 A 
BRANCH  10  17
ATOM     16  N   UNL     1      48.875   4.098  20.080  0.00  0.00    +0.000 NA
ATOM     17  C   UNL     1      48.557   4.347  18.992  0.00  0.00    +0.000 C 
ENDBRANCH  10  17
ENDBRANCH   4  13
ENDBRANCH   1   8
BRANCH   1  18
ATOM     18  N   UNL     1      43.846   4.621  10.102  0.00  0.00    +0.000 N 
ATOM     19  H   UNL     1      42.864   4.499   9.850  0.00  0.00    +0.000 HD
BRANCH  18  20
ATOM     20  C   UNL     1      44.682   3.825   9.295  0.00  0.00    +0.000 A 
ATOM     21  C   UNL     1      45.484   4.415   8.308  0.00  0.00    +0.000 A 
ATOM     22  C   UNL     1      46.368   3.634   7.556  0.00  0.00    +0.000 A 
ATOM     23  C   UNL     1      46.435   2.276   7.830  0.00  0.00    +0.000 A 
ATOM     24  N   UNL     1      45.703   1.664   8.797  0.00  0.00    +0.000 NA
ATOM     25  C   UNL     1      44.871   2.462   9.504  0.00  0.00    +0.000 A 
BRANCH  23  26
ATOM     26  C   UNL     1      47.348   1.385   7.050  0.00  0.00    +0.000 C 
ATOM     27  N   UNL     1      48.461   2.010   6.542  0.00  0.00    +0.000 N 
ATOM     28  O   UNL     1      47.130   0.199   6.864  0.00  0.00    +0.000 OA
ATOM     29  H   UNL     1      48.593   3.001   6.714  0.00  0.00    +0.000 HD
ATOM     30  H   UNL     1      49.137   1.486   6.008  0.00  0.00    +0.000 HD
ENDBRANCH  23  26
ENDBRANCH  18  20
ENDBRANCH   1  18
TORSDOF 6
ENDMDL
MODEL 3
REMARK VINA RESULT:    -7.163      3.265      7.314
REMARK INTER + INTRA:         -10.732
REMARK INTER:                 -10.087
REMARK INTRA:                  -0.646
REMARK UNBOUND:                -1.057
REMARK  Name = 
REMARK  6 active torsions:
REMARK  status: ('A' for Active; 'I' for Inactive)
REMARK    1  A    between atoms: C_2  and  C_3
REMARK    2  A    between atoms: C_6  and  C_7
REMARK    3  A    between atoms: C_11  and  C_12
REMARK    4  A    between atoms: C_12  and  N_13
REMARK    5  A    between atoms: N_13  and  C_14
REMARK    6  A    between atoms: C_17  and  C_18
REMARK                            x       y       z     vdW  Elec       q    Type
REMARK                         _______ _______ _______ _____ _____    ______ ____
ROOT
ATOM      1  C   UNL     1      45.991   7.554  12.621  0.00  0.00    +0.000 C 
ATOM      2  C   UNL     1      45.293   8.752  13.252  0.00  0.00    +0.000 C 
ATOM      3  C   UNL     1      46.059   8.946  11.990  0.00  0.00    +0.000 C 
ENDROOT
BRANCH   1   8
ATOM      4  C   UNL     1      44.875   4.862  10.299  0.00  0.00    +0.000 A 
ATOM      5  C   UNL     1      43.528   4.683  10.603  0.00  0.00    +0.000 A 
ATOM      6  C   UNL     1      42.962   5.428  11.626  0.00  0.00    +0.000 A 
ATOM      7  C   UNL     1      43.752   6.348  12.305  0.00  0.00    +0.000 A 
ATOM      8  C   UNL     1      45.095   6.505  11.951  0.00  0.00    +0.000 A 
ATOM      9  N   UNL     1      45.651   5.736  10.980  0.00  0.00    +0.000 NA
BRANCH   4  13
ATOM     10  C   UNL     1      46.835   2.794   7.081  0.00  0.00    +0.000 A 
ATOM     11  C   UNL     1      46.116   2.077   8.037  0.00  0.00    +0.000 A 
ATOM     12  C   UNL     1      45.479   2.751   9.079  0.00  0.00    +0.000 A 
ATOM     13  C   UNL     1      45.548   4.151   9.197  0.00  0.00    +0.000 A 
ATOM     14  C   UNL     1      46.261   4.856   8.209  0.00  0.00    +0.000 A 
ATOM     15  C   UNL     1      46.905   4.186   7.165  0.00  0.00    +0.000 A 
BRANCH  10  17
ATOM     16  N   UNL     1      48.036   1.545   5.156  0.00  0.00    +0.000 NA
ATOM     17  C   UNL     1      47.489   2.103   6.015  0.00  0.00    +0.000 C 
ENDBRANCH  10  17
ENDBRANCH   4  13
ENDBRANCH   1   8
BRANCH   1  18
ATOM     18  N   UNL     1      47.312   7.023  13.059  0.00  0.00    +0.000 N 
ATOM     19  H   UNL     1      47.919   6.796  12.270  0.00  0.00    +0.000 HD
BRANCH  18  20
ATOM     20  C   UNL     1      47.450   6.080  14.095  0.00  0.00    +0.000 A 
ATOM     21  C   UNL     1      48.247   6.367  15.212  0.00  0.00    +0.000 A 
ATOM     22  C   UNL     1      48.325   5.460  16.276  0.00  0.00    +0.000 A 
ATOM     23  C   UNL     1      47.582   4.292  16.194  0.00  0.00    +0.000 A 
ATOM     24  N   UNL     1      46.771   3.985  15.149  0.00  0.00    +0.000 NA
ATOM     25  C   UNL     1      46.720   4.896  14.151  0.00  0.00    +0.000 A 
BRANCH  23  26
ATOM     26  C   UNL     1      47.635   3.276  17.290  0.00  0.00    +0.000 C 
ATOM     27  N   UNL     1      48.878   3.108  17.853  0.00  0.00    +0.000 N 
ATOM     28  O   UNL     1      46.665   2.635  17.658  0.00  0.00    +0.000 OA
ATOM     29  H   UNL     1      49.656   3.657  17.506  0.00  0.00    +0.000 HD
ATOM     30  H   UNL     1      49.007   2.449  18.605  0.00  0.00    +0.000 HD
ENDBRANCH  23  26
ENDBRANCH  18  20
ENDBRANCH   1  18
TORSDOF 6
ENDMDL
MODEL 4
REMARK VINA RESULT:    -6.991      1.596      2.525
REMARK INTER + INTRA:         -10.500
REMARK INTER:                 -10.283
REMARK INTRA:                  -0.217
REMARK UNBOUND:                -1.057
REMARK  Name = 
REMARK  6 active torsions:
REMARK  status: ('A' for Active; 'I' for Inactive)
REMARK    1  A    between atoms: C_2  and  C_3
REMARK    2  A    between atoms: C_6  and  C_7
REMARK    3  A    between atoms: C_11  and  C_12
REMARK    4  A    between atoms: C_12  and  N_13
REMARK    5  A    between atoms: N_13  and  C_14
REMARK    6  A    between atoms: C_17  and  C_18
REMARK                            x       y       z     vdW  Elec       q    Type
REMARK                         _______ _______ _______ _____ _____    ______ ____
ROOT
ATOM      1  C   UNL     1      44.571   4.279  11.798  0.00  0.00    +0.000 C 
ATOM      2  C   UNL     1      44.217   3.730  13.174  0.00  0.00    +0.000 C 
ATOM      3  C   UNL     1      45.506   3.327  12.547  0.00  0.00    +0.000 C 
ENDROOT
BRANCH   1   8
ATOM      4  C   UNL     1      46.615   7.384  12.064  0.00  0.00    +0.000 A 
ATOM      5  C   UNL     1      45.729   8.407  11.742  0.00  0.00    +0.000 A 
ATOM      6  C   UNL     1      44.428   8.085  11.382  0.00  0.00    +0.000 A 
ATOM      7  C   UNL     1      44.042   6.750  11.375  0.00  0.00    +0.000 A 
ATOM      8  C   UNL     1      44.964   5.760  11.724  0.00  0.00    +0.000 A 
ATOM      9  N   UNL     1      46.248   6.082  12.027  0.00  0.00    +0.000 NA
BRANCH   4  13
ATOM     10  C   UNL     1      50.653   8.109  13.346  0.00  0.00    +0.000 A 
ATOM     11  C   UNL     1      49.758   7.456  14.192  0.00  0.00    +0.000 A 
ATOM     12  C   UNL     1      48.448   7.220  13.773  0.00  0.00    +0.000 A 
ATOM     13  C   UNL     1      47.999   7.633  12.505  0.00  0.00    +0.000 A 
ATOM     14  C   UNL     1      48.926   8.271  11.659  0.00  0.00    +0.000 A 
ATOM     15  C   UNL     1      50.238   8.514  12.075  0.00  0.00    +0.000 A 
BRANCH  10  17
ATOM     16  N   UNL     1      53.085   8.534  14.129  0.00  0.00    +0.000 NA
ATOM     17  C   UNL     1      51.994   8.352  13.777  0.00  0.00    +0.000 C 
ENDBRANCH  10  17
ENDBRANCH   4  13
ENDBRANCH   1   8
BRANCH   1  18
ATOM     18  N   UNL     1      44.052   3.731  10.513  0.00  0.00    +0.000 N 
ATOM     19  H   UNL     1      43.342   3.012  10.657  0.00  0.00    +0.000 HD
BRANCH  18  20
ATOM     20  C   UNL     1      44.890   3.408   9.428  0.00  0.00    +0.000 A 
ATOM     21  C   UNL     1      45.479   4.425   8.663  0.00  0.00    +0.000 A 
ATOM     22  C   UNL     1      46.369   4.106   7.631  0.00  0.00    +0.000 A 
ATOM     23  C   UNL     1      46.658   2.767   7.407  0.00  0.00    +0.000 A 
ATOM     24  N   UNL     1      46.138   1.750   8.142  0.00  0.00    +0.000 NA
ATOM     25  C   UNL     1      45.292   2.109   9.135  0.00  0.00    +0.000 A 
BRANCH  23  26
ATOM     26  C   UNL     1      47.588   2.361   6.309  0.00  0.00    +0.000 C 
ATOM     27  N   UNL     1      47.415   3.046   5.130  0.00  0.00    +0.000 N 
ATOM     28  O   UNL     1      48.430   1.488   6.433  0.00  0.00    +0.000 OA
ATOM     29  H   UNL     1      46.693   3.757   5.073  0.00  0.00    +0.000 HD
ATOM     30  H   UNL     1      48.003   2.844   4.337  0.00  0.00    +0.000 HD
ENDBRANCH  23  26
ENDBRANCH  18  20
ENDBRANCH   1  18
TORSDOF 6
ENDMDL
MODEL 5
REMARK VINA RESULT:    -6.697      4.645      6.946
REMARK INTER + INTRA:         -10.102
REMARK INTER:                  -9.228
REMARK INTRA:                  -0.875
REMARK UNBOUND:                -1.057
REMARK  Name = 
REMARK  6 active torsions:
REMARK  status: ('A' for Active; 'I' for Inactive)
REMARK    1  A    between atoms: C_2  and  C_3
REMARK    2  A    between atoms: C_6  and  C_7
REMARK    3  A    between atoms: C_11  and  C_12
REMARK    4  A    between atoms: C_12  and  N_13
REMARK    5  A    between atoms: N_13  and  C_14
REMARK    6  A    between atoms: C_17  and  C_18
REMARK                            x       y       z     vdW  Elec       q    Type
REMARK                         _______ _______ _______ _____ _____    ______ ____
ROOT
ATOM      1  C   UNL     1      48.194   7.470  13.782  0.00  0.00    +0.000 C 
ATOM      2  C   UNL     1      49.181   7.001  12.721  0.00  0.00    +0.000 C 
ATOM      3  C   UNL     1      48.931   8.460  12.879  0.00  0.00    +0.000 C 
ENDROOT
BRANCH   1   8
ATOM      4  C   UNL     1      49.726   6.088  16.885  0.00  0.00    +0.000 A 
ATOM      5  C   UNL     1      49.390   7.009  17.873  0.00  0.00    +0.000 A 
ATOM      6  C   UNL     1      48.679   8.146  17.522  0.00  0.00    +0.000 A 
ATOM      7  C   UNL     1      48.301   8.322  16.196  0.00  0.00    +0.000 A 
ATOM      8  C   UNL     1      48.644   7.359  15.244  0.00  0.00    +0.000 A 
ATOM      9  N   UNL     1      49.384   6.274  15.589  0.00  0.00    +0.000 NA
BRANCH   4  13
ATOM     10  C   UNL     1      51.801   2.417  17.720  0.00  0.00    +0.000 A 
ATOM     11  C   UNL     1      50.445   2.395  17.397  0.00  0.00    +0.000 A 
ATOM     12  C   UNL     1      49.774   3.588  17.125  0.00  0.00    +0.000 A 
ATOM     13  C   UNL     1      50.436   4.829  17.173  0.00  0.00    +0.000 A 
ATOM     14  C   UNL     1      51.809   4.825  17.480  0.00  0.00    +0.000 A 
ATOM     15  C   UNL     1      52.486   3.634  17.758  0.00  0.00    +0.000 A 
BRANCH  10  17
ATOM     16  N   UNL     1      53.042   0.206  18.246  0.00  0.00    +0.000 NA
ATOM     17  C   UNL     1      52.487   1.196  18.001  0.00  0.00    +0.000 C 
ENDBRANCH  10  17
ENDBRANCH   4  13
ENDBRANCH   1   8
BRANCH   1  18
ATOM     18  N   UNL     1      46.714   7.480  13.609  0.00  0.00    +0.000 N 
ATOM     19  H   UNL     1      46.228   7.807  14.446  0.00  0.00    +0.000 HD
BRANCH  18  20
ATOM     20  C   UNL     1      46.011   6.429  12.990  0.00  0.00    +0.000 A 
ATOM     21  C   UNL     1      45.531   6.572  11.681  0.00  0.00    +0.000 A 
ATOM     22  C   UNL     1      44.897   5.502  11.040  0.00  0.00    +0.000 A 
ATOM     23  C   UNL     1      44.779   4.304  11.730  0.00  0.00    +0.000 A 
ATOM     24  N   UNL     1      45.256   4.107  12.986  0.00  0.00    +0.000 NA
ATOM     25  C   UNL     1      45.871   5.167  13.560  0.00  0.00    +0.000 A 
BRANCH  23  26
ATOM     26  C   UNL     1      44.097   3.129  11.106  0.00  0.00    +0.000 C 
ATOM     27  N   UNL     1      44.841   2.479  10.150  0.00  0.00    +0.000 N 
ATOM     28  O   UNL     1      42.970   2.771  11.404  0.00  0.00    +0.000 OA
ATOM     29  H   UNL     1      45.770   2.821   9.929  0.00  0.00    +0.000 HD
ATOM     30  H   UNL     1      44.464   1.669   9.681  0.00  0.00    +0.000 HD
ENDBRANCH  23  26
ENDBRANCH  18  20
ENDBRANCH   1  18
TORSDOF 6
ENDMDL
MODEL 6
REMARK VINA RESULT:    -6.398      4.541      8.238
REMARK INTER + INTRA:          -9.699
REMARK INTER:                  -8.601
REMARK INTRA:                  -1.098
REMARK UNBOUND:                -1.057
REMARK  Name = 
REMARK  6 active torsions:
REMARK  status: ('A' for Active; 'I' for Inactive)
REMARK    1  A    between atoms: C_2  and  C_3
REMARK    2  A    between atoms: C_6  and  C_7
REMARK    3  A    between atoms: C_11  and  C_12
REMARK    4  A    between atoms: C_12  and  N_13
REMARK    5  A    between atoms: N_13  and  C_14
REMARK    6  A    between atoms: C_17  and  C_18
REMARK                            x       y       z     vdW  Elec       q    Type
REMARK                         _______ _______ _______ _____ _____    ______ ____
ROOT
ATOM      1  C   UNL     1      49.161   8.619  16.857  0.00  0.00    +0.000 C 
ATOM      2  C   UNL     1      47.890   9.377  17.219  0.00  0.00    +0.000 C 
ATOM      3  C   UNL     1      49.191  10.100  17.238  0.00  0.00    +0.000 C 
ENDROOT
BRANCH   1   8
ATOM      4  C   UNL     1      48.518   7.134  13.500  0.00  0.00    +0.000 A 
ATOM      5  C   UNL     1      49.659   7.442  12.764  0.00  0.00    +0.000 A 
ATOM      6  C   UNL     1      50.661   8.196  13.357  0.00  0.00    +0.000 A 
ATOM      7  C   UNL     1      50.506   8.604  14.677  0.00  0.00    +0.000 A 
ATOM      8  C   UNL     1      49.350   8.253  15.380  0.00  0.00    +0.000 A 
ATOM      9  N   UNL     1      48.354   7.557  14.775  0.00  0.00    +0.000 NA
BRANCH   4  13
ATOM     10  C   UNL     1      45.331   4.699  11.955  0.00  0.00    +0.000 A 
ATOM     11  C   UNL     1      45.937   4.370  13.167  0.00  0.00    +0.000 A 
ATOM     12  C   UNL     1      46.970   5.163  13.667  0.00  0.00    +0.000 A 
ATOM     13  C   UNL     1      47.427   6.298  12.970  0.00  0.00    +0.000 A 
ATOM     14  C   UNL     1      46.786   6.622  11.760  0.00  0.00    +0.000 A 
ATOM     15  C   UNL     1      45.754   5.829  11.252  0.00  0.00    +0.000 A 
BRANCH  10  17
ATOM     16  N   UNL     1      43.408   3.237  11.022  0.00  0.00    +0.000 NA
ATOM     17  C   UNL     1      44.274   3.885  11.442  0.00  0.00    +0.000 C 
ENDBRANCH  10  17
ENDBRANCH   4  13
ENDBRANCH   1   8
BRANCH   1  18
ATOM     18  N   UNL     1      49.912   7.738  17.795  0.00  0.00    +0.000 N 
ATOM     19  H   UNL     1      50.831   8.115  18.029  0.00  0.00    +0.000 HD
BRANCH  18  20
ATOM     20  C   UNL     1      49.957   6.337  17.654  0.00  0.00    +0.000 A 
ATOM     21  C   UNL     1      48.772   5.588  17.642  0.00  0.00    +0.000 A 
ATOM     22  C   UNL     1      48.813   4.206  17.429  0.00  0.00    +0.000 A 
ATOM     23  C   UNL     1      50.049   3.613  17.215  0.00  0.00    +0.000 A 
ATOM     24  N   UNL     1      51.220   4.301  17.184  0.00  0.00    +0.000 NA
ATOM     25  C   UNL     1      51.129   5.636  17.385  0.00  0.00    +0.000 A 
BRANCH  23  26
ATOM     26  C   UNL     1      50.161   2.139  16.997  0.00  0.00    +0.000 C 
ATOM     27  N   UNL     1      51.089   1.512  17.794  0.00  0.00    +0.000 N 
ATOM     28  O   UNL     1      49.495   1.529  16.177  0.00  0.00    +0.000 OA
ATOM     29  H   UNL     1      51.626   2.064  18.454  0.00  0.00    +0.000 HD
ATOM     30  H   UNL     1      51.228   0.516  17.721  0.00  0.00    +0.000 HD
ENDBRANCH  23  26
ENDBRANCH  18  20
ENDBRANCH   1  18
TORSDOF 6
ENDMDL
MODEL 7
REMARK VINA RESULT:    -6.137      3.795      7.870
REMARK INTER + INTRA:          -9.346
REMARK INTER:                  -9.799
REMARK INTRA:                   0.453
REMARK UNBOUND:                -1.057
REMARK  Name = 
REMARK  6 active torsions:
REMARK  status: ('A' for Active; 'I' for Inactive)
REMARK    1  A    between atoms: C_2  and  C_3
REMARK    2  A    between atoms: C_6  and  C_7
REMARK    3  A    between atoms: C_11  and  C_12
REMARK    4  A    between atoms: C_12  and  N_13
REMARK    5  A    between atoms: N_13  and  C_14
REMARK    6  A    between atoms: C_17  and  C_18
REMARK                            x       y       z     vdW  Elec       q    Type
REMARK                         _______ _______ _______ _____ _____    ______ ____
ROOT
ATOM      1  C   UNL     1      46.196   5.431  13.751  0.00  0.00    +0.000 C 
ATOM      2  C   UNL     1      46.610   6.893  13.633  0.00  0.00    +0.000 C 
ATOM      3  C   UNL     1      47.591   5.834  13.269  0.00  0.00    +0.000 C 
ENDROOT
BRANCH   1   8
ATOM      4  C   UNL     1      44.865   4.007  10.574  0.00  0.00    +0.000 A 
ATOM      5  C   UNL     1      43.483   4.063  10.726  0.00  0.00    +0.000 A 
ATOM      6  C   UNL     1      42.953   4.538  11.916  0.00  0.00    +0.000 A 
ATOM      7  C   UNL     1      43.819   4.966  12.915  0.00  0.00    +0.000 A 
ATOM      8  C   UNL     1      45.199   4.909  12.709  0.00  0.00    +0.000 A 
ATOM      9  N   UNL     1      45.708   4.396  11.559  0.00  0.00    +0.000 NA
BRANCH   4  13
ATOM     10  C   UNL     1      46.762   2.719   6.939  0.00  0.00    +0.000 A 
ATOM     11  C   UNL     1      46.262   1.778   7.838  0.00  0.00    +0.000 A 
ATOM     12  C   UNL     1      45.645   2.198   9.016  0.00  0.00    +0.000 A 
ATOM     13  C   UNL     1      45.517   3.564   9.329  0.00  0.00    +0.000 A 
ATOM     14  C   UNL     1      46.009   4.497   8.397  0.00  0.00    +0.000 A 
ATOM     15  C   UNL     1      46.632   4.082   7.217  0.00  0.00    +0.000 A 
BRANCH  10  17
ATOM     16  N   UNL     1      47.913   1.952   4.749  0.00  0.00    +0.000 NA
ATOM     17  C   UNL     1      47.396   2.287   5.733  0.00  0.00    +0.000 C 
ENDBRANCH  10  17
ENDBRANCH   4  13
ENDBRANCH   1   8
BRANCH   1  18
ATOM     18  N   UNL     1      46.196   4.656  15.023  0.00  0.00    +0.000 N 
ATOM     19  H   UNL     1      45.439   4.935  15.648  0.00  0.00    +0.000 HD
BRANCH  18  20
ATOM     20  C   UNL     1      47.373   4.373  15.743  0.00  0.00    +0.000 A 
ATOM     21  C   UNL     1      47.962   5.357  16.550  0.00  0.00    +0.000 A 
ATOM     22  C   UNL     1      49.089   5.055  17.322  0.00  0.00    +0.000 A 
ATOM     23  C   UNL     1      49.586   3.761  17.275  0.00  0.00    +0.000 A 
ATOM     24  N   UNL     1      49.031   2.766  16.536  0.00  0.00    +0.000 NA
ATOM     25  C   UNL     1      47.937   3.103  15.814  0.00  0.00    +0.000 A 
BRANCH  23  26
ATOM     26  C   UNL     1      50.797   3.379  18.065  0.00  0.00    +0.000 C 
ATOM     27  N   UNL     1      50.914   4.017  19.276  0.00  0.00    +0.000 N 
ATOM     28  O   UNL     1      51.627   2.576  17.673  0.00  0.00    +0.000 OA
ATOM     29  H   UNL     1      50.202   4.685  19.554  0.00  0.00    +0.000 HD
ATOM     30  H   UNL     1      51.696   3.816  19.880  0.00  0.00    +0.000 HD
ENDBRANCH  23  26
ENDBRANCH  18  20
ENDBRANCH   1  18
TORSDOF 6
ENDMDL
MODEL 8
REMARK VINA RESULT:    -6.067      2.530      3.139
REMARK INTER + INTRA:          -9.252
REMARK INTER:                  -8.438
REMARK INTRA:                  -0.814
REMARK UNBOUND:                -1.057
REMARK  Name = 
REMARK  6 active torsions:
REMARK  status: ('A' for Active; 'I' for Inactive)
REMARK    1  A    between atoms: C_2  and  C_3
REMARK    2  A    between atoms: C_6  and  C_7
REMARK    3  A    between atoms: C_11  and  C_12
REMARK    4  A    between atoms: C_12  and  N_13
REMARK    5  A    between atoms: N_13  and  C_14
REMARK    6  A    between atoms: C_17  and  C_18
REMARK                            x       y       z     vdW  Elec       q    Type
REMARK                         _______ _______ _______ _____ _____    ______ ____
ROOT
ATOM      1  C   UNL     1      43.840   5.399  11.915  0.00  0.00    +0.000 C 
ATOM      2  C   UNL     1      42.362   5.482  11.556  0.00  0.00    +0.000 C 
ATOM      3  C   UNL     1      42.747   5.146  12.954  0.00  0.00    +0.000 C 
ENDROOT
BRANCH   1   8
ATOM      4  C   UNL     1      46.372   7.931  12.946  0.00  0.00    +0.000 A 
ATOM      5  C   UNL     1      45.983   9.094  12.287  0.00  0.00    +0.000 A 
ATOM      6  C   UNL     1      44.886   9.054  11.440  0.00  0.00    +0.000 A 
ATOM      7  C   UNL     1      44.192   7.859  11.291  0.00  0.00    +0.000 A 
ATOM      8  C   UNL     1      44.610   6.723  11.990  0.00  0.00    +0.000 A 
ATOM      9  N   UNL     1      45.714   6.760  12.778  0.00  0.00    +0.000 NA
BRANCH   4  13
ATOM     10  C   UNL     1      49.644   7.816  15.731  0.00  0.00    +0.000 A 
ATOM     11  C   UNL     1      49.208   6.643  15.116  0.00  0.00    +0.000 A 
ATOM     12  C   UNL     1      48.147   6.683  14.211  0.00  0.00    +0.000 A 
ATOM     13  C   UNL     1      47.493   7.890  13.902  0.00  0.00    +0.000 A 
ATOM     14  C   UNL     1      47.963   9.065  14.519  0.00  0.00    +0.000 A 
ATOM     15  C   UNL     1      49.022   9.030  15.429  0.00  0.00    +0.000 A 
BRANCH  10  17
ATOM     16  N   UNL     1      51.612   7.755  17.413  0.00  0.00    +0.000 NA
ATOM     17  C   UNL     1      50.729   7.773  16.660  0.00  0.00    +0.000 C 
ENDBRANCH  10  17
ENDBRANCH   4  13
ENDBRANCH   1   8
BRANCH   1  18
ATOM     18  N   UNL     1      44.706   4.216  11.648  0.00  0.00    +0.000 N 
ATOM     19  H   UNL     1      45.419   4.087  12.368  0.00  0.00    +0.000 HD
BRANCH  18  20
ATOM     20  C   UNL     1      45.212   3.914  10.369  0.00  0.00    +0.000 A 
ATOM     21  C   UNL     1      45.161   2.602   9.879  0.00  0.00    +0.000 A 
ATOM     22  C   UNL     1      45.598   2.316   8.580  0.00  0.00    +0.000 A 
ATOM     23  C   UNL     1      46.060   3.366   7.800  0.00  0.00    +0.000 A 
ATOM     24  N   UNL     1      46.098   4.657   8.219  0.00  0.00    +0.000 NA
ATOM     25  C   UNL     1      45.656   4.886   9.477  0.00  0.00    +0.000 A 
BRANCH  23  26
ATOM     26  C   UNL     1      46.555   3.123   6.411  0.00  0.00    +0.000 C 
ATOM     27  N   UNL     1      46.941   1.828   6.160  0.00  0.00    +0.000 N 
ATOM     28  O   UNL     1      46.626   3.995   5.562  0.00  0.00    +0.000 OA
ATOM     29  H   UNL     1      46.873   1.139   6.901  0.00  0.00    +0.000 HD
ATOM     30  H   UNL     1      47.281   1.570   5.246  0.00  0.00    +0.000 HD
ENDBRANCH  23  26
ENDBRANCH  18  20
ENDBRANCH   1  18
TORSDOF 6
ENDMDL
MODEL 9
REMARK VINA RESULT:    -5.951      3.051      7.334
REMARK INTER + INTRA:          -9.095
REMARK INTER:                  -9.028
REMARK INTRA:                  -0.067
REMARK UNBOUND:                -1.057
REMARK  Name = 
REMARK  6 active torsions:
REMARK  status: ('A' for Active; 'I' for Inactive)
REMARK    1  A    between atoms: C_2  and  C_3
REMARK    2  A    between atoms: C_6  and  C_7
REMARK    3  A    between atoms: C_11  and  C_12
REMARK    4  A    between atoms: C_12  and  N_13
REMARK    5  A    between atoms: N_13  and  C_14
REMARK    6  A    between atoms: C_17  and  C_18
REMARK                            x       y       z     vdW  Elec       q    Type
REMARK                         _______ _______ _______ _____ _____    ______ ____
ROOT
ATOM      1  C   UNL     1      45.553   7.545  12.741  0.00  0.00    +0.000 C 
ATOM      2  C   UNL     1      44.862   8.898  12.849  0.00  0.00    +0.000 C 
ATOM      3  C   UNL     1      45.955   8.724  11.854  0.00  0.00    +0.000 C 
ENDROOT
BRANCH   1   8
ATOM      4  C   UNL     1      44.662   4.718  10.482  0.00  0.00    +0.000 A 
ATOM      5  C   UNL     1      43.341   4.424  10.804  0.00  0.00    +0.000 A 
ATOM      6  C   UNL     1      42.720   5.135  11.820  0.00  0.00    +0.000 A 
ATOM      7  C   UNL     1      43.430   6.136  12.473  0.00  0.00    +0.000 A 
ATOM      8  C   UNL     1      44.749   6.407  12.100  0.00  0.00    +0.000 A 
ATOM      9  N   UNL     1      45.363   5.672  11.138  0.00  0.00    +0.000 NA
BRANCH   4  13
ATOM     10  C   UNL     1      46.770   2.774   7.280  0.00  0.00    +0.000 A 
ATOM     11  C   UNL     1      46.094   2.015   8.233  0.00  0.00    +0.000 A 
ATOM     12  C   UNL     1      45.409   2.648   9.271  0.00  0.00    +0.000 A 
ATOM     13  C   UNL     1      45.386   4.050   9.385  0.00  0.00    +0.000 A 
ATOM     14  C   UNL     1      46.057   4.797   8.399  0.00  0.00    +0.000 A 
ATOM     15  C   UNL     1      46.749   4.168   7.360  0.00  0.00    +0.000 A 
BRANCH  10  17
ATOM     16  N   UNL     1      48.059   1.605   5.361  0.00  0.00    +0.000 NA
ATOM     17  C   UNL     1      47.474   2.124   6.219  0.00  0.00    +0.000 C 
ENDBRANCH  10  17
ENDBRANCH   4  13
ENDBRANCH   1   8
BRANCH   1  18
ATOM     18  N   UNL     1      46.635   7.077  13.651  0.00  0.00    +0.000 N 
ATOM     19  H   UNL     1      46.317   6.988  14.618  0.00  0.00    +0.000 HD
BRANCH  18  20
ATOM     20  C   UNL     1      47.951   7.576  13.592  0.00  0.00    +0.000 A 
ATOM     21  C   UNL     1      48.391   8.524  14.526  0.00  0.00    +0.000 A 
ATOM     22  C   UNL     1      49.719   8.965  14.511  0.00  0.00    +0.000 A 
ATOM     23  C   UNL     1      50.577   8.425  13.564  0.00  0.00    +0.000 A 
ATOM     24  N   UNL     1      50.206   7.482  12.661  0.00  0.00    +0.000 NA
ATOM     25  C   UNL     1      48.915   7.079  12.721  0.00  0.00    +0.000 A 
BRANCH  23  26
ATOM     26  C   UNL     1      52.003   8.868  13.487  0.00  0.00    +0.000 C 
ATOM     27  N   UNL     1      52.923   7.856  13.624  0.00  0.00    +0.000 N 
ATOM     28  O   UNL     1      52.337  10.029  13.325  0.00  0.00    +0.000 OA
ATOM     29  H   UNL     1      52.596   6.907  13.768  0.00  0.00    +0.000 HD
ATOM     30  H   UNL     1      53.910   8.060  13.578  0.00  0.00    +0.000 HD
ENDBRANCH  23  26
ENDBRANCH  18  20
ENDBRANCH   1  18
TORSDOF 6
ENDMDL
