MODEL 1
REMARK VINA RESULT:    -8.814      0.000      0.000
REMARK INTER + INTRA:         -11.257
REMARK INTER:                 -10.876
REMARK INTRA:                  -0.382
REMARK UNBOUND:                -0.382
REMARK  Name = 
REMARK  4 active torsions:
REMARK  status: ('A' for Active; 'I' for Inactive)
REMARK    1  A    between atoms: C_2  and  C_4
REMARK    2  A    between atoms: C_7  and  N_8
REMARK    3  A    between atoms: N_8  and  C_9
REMARK    4  A    between atoms: C_9  and  C_10
REMARK                            x       y       z     vdW  Elec       q    Type
REMARK                         _______ _______ _______ _____ _____    ______ ____
ROOT
ATOM      1  N   UNL     1      43.777   4.956   9.666  0.00  0.00    +0.000 N 
ATOM      2  H   UNL     1      42.857   4.862   9.249  0.00  0.00    +0.000 HD
ENDROOT
BRANCH   1   6
ATOM      3  C   UNL     1      46.299   2.185   7.933  0.00  0.00    +0.000 A 
ATOM      4  C   UNL     1      46.380   3.522   7.580  0.00  0.00    +0.000 A 
ATOM      5  N   UNL     1      45.583   4.475   8.139  0.00  0.00    +0.000 NA
ATOM      6  C   UNL     1      44.682   4.053   9.057  0.00  0.00    +0.000 A 
ATOM      7  C   UNL     1      44.594   2.686   9.364  0.00  0.00    +0.000 A 
ATOM      8  N   UNL     1      45.394   1.724   8.837  0.00  0.00    +0.000 NA
BRANCH   3  10
ATOM      9  N   UNL     1      47.131  -0.084   7.696  0.00  0.00    +0.000 NA
ATOM     10  C   UNL     1      47.211   1.160   7.343  0.00  0.00    +0.000 C 
ATOM     11  N   UNL     1      48.147   1.556   6.426  0.00  0.00    +0.000 N 
ATOM     12  H   UNL     1      47.812  -0.622   7.152  0.00  0.00    +0.000 HD
ATOM     13  H   UNL     1      49.015   1.044   6.409  0.00  0.00    +0.000 HD
ATOM     14  H   UNL     1      48.280   2.568   6.407  0.00  0.00    +0.000 HD
ENDBRANCH   3  10
ENDBRANCH   1   6
BRANCH   1  15
ATOM     15  C   UNL     1      43.749   5.058  11.148  0.00  0.00    +0.000 C 
ATOM     16  C   UNL     1      42.790   4.180  11.933  0.00  0.00    +0.000 C 
ATOM     17  C   UNL     1      42.490   5.635  11.782  0.00  0.00    +0.000 C 
BRANCH  15  18
ATOM     18  C   UNL     1      45.091   5.443  11.760  0.00  0.00    +0.000 A 
ATOM     19  C   UNL     1      45.879   6.467  11.207  0.00  0.00    +0.000 A 
ATOM     20  C   UNL     1      47.060   6.897  11.816  0.00  0.00    +0.000 A 
ATOM     21  C   UNL     1      47.487   6.304  13.003  0.00  0.00    +0.000 A 
ATOM     22 CL   UNL     1      48.926   6.918  13.736  0.00  0.00    +0.000 Cl
ATOM     23  C   UNL     1      46.742   5.263  13.562  0.00  0.00    +0.000 A 
ATOM     24 CL   UNL     1      47.208   4.476  15.028  0.00  0.00    +0.000 Cl
ATOM     25  C   UNL     1      45.559   4.839  12.941  0.00  0.00    +0.000 A 
ENDBRANCH  15  18
ENDBRANCH   1  15
TORSDOF 4
ENDMDL
MODEL 2
REMARK VINA RESULT:    -7.501      4.173      6.370
REMARK INTER + INTRA:          -9.637
REMARK INTER:                  -9.415
REMARK INTRA:                  -0.222
REMARK UNBOUND:                -0.382
REMARK  Name = 
REMARK  4 active torsions:
REMARK  status: ('A' for Active; 'I' for Inactive)
REMARK    1  A    between atoms: C_2  and  C_4
REMARK    2  A    between atoms: C_7  and  N_8
REMARK    3  A    between atoms: N_8  and  C_9
REMARK    4  A    between atoms: C_9  and  C_10
REMARK                            x       y       z     vdW  Elec       q    Type
REMARK                         _______ _______ _______ _____ _____    ______ ____
ROOT
ATOM      1  N   UNL     1      45.438   3.077  12.290  0.00  0.00    +0.000 N 
ATOM      2  H   UNL     1      45.044   2.513  13.035  0.00  0.00    +0.000 HD
ENDROOT
BRANCH   1   6
ATOM      3  C   UNL     1      47.765   6.037  13.980  0.00  0.00    +0.000 A 
ATOM      4  C   UNL     1      47.141   6.248  12.761  0.00  0.00    +0.000 A 
ATOM      5  N   UNL     1      46.349   5.309  12.175  0.00  0.00    +0.000 NA
ATOM      6  C   UNL     1      46.205   4.136  12.834  0.00  0.00    +0.000 A 
ATOM      7  C   UNL     1      46.883   3.934  14.046  0.00  0.00    +0.000 A 
ATOM      8  N   UNL     1      47.658   4.865  14.660  0.00  0.00    +0.000 NA
BRANCH   3  10
ATOM      9  N   UNL     1      49.888   7.011  14.644  0.00  0.00    +0.000 NA
ATOM     10  C   UNL     1      48.595   7.094  14.631  0.00  0.00    +0.000 C 
ATOM     11  N   UNL     1      47.968   8.155  15.228  0.00  0.00    +0.000 N 
ATOM     12  H   UNL     1      50.265   7.847  15.102  0.00  0.00    +0.000 HD
ATOM     13  H   UNL     1      48.421   8.559  16.034  0.00  0.00    +0.000 HD
ATOM     14  H   UNL     1      46.970   7.997  15.368  0.00  0.00    +0.000 HD
ENDBRANCH   3  10
ENDBRANCH   1   6
BRANCH   1  15
ATOM     15  C   UNL     1      44.476   3.372  11.197  0.00  0.00    +0.000 C 
ATOM     16  C   UNL     1      43.383   4.401  11.429  0.00  0.00    +0.000 C 
ATOM     17  C   UNL     1      43.028   2.951  11.411  0.00  0.00    +0.000 C 
BRANCH  15  18
ATOM     18  C   UNL     1      45.064   3.201   9.801  0.00  0.00    +0.000 A 
ATOM     19  C   UNL     1      45.247   4.302   8.946  0.00  0.00    +0.000 A 
ATOM     20  C   UNL     1      45.876   4.174   7.705  0.00  0.00    +0.000 A 
ATOM     21  C   UNL     1      46.339   2.929   7.285  0.00  0.00    +0.000 A 
ATOM     22 CL   UNL     1      47.159   2.846   5.767  0.00  0.00    +0.000 Cl
ATOM     23  C   UNL     1      46.146   1.810   8.099  0.00  0.00    +0.000 A 
ATOM     24 CL   UNL     1      46.687   0.233   7.646  0.00  0.00    +0.000 Cl
ATOM     25  C   UNL     1      45.512   1.950   9.341  0.00  0.00    +0.000 A 
ENDBRANCH  15  18
ENDBRANCH   1  15
TORSDOF 4
ENDMDL
MODEL 3
REMARK VINA RESULT:    -7.282      1.396      2.102
REMARK INTER + INTRA:          -9.367
REMARK INTER:                  -8.956
REMARK INTRA:                  -0.411
REMARK UNBOUND:                -0.382
REMARK  Name = 
REMARK  4 active torsions:
REMARK  status: ('A' for Active; 'I' for Inactive)
REMARK    1  A    between atoms: C_2  and  C_4
REMARK    2  A    between atoms: C_7  and  N_8
REMARK    3  A    between atoms: N_8  and  C_9
REMARK    4  A    between atoms: C_9  and  C_10
REMARK                            x       y       z     vdW  Elec       q    Type
REMARK                         _______ _______ _______ _____ _____    ______ ____
ROOT
ATOM      1  N   UNL     1      43.647   4.977  10.412  0.00  0.00    +0.000 N 
ATOM      2  H   UNL     1      42.683   4.666  10.360  0.00  0.00    +0.000 HD
ENDROOT
BRANCH   1   6
ATOM      3  C   UNL     1      46.144   2.780   7.968  0.00  0.00    +0.000 A 
ATOM      4  C   UNL     1      45.248   2.140   8.808  0.00  0.00    +0.000 A 
ATOM      5  N   UNL     1      44.391   2.823   9.617  0.00  0.00    +0.000 NA
ATOM      6  C   UNL     1      44.463   4.174   9.578  0.00  0.00    +0.000 A 
ATOM      7  C   UNL     1      45.411   4.794   8.748  0.00  0.00    +0.000 A 
ATOM      8  N   UNL     1      46.256   4.134   7.916  0.00  0.00    +0.000 NA
BRANCH   3  10
ATOM      9  N   UNL     1      47.728   2.621   6.133  0.00  0.00    +0.000 NA
ATOM     10  C   UNL     1      47.046   2.017   7.054  0.00  0.00    +0.000 C 
ATOM     11  N   UNL     1      47.135   0.658   7.195  0.00  0.00    +0.000 N 
ATOM     12  H   UNL     1      48.305   1.929   5.647  0.00  0.00    +0.000 HD
ATOM     13  H   UNL     1      47.305   0.121   6.358  0.00  0.00    +0.000 HD
ATOM     14  H   UNL     1      46.390   0.269   7.774  0.00  0.00    +0.000 HD
ENDBRANCH   3  10
ENDBRANCH   1   6
BRANCH   1  15
ATOM     15  C   UNL     1      44.101   5.275  11.794  0.00  0.00    +0.000 C 
ATOM     16  C   UNL     1      44.138   4.156  12.819  0.00  0.00    +0.000 C 
ATOM     17  C   UNL     1      43.061   5.187  12.903  0.00  0.00    +0.000 C 
BRANCH  15  18
ATOM     18  C   UNL     1      45.126   6.402  11.872  0.00  0.00    +0.000 A 
ATOM     19  C   UNL     1      44.744   7.747  11.732  0.00  0.00    +0.000 A 
ATOM     20  C   UNL     1      45.655   8.792  11.901  0.00  0.00    +0.000 A 
ATOM     21  C   UNL     1      46.984   8.514  12.214  0.00  0.00    +0.000 A 
ATOM     22 CL   UNL     1      48.048   9.851  12.466  0.00  0.00    +0.000 Cl
ATOM     23  C   UNL     1      47.401   7.186  12.331  0.00  0.00    +0.000 A 
ATOM     24 CL   UNL     1      49.032   6.760  12.712  0.00  0.00    +0.000 Cl
ATOM     25  C   UNL     1      46.479   6.145  12.157  0.00  0.00    +0.000 A 
ENDBRANCH  15  18
ENDBRANCH   1  15
TORSDOF 4
ENDMDL
MODEL 4
REMARK VINA RESULT:    -6.160      4.534      6.639
REMARK INTER + INTRA:          -7.982
REMARK INTER:                  -8.570
REMARK INTRA:                   0.588
REMARK UNBOUND:                -0.382
REMARK  Name = 
REMARK  4 active torsions:
REMARK  status: ('A' for Active; 'I' for Inactive)
REMARK    1  A    between atoms: C_2  and  C_4
REMARK    2  A    between atoms: C_7  and  N_8
REMARK    3  A    between atoms: N_8  and  C_9
REMARK    4  A    between atoms: C_9  and  C_10
REMARK                            x       y       z     vdW  Elec       q    Type
REMARK                         _______ _______ _______ _____ _____    ______ ____
ROOT
ATOM      1  N   UNL     1      47.570   6.524  12.611  0.00  0.00    +0.000 N 
ATOM      2  H   UNL     1      48.202   6.076  11.956  0.00  0.00    +0.000 HD
ENDROOT
BRANCH   1   6
ATOM      3  C   UNL     1      47.619   4.407  16.154  0.00  0.00    +0.000 A 
ATOM      4  C   UNL     1      48.316   5.599  16.041  0.00  0.00    +0.000 A 
ATOM      5  N   UNL     1      48.313   6.341  14.900  0.00  0.00    +0.000 NA
ATOM      6  C   UNL     1      47.603   5.852  13.857  0.00  0.00    +0.000 A 
ATOM      7  C   UNL     1      46.942   4.620  13.986  0.00  0.00    +0.000 A 
ATOM      8  N   UNL     1      46.912   3.876  15.120  0.00  0.00    +0.000 NA
BRANCH   3  10
ATOM      9  N   UNL     1      46.591   2.866  17.725  0.00  0.00    +0.000 NA
ATOM     10  C   UNL     1      47.597   3.627  17.427  0.00  0.00    +0.000 C 
ATOM     11  N   UNL     1      48.656   3.734  18.288  0.00  0.00    +0.000 N 
ATOM     12  H   UNL     1      46.788   2.396  18.613  0.00  0.00    +0.000 HD
ATOM     13  H   UNL     1      48.455   3.645  19.273  0.00  0.00    +0.000 HD
ATOM     14  H   UNL     1      49.262   4.527  18.074  0.00  0.00    +0.000 HD
ENDBRANCH   3  10
ENDBRANCH   1   6
BRANCH   1  15
ATOM     15  C   UNL     1      46.255   6.881  12.019  0.00  0.00    +0.000 C 
ATOM     16  C   UNL     1      45.952   8.336  11.709  0.00  0.00    +0.000 C 
ATOM     17  C   UNL     1      45.298   7.689  12.885  0.00  0.00    +0.000 C 
BRANCH  15  18
ATOM     18  C   UNL     1      45.662   5.785  11.141  0.00  0.00    +0.000 A 
ATOM     19  C   UNL     1      46.011   5.669   9.784  0.00  0.00    +0.000 A 
ATOM     20  C   UNL     1      45.553   4.611   8.994  0.00  0.00    +0.000 A 
ATOM     21  C   UNL     1      44.725   3.637   9.548  0.00  0.00    +0.000 A 
ATOM     22 CL   UNL     1      44.239   2.325   8.536  0.00  0.00    +0.000 Cl
ATOM     23  C   UNL     1      44.337   3.740  10.886  0.00  0.00    +0.000 A 
ATOM     24 CL   UNL     1      43.309   2.575  11.643  0.00  0.00    +0.000 Cl
ATOM     25  C   UNL     1      44.801   4.807  11.668  0.00  0.00    +0.000 A 
ENDBRANCH  15  18
ENDBRANCH   1  15
TORSDOF 4
ENDMDL
MODEL 5
REMARK VINA RESULT:    -5.887      5.305      7.157
REMARK INTER + INTRA:          -7.646
REMARK INTER:                  -7.712
REMARK INTRA:                   0.066
REMARK UNBOUND:                -0.382
REMARK  Name = 
REMARK  4 active torsions:
REMARK  status: ('A' for Active; 'I' for Inactive)
REMARK    1  A    between atoms: C_2  and  C_4
REMARK    2  A    between atoms: C_7  and  N_8
REMARK    3  A    between atoms: N_8  and  C_9
REMARK    4  A    between atoms: C_9  and  C_10
REMARK                            x       y       z     vdW  Elec       q    Type
REMARK                         _______ _______ _______ _____ _____    ______ ____
ROOT
ATOM      1  N   UNL     1      46.508   5.220  14.725  0.00  0.00    +0.000 N 
ATOM      2  H   UNL     1      45.957   5.775  15.371  0.00  0.00    +0.000 HD
ENDROOT
BRANCH   1   6
ATOM      3  C   UNL     1      49.432   3.279  16.897  0.00  0.00    +0.000 A 
ATOM      4  C   UNL     1      48.606   2.567  16.043  0.00  0.00    +0.000 A 
ATOM      5  N   UNL     1      47.641   3.166  15.292  0.00  0.00    +0.000 NA
ATOM      6  C   UNL     1      47.509   4.506  15.428  0.00  0.00    +0.000 A 
ATOM      7  C   UNL     1      48.331   5.195  16.334  0.00  0.00    +0.000 A 
ATOM      8  N   UNL     1      49.314   4.622  17.073  0.00  0.00    +0.000 NA
BRANCH   3  10
ATOM      9  N   UNL     1      50.782   1.355  17.511  0.00  0.00    +0.000 NA
ATOM     10  C   UNL     1      50.514   2.612  17.681  0.00  0.00    +0.000 C 
ATOM     11  N   UNL     1      51.218   3.348  18.596  0.00  0.00    +0.000 N 
ATOM     12  H   UNL     1      51.574   1.106  18.111  0.00  0.00    +0.000 HD
ATOM     13  H   UNL     1      51.553   2.861  19.414  0.00  0.00    +0.000 HD
ATOM     14  H   UNL     1      50.772   4.239  18.816  0.00  0.00    +0.000 HD
ENDBRANCH   3  10
ENDBRANCH   1   6
BRANCH   1  15
ATOM     15  C   UNL     1      46.878   5.947  13.484  0.00  0.00    +0.000 C 
ATOM     16  C   UNL     1      48.290   6.485  13.334  0.00  0.00    +0.000 C 
ATOM     17  C   UNL     1      47.173   7.436  13.610  0.00  0.00    +0.000 C 
BRANCH  15  18
ATOM     18  C   UNL     1      46.116   5.479  12.250  0.00  0.00    +0.000 A 
ATOM     19  C   UNL     1      46.374   6.026  10.981  0.00  0.00    +0.000 A 
ATOM     20  C   UNL     1      45.755   5.536   9.828  0.00  0.00    +0.000 A 
ATOM     21  C   UNL     1      44.853   4.479   9.918  0.00  0.00    +0.000 A 
ATOM     22 CL   UNL     1      44.164   3.881   8.451  0.00  0.00    +0.000 Cl
ATOM     23  C   UNL     1      44.553   3.932  11.169  0.00  0.00    +0.000 A 
ATOM     24 CL   UNL     1      43.441   2.624  11.363  0.00  0.00    +0.000 Cl
ATOM     25  C   UNL     1      45.178   4.433  12.319  0.00  0.00    +0.000 A 
ENDBRANCH  15  18
ENDBRANCH   1  15
TORSDOF 4
ENDMDL
