MODEL 1
REMARK VINA RESULT:    -7.538      0.000      0.000
REMARK INTER + INTRA:         -11.221
REMARK INTER:                 -10.183
REMARK INTRA:                  -1.038
REMARK UNBOUND:                -1.038
REMARK  Name = 
REMARK  6 active torsions:
REMARK  status: ('A' for Active; 'I' for Inactive)
REMARK    1  A    between atoms: C_2  and  C_20
REMARK    2  A    between atoms: N_3  and  C_4
REMARK    3  A    between atoms: C_4  and  C_5
REMARK    4  A    between atoms: C_8  and  C_9
REMARK    5  A    between atoms: C_9  and  N_10
REMARK    6  A    between atoms: C_11  and  C_13
REMARK                            x       y       z     vdW  Elec       q    Type
REMARK                         _______ _______ _______ _____ _____    ______ ____
ROOT
ATOM      1  C   UNL     1      46.839   4.373  15.814  0.00  0.00    +0.000 C 
ENDROOT
BRANCH   1   2
ATOM      2  C   UNL     1      46.598   4.774  14.380  0.00  0.00    +0.000 A 
ATOM      3  C   UNL     1      45.567   4.184  13.635  0.00  0.00    +0.000 A 
ATOM      4  C   UNL     1      45.292   4.609  12.328  0.00  0.00    +0.000 A 
ATOM      5  C   UNL     1      46.058   5.616  11.727  0.00  0.00    +0.000 A 
ATOM      6  C   UNL     1      47.106   6.186  12.462  0.00  0.00    +0.000 A 
ATOM      7  C   UNL     1      47.381   5.762  13.769  0.00  0.00    +0.000 A 
BRANCH   5   8
ATOM      8  C   UNL     1      45.780   6.060  10.311  0.00  0.00    +0.000 C 
BRANCH   8   9
ATOM      9  N   UNL     1      45.253   5.002   9.473  0.00  0.00    +0.000 N 
ATOM     10  C   UNL     1      45.972   4.588   8.374  0.00  0.00    +0.000 C 
ATOM     11  O   UNL     1      47.031   5.120   8.047  0.00  0.00    +0.000 OA
ATOM     12  H   UNL     1      44.531   4.399   9.852  0.00  0.00    +0.000 HD
BRANCH  10  13
ATOM     13  C   UNL     1      45.385   3.461   7.531  0.00  0.00    +0.000 C 
ATOM     14  C   UNL     1      45.180   2.180   8.303  0.00  0.00    +0.000 C 
ATOM     15  C   UNL     1      46.442   1.384   8.038  0.00  0.00    +0.000 C 
ATOM     16  O   UNL     1      47.082   1.947   6.885  0.00  0.00    +0.000 OA
ATOM     17  C   UNL     1      46.286   3.035   6.396  0.00  0.00    +0.000 C 
ENDBRANCH  10  13
ENDBRANCH   8   9
ENDBRANCH   5   8
ENDBRANCH   1   2
BRANCH   1  20
ATOM     18  O   UNL     1      47.860   4.914  18.322  0.00  0.00    +0.000 OA
ATOM     19  C   UNL     1      48.637   4.526  17.456  0.00  0.00    +0.000 C 
ATOM     20  N   UNL     1      48.239   4.313  16.158  0.00  0.00    +0.000 N 
ATOM     21  H   UNL     1      48.844   3.794  15.530  0.00  0.00    +0.000 HD
BRANCH  19  22
ATOM     22  C   UNL     1      50.055   4.294  17.760  0.00  0.00    +0.000 A 
ATOM     23  C   UNL     1      50.799   5.273  18.403  0.00  0.00    +0.000 A 
ATOM     24  S   UNL     1      52.419   4.814  18.703  0.00  0.00    +0.000 S 
ATOM     25  C   UNL     1      52.161   3.281  18.016  0.00  0.00    +0.000 A 
ATOM     26  N   UNL     1      53.156   2.347  17.991  0.00  0.00    +0.000 NA
ATOM     27  C   UNL     1      52.810   1.215  17.477  0.00  0.00    +0.000 A 
ATOM     28  N   UNL     1      51.568   0.933  16.968  0.00  0.00    +0.000 N 
ATOM     29  C   UNL     1      50.552   1.855  16.931  0.00  0.00    +0.000 A 
ATOM     30  O   UNL     1      49.479   1.595  16.399  0.00  0.00    +0.000 OA
ATOM     31  C   UNL     1      50.875   3.132  17.530  0.00  0.00    +0.000 A 
ATOM     32  H   UNL     1      51.369   0.033  16.556  0.00  0.00    +0.000 HD
ENDBRANCH  19  22
ENDBRANCH   1  20
TORSDOF 6
ENDMDL
MODEL 2
REMARK VINA RESULT:    -7.393      2.403      3.157
REMARK INTER + INTRA:         -11.024
REMARK INTER:                  -9.903
REMARK INTRA:                  -1.121
REMARK UNBOUND:                -1.038
REMARK  Name = 
REMARK  6 active torsions:
REMARK  status: ('A' for Active; 'I' for Inactive)
REMARK    1  A    between atoms: C_2  and  C_20
REMARK    2  A    between atoms: N_3  and  C_4
REMARK    3  A    between atoms: C_4  and  C_5
REMARK    4  A    between atoms: C_8  and  C_9
REMARK    5  A    between atoms: C_9  and  N_10
REMARK    6  A    between atoms: C_11  and  C_13
REMARK                            x       y       z     vdW  Elec       q    Type
REMARK                         _______ _______ _______ _____ _____    ______ ____
ROOT
ATOM      1  C   UNL     1      46.942   7.570  13.274  0.00  0.00    +0.000 C 
ENDROOT
BRANCH   1   2
ATOM      2  C   UNL     1      46.132   6.626  12.420  0.00  0.00    +0.000 A 
ATOM      3  C   UNL     1      46.318   6.579  11.031  0.00  0.00    +0.000 A 
ATOM      4  C   UNL     1      45.623   5.650  10.245  0.00  0.00    +0.000 A 
ATOM      5  C   UNL     1      44.706   4.764  10.827  0.00  0.00    +0.000 A 
ATOM      6  C   UNL     1      44.500   4.831  12.211  0.00  0.00    +0.000 A 
ATOM      7  C   UNL     1      45.195   5.759  12.997  0.00  0.00    +0.000 A 
BRANCH   5   8
ATOM      8  C   UNL     1      43.938   3.779   9.980  0.00  0.00    +0.000 C 
BRANCH   8   9
ATOM      9  N   UNL     1      44.472   3.637   8.641  0.00  0.00    +0.000 N 
ATOM     10  C   UNL     1      45.300   2.576   8.351  0.00  0.00    +0.000 C 
ATOM     11  O   UNL     1      45.646   1.763   9.207  0.00  0.00    +0.000 OA
ATOM     12  H   UNL     1      44.017   4.134   7.883  0.00  0.00    +0.000 HD
BRANCH  10  13
ATOM     13  C   UNL     1      45.826   2.460   6.924  0.00  0.00    +0.000 C 
ATOM     14  C   UNL     1      46.756   1.288   6.722  0.00  0.00    +0.000 C 
ATOM     15  C   UNL     1      48.139   1.876   6.919  0.00  0.00    +0.000 C 
ATOM     16  O   UNL     1      48.032   3.300   6.791  0.00  0.00    +0.000 OA
ATOM     17  C   UNL     1      46.669   3.640   6.503  0.00  0.00    +0.000 C 
ENDBRANCH  10  13
ENDBRANCH   8   9
ENDBRANCH   5   8
ENDBRANCH   1   2
BRANCH   1  20
ATOM     18  O   UNL     1      49.575   6.938  13.813  0.00  0.00    +0.000 OA
ATOM     19  C   UNL     1      48.748   6.762  14.702  0.00  0.00    +0.000 C 
ATOM     20  N   UNL     1      47.404   6.967  14.501  0.00  0.00    +0.000 N 
ATOM     21  H   UNL     1      46.784   7.023  15.303  0.00  0.00    +0.000 HD
BRANCH  19  22
ATOM     22  C   UNL     1      49.155   6.293  16.032  0.00  0.00    +0.000 A 
ATOM     23  C   UNL     1      50.036   7.044  16.797  0.00  0.00    +0.000 A 
ATOM     24  S   UNL     1      50.370   6.359  18.328  0.00  0.00    +0.000 S 
ATOM     25  C   UNL     1      49.317   5.059  18.027  0.00  0.00    +0.000 A 
ATOM     26  N   UNL     1      49.097   4.101  18.974  0.00  0.00    +0.000 NA
ATOM     27  C   UNL     1      48.244   3.196  18.626  0.00  0.00    +0.000 A 
ATOM     28  N   UNL     1      47.605   3.147  17.415  0.00  0.00    +0.000 N 
ATOM     29  C   UNL     1      47.830   4.061  16.416  0.00  0.00    +0.000 A 
ATOM     30  O   UNL     1      47.300   3.944  15.318  0.00  0.00    +0.000 OA
ATOM     31  C   UNL     1      48.750   5.122  16.768  0.00  0.00    +0.000 A 
ATOM     32  H   UNL     1      46.967   2.396  17.195  0.00  0.00    +0.000 HD
ENDBRANCH  19  22
ENDBRANCH   1  20
TORSDOF 6
ENDMDL
MODEL 3
REMARK VINA RESULT:    -7.258      3.787     10.019
REMARK INTER + INTRA:         -10.843
REMARK INTER:                  -9.892
REMARK INTRA:                  -0.951
REMARK UNBOUND:                -1.038
REMARK  Name = 
REMARK  6 active torsions:
REMARK  status: ('A' for Active; 'I' for Inactive)
REMARK    1  A    between atoms: C_2  and  C_20
REMARK    2  A    between atoms: N_3  and  C_4
REMARK    3  A    between atoms: C_4  and  C_5
REMARK    4  A    between atoms: C_8  and  C_9
REMARK    5  A    between atoms: C_9  and  N_10
REMARK    6  A    between atoms: C_11  and  C_13
REMARK                            x       y       z     vdW  Elec       q    Type
REMARK                         _______ _______ _______ _____ _____    ______ ____
ROOT
ATOM      1  C   UNL     1      47.283   3.400  16.615  0.00  0.00    +0.000 C 
ENDROOT
BRANCH   1   2
ATOM      2  C   UNL     1      48.742   3.502  16.987  0.00  0.00    +0.000 A 
ATOM      3  C   UNL     1      49.299   4.730  17.368  0.00  0.00    +0.000 A 
ATOM      4  C   UNL     1      50.633   4.814  17.788  0.00  0.00    +0.000 A 
ATOM      5  C   UNL     1      51.449   3.674  17.813  0.00  0.00    +0.000 A 
ATOM      6  C   UNL     1      50.898   2.451  17.406  0.00  0.00    +0.000 A 
ATOM      7  C   UNL     1      49.564   2.368  16.986  0.00  0.00    +0.000 A 
BRANCH   5   8
ATOM      8  C   UNL     1      52.892   3.764  18.243  0.00  0.00    +0.000 C 
BRANCH   8   9
ATOM      9  N   UNL     1      53.662   2.582  17.915  0.00  0.00    +0.000 N 
ATOM     10  C   UNL     1      54.272   1.870  18.924  0.00  0.00    +0.000 C 
ATOM     11  O   UNL     1      54.229   2.232  20.098  0.00  0.00    +0.000 OA
ATOM     12  H   UNL     1      53.509   2.138  17.016  0.00  0.00    +0.000 HD
BRANCH  10  13
ATOM     13  C   UNL     1      55.059   0.624  18.532  0.00  0.00    +0.000 C 
ATOM     14  C   UNL     1      54.232  -0.395  17.785  0.00  0.00    +0.000 C 
ATOM     15  C   UNL     1      53.751  -1.342  18.865  0.00  0.00    +0.000 C 
ATOM     16  O   UNL     1      54.581  -1.151  20.018  0.00  0.00    +0.000 OA
ATOM     17  C   UNL     1      55.570  -0.156  19.720  0.00  0.00    +0.000 C 
ENDBRANCH  10  13
ENDBRANCH   8   9
ENDBRANCH   5   8
ENDBRANCH   1   2
BRANCH   1  20
ATOM     18  O   UNL     1      47.212   3.175  13.863  0.00  0.00    +0.000 OA
ATOM     19  C   UNL     1      46.782   4.208  14.368  0.00  0.00    +0.000 C 
ATOM     20  N   UNL     1      46.853   4.446  15.719  0.00  0.00    +0.000 N 
ATOM     21  H   UNL     1      46.302   5.198  16.122  0.00  0.00    +0.000 HD
BRANCH  19  22
ATOM     22  C   UNL     1      46.187   5.264  13.539  0.00  0.00    +0.000 A 
ATOM     23  C   UNL     1      46.913   6.408  13.243  0.00  0.00    +0.000 A 
ATOM     24  S   UNL     1      46.074   7.512  12.241  0.00  0.00    +0.000 S 
ATOM     25  C   UNL     1      44.731   6.473  12.145  0.00  0.00    +0.000 A 
ATOM     26  N   UNL     1      43.645   6.800  11.385  0.00  0.00    +0.000 NA
ATOM     27  C   UNL     1      42.717   5.902  11.371  0.00  0.00    +0.000 A 
ATOM     28  N   UNL     1      42.763   4.717  12.059  0.00  0.00    +0.000 N 
ATOM     29  C   UNL     1      43.814   4.368  12.871  0.00  0.00    +0.000 A 
ATOM     30  O   UNL     1      43.788   3.337  13.532  0.00  0.00    +0.000 OA
ATOM     31  C   UNL     1      44.901   5.323  12.893  0.00  0.00    +0.000 A 
ATOM     32  H   UNL     1      41.991   4.068  12.026  0.00  0.00    +0.000 HD
ENDBRANCH  19  22
ENDBRANCH   1  20
TORSDOF 6
ENDMDL
MODEL 4
REMARK VINA RESULT:    -7.235      3.094      4.538
REMARK INTER + INTRA:         -10.811
REMARK INTER:                  -9.713
REMARK INTRA:                  -1.099
REMARK UNBOUND:                -1.038
REMARK  Name = 
REMARK  6 active torsions:
REMARK  status: ('A' for Active; 'I' for Inactive)
REMARK    1  A    between atoms: C_2  and  C_20
REMARK    2  A    between atoms: N_3  and  C_4
REMARK    3  A    between atoms: C_4  and  C_5
REMARK    4  A    between atoms: C_8  and  C_9
REMARK    5  A    between atoms: C_9  and  N_10
REMARK    6  A    between atoms: C_11  and  C_13
REMARK                            x       y       z     vdW  Elec       q    Type
REMARK                         _______ _______ _______ _____ _____    ______ ____
ROOT
ATOM      1  C   UNL     1      47.673   4.243  15.647  0.00  0.00    +0.000 C 
ENDROOT
BRANCH   1   2
ATOM      2  C   UNL     1      47.070   4.713  14.347  0.00  0.00    +0.000 A 
ATOM      3  C   UNL     1      46.066   3.969  13.713  0.00  0.00    +0.000 A 
ATOM      4  C   UNL     1      45.450   4.441  12.546  0.00  0.00    +0.000 A 
ATOM      5  C   UNL     1      45.842   5.658  11.972  0.00  0.00    +0.000 A 
ATOM      6  C   UNL     1      46.865   6.388  12.592  0.00  0.00    +0.000 A 
ATOM      7  C   UNL     1      47.481   5.916  13.758  0.00  0.00    +0.000 A 
BRANCH   5   8
ATOM      8  C   UNL     1      45.198   6.159  10.703  0.00  0.00    +0.000 C 
BRANCH   8   9
ATOM      9  N   UNL     1      44.732   5.093   9.839  0.00  0.00    +0.000 N 
ATOM     10  C   UNL     1      45.499   4.712   8.761  0.00  0.00    +0.000 C 
ATOM     11  O   UNL     1      46.550   5.280   8.472  0.00  0.00    +0.000 OA
ATOM     12  H   UNL     1      44.017   4.464  10.189  0.00  0.00    +0.000 HD
BRANCH  10  13
ATOM     13  C   UNL     1      44.974   3.576   7.889  0.00  0.00    +0.000 C 
ATOM     14  C   UNL     1      44.692   2.310   8.662  0.00  0.00    +0.000 C 
ATOM     15  C   UNL     1      45.965   1.500   8.519  0.00  0.00    +0.000 C 
ATOM     16  O   UNL     1      46.705   2.037   7.415  0.00  0.00    +0.000 OA
ATOM     17  C   UNL     1      45.964   3.124   6.842  0.00  0.00    +0.000 C 
ENDBRANCH  10  13
ENDBRANCH   8   9
ENDBRANCH   5   8
ENDBRANCH   1   2
BRANCH   1  20
ATOM     18  O   UNL     1      49.713   5.729  16.770  0.00  0.00    +0.000 OA
ATOM     19  C   UNL     1      48.569   5.934  17.162  0.00  0.00    +0.000 C 
ATOM     20  N   UNL     1      47.501   5.187  16.726  0.00  0.00    +0.000 N 
ATOM     21  H   UNL     1      46.557   5.518  16.899  0.00  0.00    +0.000 HD
BRANCH  19  22
ATOM     22  C   UNL     1      48.284   6.982  18.150  0.00  0.00    +0.000 A 
ATOM     23  C   UNL     1      48.214   6.667  19.500  0.00  0.00    +0.000 A 
ATOM     24  S   UNL     1      47.906   8.017  20.503  0.00  0.00    +0.000 S 
ATOM     25  C   UNL     1      47.895   9.066  19.165  0.00  0.00    +0.000 A 
ATOM     26  N   UNL     1      47.724  10.411  19.330  0.00  0.00    +0.000 NA
ATOM     27  C   UNL     1      47.778  11.091  18.234  0.00  0.00    +0.000 A 
ATOM     28  N   UNL     1      47.968  10.554  16.987  0.00  0.00    +0.000 N 
ATOM     29  C   UNL     1      48.098   9.205  16.770  0.00  0.00    +0.000 A 
ATOM     30  O   UNL     1      48.189   8.752  15.635  0.00  0.00    +0.000 OA
ATOM     31  C   UNL     1      48.083   8.397  17.971  0.00  0.00    +0.000 A 
ATOM     32  H   UNL     1      47.975  11.141  16.166  0.00  0.00    +0.000 HD
ENDBRANCH  19  22
ENDBRANCH   1  20
TORSDOF 6
ENDMDL
MODEL 5
REMARK VINA RESULT:    -7.202      2.853      3.831
REMARK INTER + INTRA:         -10.766
REMARK INTER:                  -9.644
REMARK INTRA:                  -1.122
REMARK UNBOUND:                -1.038
REMARK  Name = 
REMARK  6 active torsions:
REMARK  status: ('A' for Active; 'I' for Inactive)
REMARK    1  A    between atoms: C_2  and  C_20
REMARK    2  A    between atoms: N_3  and  C_4
REMARK    3  A    between atoms: C_4  and  C_5
REMARK    4  A    between atoms: C_8  and  C_9
REMARK    5  A    between atoms: C_9  and  N_10
REMARK    6  A    between atoms: C_11  and  C_13
REMARK                            x       y       z     vdW  Elec       q    Type
REMARK                         _______ _______ _______ _____ _____    ______ ____
ROOT
ATOM      1  C   UNL     1      47.110   3.945  14.816  0.00  0.00    +0.000 C 
ENDROOT
BRANCH   1   2
ATOM      2  C   UNL     1      46.425   4.177  13.492  0.00  0.00    +0.000 A 
ATOM      3  C   UNL     1      45.677   3.158  12.885  0.00  0.00    +0.000 A 
ATOM      4  C   UNL     1      44.977   3.394  11.694  0.00  0.00    +0.000 A 
ATOM      5  C   UNL     1      45.029   4.648  11.070  0.00  0.00    +0.000 A 
ATOM      6  C   UNL     1      45.798   5.657  11.663  0.00  0.00    +0.000 A 
ATOM      7  C   UNL     1      46.499   5.422  12.854  0.00  0.00    +0.000 A 
BRANCH   5   8
ATOM      8  C   UNL     1      44.294   4.899   9.776  0.00  0.00    +0.000 C 
BRANCH   8   9
ATOM      9  N   UNL     1      44.474   3.842   8.802  0.00  0.00    +0.000 N 
ATOM     10  C   UNL     1      45.573   3.865   7.972  0.00  0.00    +0.000 C 
ATOM     11  O   UNL     1      46.389   4.784   7.994  0.00  0.00    +0.000 OA
ATOM     12  H   UNL     1      43.966   2.973   8.931  0.00  0.00    +0.000 HD
BRANCH  10  13
ATOM     13  C   UNL     1      45.727   2.723   6.973  0.00  0.00    +0.000 C 
ATOM     14  C   UNL     1      46.322   1.474   7.580  0.00  0.00    +0.000 C 
ATOM     15  C   UNL     1      47.804   1.595   7.292  0.00  0.00    +0.000 C 
ATOM     16  O   UNL     1      47.971   2.563   6.247  0.00  0.00    +0.000 OA
ATOM     17  C   UNL     1      46.680   3.042   5.847  0.00  0.00    +0.000 C 
ENDBRANCH  10  13
ENDBRANCH   8   9
ENDBRANCH   5   8
ENDBRANCH   1   2
BRANCH   1  20
ATOM     18  O   UNL     1      48.959   4.154  16.857  0.00  0.00    +0.000 OA
ATOM     19  C   UNL     1      48.417   5.183  16.463  0.00  0.00    +0.000 C 
ATOM     20  N   UNL     1      47.425   5.169  15.513  0.00  0.00    +0.000 N 
ATOM     21  H   UNL     1      47.157   6.037  15.060  0.00  0.00    +0.000 HD
BRANCH  19  22
ATOM     22  C   UNL     1      48.788   6.492  17.015  0.00  0.00    +0.000 A 
ATOM     23  C   UNL     1      48.564   6.773  18.355  0.00  0.00    +0.000 A 
ATOM     24  S   UNL     1      49.088   8.331  18.825  0.00  0.00    +0.000 S 
ATOM     25  C   UNL     1      49.664   8.660  17.260  0.00  0.00    +0.000 A 
ATOM     26  N   UNL     1      50.290   9.840  16.976  0.00  0.00    +0.000 NA
ATOM     27  C   UNL     1      50.711   9.938  15.760  0.00  0.00    +0.000 A 
ATOM     28  N   UNL     1      50.551   8.978  14.795  0.00  0.00    +0.000 N 
ATOM     29  C   UNL     1      49.888   7.798  15.023  0.00  0.00    +0.000 A 
ATOM     30  O   UNL     1      49.695   6.995  14.117  0.00  0.00    +0.000 OA
ATOM     31  C   UNL     1      49.427   7.618  16.383  0.00  0.00    +0.000 A 
ATOM     32  H   UNL     1      50.883   9.128  13.854  0.00  0.00    +0.000 HD
ENDBRANCH  19  22
ENDBRANCH   1  20
TORSDOF 6
ENDMDL
MODEL 6
REMARK VINA RESULT:    -7.026      2.872      4.057
REMARK INTER + INTRA:         -10.529
REMARK INTER:                  -9.716
REMARK INTRA:                  -0.813
REMARK UNBOUND:                -1.038
REMARK  Name = 
REMARK  6 active torsions:
REMARK  status: ('A' for Active; 'I' for Inactive)
REMARK    1  A    between atoms: C_2  and  C_20
REMARK    2  A    between atoms: N_3  and  C_4
REMARK    3  A    between atoms: C_4  and  C_5
REMARK    4  A    between atoms: C_8  and  C_9
REMARK    5  A    between atoms: C_9  and  N_10
REMARK    6  A    between atoms: C_11  and  C_13
REMARK                            x       y       z     vdW  Elec       q    Type
REMARK                         _______ _______ _______ _____ _____    ______ ____
ROOT
ATOM      1  C   UNL     1      48.130   6.638  13.936  0.00  0.00    +0.000 C 
ENDROOT
BRANCH   1   2
ATOM      2  C   UNL     1      47.122   6.057  12.976  0.00  0.00    +0.000 A 
ATOM      3  C   UNL     1      46.437   4.874  13.285  0.00  0.00    +0.000 A 
ATOM      4  C   UNL     1      45.445   4.373  12.431  0.00  0.00    +0.000 A 
ATOM      5  C   UNL     1      45.133   5.032  11.234  0.00  0.00    +0.000 A 
ATOM      6  C   UNL     1      45.837   6.200  10.912  0.00  0.00    +0.000 A 
ATOM      7  C   UNL     1      46.829   6.700  11.766  0.00  0.00    +0.000 A 
BRANCH   5   8
ATOM      8  C   UNL     1      44.082   4.483  10.301  0.00  0.00    +0.000 C 
BRANCH   8   9
ATOM      9  N   UNL     1      44.563   4.287   8.948  0.00  0.00    +0.000 N 
ATOM     10  C   UNL     1      45.168   3.096   8.612  0.00  0.00    +0.000 C 
ATOM     11  O   UNL     1      45.361   2.205   9.436  0.00  0.00    +0.000 OA
ATOM     12  H   UNL     1      44.204   4.887   8.215  0.00  0.00    +0.000 HD
BRANCH  10  13
ATOM     13  C   UNL     1      45.646   2.930   7.173  0.00  0.00    +0.000 C 
ATOM     14  C   UNL     1      46.244   1.572   6.895  0.00  0.00    +0.000 C 
ATOM     15  C   UNL     1      47.732   1.775   7.102  0.00  0.00    +0.000 C 
ATOM     16  O   UNL     1      47.994   3.183   7.052  0.00  0.00    +0.000 OA
ATOM     17  C   UNL     1      46.763   3.877   6.804  0.00  0.00    +0.000 C 
ENDBRANCH  10  13
ENDBRANCH   8   9
ENDBRANCH   5   8
ENDBRANCH   1   2
BRANCH   1  20
ATOM     18  O   UNL     1      50.164   6.451  15.794  0.00  0.00    +0.000 OA
ATOM     19  C   UNL     1      49.025   6.182  16.160  0.00  0.00    +0.000 C 
ATOM     20  N   UNL     1      47.962   6.164  15.289  0.00  0.00    +0.000 N 
ATOM     21  H   UNL     1      47.016   6.152  15.657  0.00  0.00    +0.000 HD
BRANCH  19  22
ATOM     22  C   UNL     1      48.741   5.835  17.558  0.00  0.00    +0.000 A 
ATOM     23  C   UNL     1      48.958   4.542  18.013  0.00  0.00    +0.000 A 
ATOM     24  S   UNL     1      48.603   4.332  19.673  0.00  0.00    +0.000 S 
ATOM     25  C   UNL     1      48.186   5.972  19.838  0.00  0.00    +0.000 A 
ATOM     26  N   UNL     1      47.821   6.484  21.050  0.00  0.00    +0.000 NA
ATOM     27  C   UNL     1      47.570   7.750  21.038  0.00  0.00    +0.000 A 
ATOM     28  N   UNL     1      47.632   8.550  19.926  0.00  0.00    +0.000 N 
ATOM     29  C   UNL     1      47.948   8.070  18.680  0.00  0.00    +0.000 A 
ATOM     30  O   UNL     1      47.918   8.797  17.694  0.00  0.00    +0.000 OA
ATOM     31  C   UNL     1      48.276   6.661  18.643  0.00  0.00    +0.000 A 
ATOM     32  H   UNL     1      47.398   9.531  19.980  0.00  0.00    +0.000 HD
ENDBRANCH  19  22
ENDBRANCH   1  20
TORSDOF 6
ENDMDL
MODEL 7
REMARK VINA RESULT:    -7.021      2.606      3.776
REMARK INTER + INTRA:         -10.522
REMARK INTER:                  -9.469
REMARK INTRA:                  -1.053
REMARK UNBOUND:                -1.038
REMARK  Name = 
REMARK  6 active torsions:
REMARK  status: ('A' for Active; 'I' for Inactive)
REMARK    1  A    between atoms: C_2  and  C_20
REMARK    2  A    between atoms: N_3  and  C_4
REMARK    3  A    between atoms: C_4  and  C_5
REMARK    4  A    between atoms: C_8  and  C_9
REMARK    5  A    between atoms: C_9  and  N_10
REMARK    6  A    between atoms: C_11  and  C_13
REMARK                            x       y       z     vdW  Elec       q    Type
REMARK                         _______ _______ _______ _____ _____    ______ ____
ROOT
ATOM      1  C   UNL     1      47.201   4.027  15.257  0.00  0.00    +0.000 C 
ENDROOT
BRANCH   1   2
ATOM      2  C   UNL     1      46.676   4.379  13.888  0.00  0.00    +0.000 A 
ATOM      3  C   UNL     1      45.916   3.458  13.153  0.00  0.00    +0.000 A 
ATOM      4  C   UNL     1      45.363   3.810  11.915  0.00  0.00    +0.000 A 
ATOM      5  C   UNL     1      45.577   5.084  11.371  0.00  0.00    +0.000 A 
ATOM      6  C   UNL     1      46.359   5.994  12.093  0.00  0.00    +0.000 A 
ATOM      7  C   UNL     1      46.912   5.643  13.332  0.00  0.00    +0.000 A 
BRANCH   5   8
ATOM      8  C   UNL     1      45.001   5.458  10.027  0.00  0.00    +0.000 C 
BRANCH   8   9
ATOM      9  N   UNL     1      44.910   4.339   9.112  0.00  0.00    +0.000 N 
ATOM     10  C   UNL     1      45.869   4.183   8.136  0.00  0.00    +0.000 C 
ATOM     11  O   UNL     1      46.782   4.992   7.980  0.00  0.00    +0.000 OA
ATOM     12  H   UNL     1      44.330   3.548   9.370  0.00  0.00    +0.000 HD
BRANCH  10  13
ATOM     13  C   UNL     1      45.740   2.981   7.205  0.00  0.00    +0.000 C 
ATOM     14  C   UNL     1      46.302   1.708   7.791  0.00  0.00    +0.000 C 
ATOM     15  C   UNL     1      47.720   1.653   7.258  0.00  0.00    +0.000 C 
ATOM     16  O   UNL     1      47.803   2.543   6.137  0.00  0.00    +0.000 OA
ATOM     17  C   UNL     1      46.516   3.138   5.920  0.00  0.00    +0.000 C 
ENDBRANCH  10  13
ENDBRANCH   8   9
ENDBRANCH   5   8
ENDBRANCH   1   2
BRANCH   1  20
ATOM     18  O   UNL     1      49.551   4.166  16.701  0.00  0.00    +0.000 OA
ATOM     19  C   UNL     1      48.855   5.175  16.636  0.00  0.00    +0.000 C 
ATOM     20  N   UNL     1      47.630   5.179  16.013  0.00  0.00    +0.000 N 
ATOM     21  H   UNL     1      47.188   6.065  15.791  0.00  0.00    +0.000 HD
BRANCH  19  22
ATOM     22  C   UNL     1      49.290   6.435  17.251  0.00  0.00    +0.000 A 
ATOM     23  C   UNL     1      50.384   7.118  16.740  0.00  0.00    +0.000 A 
ATOM     24  S   UNL     1      50.723   8.579  17.562  0.00  0.00    +0.000 S 
ATOM     25  C   UNL     1      49.394   8.358  18.599  0.00  0.00    +0.000 A 
ATOM     26  N   UNL     1      49.076   9.294  19.540  0.00  0.00    +0.000 NA
ATOM     27  C   UNL     1      48.020   9.016  20.229  0.00  0.00    +0.000 A 
ATOM     28  N   UNL     1      47.262   7.884  20.079  0.00  0.00    +0.000 N 
ATOM     29  C   UNL     1      47.571   6.896  19.178  0.00  0.00    +0.000 A 
ATOM     30  O   UNL     1      46.916   5.861  19.123  0.00  0.00    +0.000 OA
ATOM     31  C   UNL     1      48.725   7.174  18.351  0.00  0.00    +0.000 A 
ATOM     32  H   UNL     1      46.460   7.715  20.669  0.00  0.00    +0.000 HD
ENDBRANCH  19  22
ENDBRANCH   1  20
TORSDOF 6
ENDMDL
MODEL 8
REMARK VINA RESULT:    -6.938      2.271      2.948
REMARK INTER + INTRA:         -10.410
REMARK INTER:                  -9.299
REMARK INTRA:                  -1.111
REMARK UNBOUND:                -1.038
REMARK  Name = 
REMARK  6 active torsions:
REMARK  status: ('A' for Active; 'I' for Inactive)
REMARK    1  A    between atoms: C_2  and  C_20
REMARK    2  A    between atoms: N_3  and  C_4
REMARK    3  A    between atoms: C_4  and  C_5
REMARK    4  A    between atoms: C_8  and  C_9
REMARK    5  A    between atoms: C_9  and  N_10
REMARK    6  A    between atoms: C_11  and  C_13
REMARK                            x       y       z     vdW  Elec       q    Type
REMARK                         _______ _______ _______ _____ _____    ______ ____
ROOT
ATOM      1  C   UNL     1      47.682   3.567  15.238  0.00  0.00    +0.000 C 
ENDROOT
BRANCH   1   2
ATOM      2  C   UNL     1      46.834   4.095  14.107  0.00  0.00    +0.000 A 
ATOM      3  C   UNL     1      46.723   5.474  13.879  0.00  0.00    +0.000 A 
ATOM      4  C   UNL     1      45.999   5.964  12.784  0.00  0.00    +0.000 A 
ATOM      5  C   UNL     1      45.348   5.087  11.906  0.00  0.00    +0.000 A 
ATOM      6  C   UNL     1      45.437   3.710  12.151  0.00  0.00    +0.000 A 
ATOM      7  C   UNL     1      46.161   3.220  13.246  0.00  0.00    +0.000 A 
BRANCH   5   8
ATOM      8  C   UNL     1      44.549   5.612  10.739  0.00  0.00    +0.000 C 
BRANCH   8   9
ATOM      9  N   UNL     1      44.383   4.642   9.676  0.00  0.00    +0.000 N 
ATOM     10  C   UNL     1      45.327   4.564   8.677  0.00  0.00    +0.000 C 
ATOM     11  O   UNL     1      46.290   5.327   8.626  0.00  0.00    +0.000 OA
ATOM     12  H   UNL     1      43.753   3.862   9.827  0.00  0.00    +0.000 HD
BRANCH  10  13
ATOM     13  C   UNL     1      45.117   3.517   7.588  0.00  0.00    +0.000 C 
ATOM     14  C   UNL     1      44.865   2.131   8.131  0.00  0.00    +0.000 C 
ATOM     15  C   UNL     1      46.235   1.484   8.142  0.00  0.00    +0.000 C 
ATOM     16  O   UNL     1      47.087   2.247   7.278  0.00  0.00    +0.000 OA
ATOM     17  C   UNL     1      46.329   3.323   6.708  0.00  0.00    +0.000 C 
ENDBRANCH  10  13
ENDBRANCH   8   9
ENDBRANCH   5   8
ENDBRANCH   1   2
BRANCH   1  20
ATOM     18  O   UNL     1      46.797   3.360  17.846  0.00  0.00    +0.000 OA
ATOM     19  C   UNL     1      47.510   4.315  17.555  0.00  0.00    +0.000 C 
ATOM     20  N   UNL     1      47.929   4.549  16.267  0.00  0.00    +0.000 N 
ATOM     21  H   UNL     1      48.682   5.210  16.100  0.00  0.00    +0.000 HD
BRANCH  19  22
ATOM     22  C   UNL     1      47.934   5.282  18.575  0.00  0.00    +0.000 A 
ATOM     23  C   UNL     1      46.986   5.994  19.296  0.00  0.00    +0.000 A 
ATOM     24  S   UNL     1      47.662   7.048  20.461  0.00  0.00    +0.000 S 
ATOM     25  C   UNL     1      49.239   6.554  20.060  0.00  0.00    +0.000 A 
ATOM     26  N   UNL     1      50.321   7.048  20.731  0.00  0.00    +0.000 NA
ATOM     27  C   UNL     1      51.452   6.556  20.350  0.00  0.00    +0.000 A 
ATOM     28  N   UNL     1      51.607   5.631  19.350  0.00  0.00    +0.000 N 
ATOM     29  C   UNL     1      50.553   5.141  18.619  0.00  0.00    +0.000 A 
ATOM     30  O   UNL     1      50.735   4.374  17.681  0.00  0.00    +0.000 OA
ATOM     31  C   UNL     1      49.255   5.631  19.031  0.00  0.00    +0.000 A 
ATOM     32  H   UNL     1      52.524   5.304  19.083  0.00  0.00    +0.000 HD
ENDBRANCH  19  22
ENDBRANCH   1  20
TORSDOF 6
ENDMDL
MODEL 9
REMARK VINA RESULT:    -6.818      2.522      3.240
REMARK INTER + INTRA:         -10.247
REMARK INTER:                  -9.337
REMARK INTRA:                  -0.910
REMARK UNBOUND:                -1.038
REMARK  Name = 
REMARK  6 active torsions:
REMARK  status: ('A' for Active; 'I' for Inactive)
REMARK    1  A    between atoms: C_2  and  C_20
REMARK    2  A    between atoms: N_3  and  C_4
REMARK    3  A    between atoms: C_4  and  C_5
REMARK    4  A    between atoms: C_8  and  C_9
REMARK    5  A    between atoms: C_9  and  N_10
REMARK    6  A    between atoms: C_11  and  C_13
REMARK                            x       y       z     vdW  Elec       q    Type
REMARK                         _______ _______ _______ _____ _____    ______ ____
ROOT
ATOM      1  C   UNL     1      48.510   6.824  13.848  0.00  0.00    +0.000 C 
ENDROOT
BRANCH   1   2
ATOM      2  C   UNL     1      47.300   6.370  13.069  0.00  0.00    +0.000 A 
ATOM      3  C   UNL     1      46.356   5.511  13.649  0.00  0.00    +0.000 A 
ATOM      4  C   UNL     1      45.193   5.150  12.956  0.00  0.00    +0.000 A 
ATOM      5  C   UNL     1      44.959   5.620  11.656  0.00  0.00    +0.000 A 
ATOM      6  C   UNL     1      45.917   6.456  11.067  0.00  0.00    +0.000 A 
ATOM      7  C   UNL     1      47.080   6.817  11.760  0.00  0.00    +0.000 A 
BRANCH   5   8
ATOM      8  C   UNL     1      43.719   5.214  10.898  0.00  0.00    +0.000 C 
BRANCH   8   9
ATOM      9  N   UNL     1      44.007   4.507   9.667  0.00  0.00    +0.000 N 
ATOM     10  C   UNL     1      44.377   3.182   9.718  0.00  0.00    +0.000 C 
ATOM     11  O   UNL     1      44.522   2.584  10.783  0.00  0.00    +0.000 OA
ATOM     12  H   UNL     1      43.663   4.894   8.795  0.00  0.00    +0.000 HD
BRANCH  10  13
ATOM     13  C   UNL     1      44.655   2.476   8.395  0.00  0.00    +0.000 C 
ATOM     14  C   UNL     1      46.011   1.811   8.345  0.00  0.00    +0.000 C 
ATOM     15  C   UNL     1      46.905   2.848   7.694  0.00  0.00    +0.000 C 
ATOM     16  O   UNL     1      46.063   3.803   7.036  0.00  0.00    +0.000 OA
ATOM     17  C   UNL     1      44.693   3.417   7.215  0.00  0.00    +0.000 C 
ENDBRANCH  10  13
ENDBRANCH   8   9
ENDBRANCH   5   8
ENDBRANCH   1   2
BRANCH   1  20
ATOM     18  O   UNL     1      50.445   7.467  15.710  0.00  0.00    +0.000 OA
ATOM     19  C   UNL     1      49.361   7.069  16.122  0.00  0.00    +0.000 C 
ATOM     20  N   UNL     1      48.366   6.645  15.273  0.00  0.00    +0.000 N 
ATOM     21  H   UNL     1      47.423   6.531  15.628  0.00  0.00    +0.000 HD
BRANCH  19  22
ATOM     22  C   UNL     1      49.077   6.998  17.560  0.00  0.00    +0.000 A 
ATOM     23  C   UNL     1      48.772   8.152  18.268  0.00  0.00    +0.000 A 
ATOM     24  S   UNL     1      48.439   7.874  19.922  0.00  0.00    +0.000 S 
ATOM     25  C   UNL     1      48.657   6.198  19.731  0.00  0.00    +0.000 A 
ATOM     26  N   UNL     1      48.470   5.343  20.779  0.00  0.00    +0.000 NA
ATOM     27  C   UNL     1      48.629   4.097  20.481  0.00  0.00    +0.000 A 
ATOM     28  N   UNL     1      48.974   3.625  19.241  0.00  0.00    +0.000 N 
ATOM     29  C   UNL     1      49.216   4.451  18.171  0.00  0.00    +0.000 A 
ATOM     30  O   UNL     1      49.597   4.001  17.097  0.00  0.00    +0.000 OA
ATOM     31  C   UNL     1      49.014   5.858  18.440  0.00  0.00    +0.000 A 
ATOM     32  H   UNL     1      49.107   2.637  19.081  0.00  0.00    +0.000 HD
ENDBRANCH  19  22
ENDBRANCH   1  20
TORSDOF 6
ENDMDL
