MODEL 1
REMARK VINA RESULT:    -7.014      0.000      0.000
REMARK INTER + INTRA:         -11.705
REMARK INTER:                 -10.089
REMARK INTRA:                  -1.616
REMARK UNBOUND:                -1.616
REMARK  Name = 
REMARK  9 active torsions:
REMARK  status: ('A' for Active; 'I' for Inactive)
REMARK    1  A    between atoms: C_1  and  N_2
REMARK    2  A    between atoms: N_2  and  C_3
REMARK    3  A    between atoms: C_3  and  C_4
REMARK    4  A    between atoms: C_7  and  C_8
REMARK    5  A    between atoms: N_10  and  CA_11
REMARK    6  A    between atoms: CA_11  and  C_12
REMARK    7  A    between atoms: CA_11  and  C_14
REMARK    8  A    between atoms: C_12  and  O_13
REMARK    9  A    between atoms: C_21  and  C_23
REMARK                            x       y       z     vdW  Elec       q    Type
REMARK                         _______ _______ _______ _____ _____    ______ ____
ROOT
ATOM      1  C   UNL     1      48.419   7.947  14.924  0.00  0.00    +0.000 A 
ATOM      2  C   UNL     1      47.534   8.880  14.358  0.00  0.00    +0.000 A 
ATOM      3  C   UNL     1      46.714   8.537  13.275  0.00  0.00    +0.000 A 
ATOM      4  C   UNL     1      46.722   7.237  12.754  0.00  0.00    +0.000 A 
ATOM      5  C   UNL     1      47.660   6.323  13.260  0.00  0.00    +0.000 A 
ATOM      6  C   UNL     1      48.500   6.678  14.334  0.00  0.00    +0.000 A 
ENDROOT
BRANCH   4   7
ATOM      7  C   UNL     1      45.674   6.890  11.732  0.00  0.00    +0.000 C 
ATOM      8  O   UNL     1      44.738   7.652  11.522  0.00  0.00    +0.000 OA
ATOM      9  N   UNL     1      45.779   5.660  11.114  0.00  0.00    +0.000 N 
ATOM     10  H   UNL     1      46.542   5.054  11.380  0.00  0.00    +0.000 HD
BRANCH   9  11
ATOM     11  CA  UNL     1      44.752   5.028  10.268  0.00  0.00    +0.000 C 
BRANCH  11  12
ATOM     12  C   UNL     1      45.304   4.141   9.164  0.00  0.00    +0.000 A 
ATOM     13  N   UNL     1      45.996   4.623   8.143  0.00  0.00    +0.000 NA
ATOM     14  C   UNL     1      46.361   3.602   7.287  0.00  0.00    +0.000 A 
ATOM     15  C   UNL     1      45.975   2.338   7.672  0.00  0.00    +0.000 A 
ATOM     16  S   UNL     1      45.070   2.433   9.120  0.00  0.00    +0.000 S 
ENDBRANCH  11  12
BRANCH  11  17
ATOM     17  C   UNL     1      43.559   4.388  11.006  0.00  0.00    +0.000 C 
BRANCH  17  18
ATOM     18  O   UNL     1      42.582   5.308  11.479  0.00  0.00    +0.000 OA
ATOM     19  H   UNL     1      42.718   6.154  10.997  0.00  0.00    +0.000 HD
ENDBRANCH  17  18
ENDBRANCH  11  17
ENDBRANCH   9  11
ENDBRANCH   4   7
BRANCH   1  20
ATOM     20  C   UNL     1      49.286   8.348  16.104  0.00  0.00    +0.000 C 
BRANCH  20  22
ATOM     21  C   UNL     1      47.868   9.307  17.970  0.00  0.00    +0.000 C 
ATOM     22  N   UNL     1      48.728   8.243  17.464  0.00  0.00    +0.000 N 
ATOM     23  C   UNL     1      48.875   7.106  18.289  0.00  0.00    +0.000 C 
ATOM     24  O   UNL     1      48.263   6.997  19.348  0.00  0.00    +0.000 OA
BRANCH  23  25
ATOM     25  C   UNL     1      49.828   6.051  17.914  0.00  0.00    +0.000 A 
ATOM     26  C   UNL     1      51.189   6.101  18.165  0.00  0.00    +0.000 A 
ATOM     27  S   UNL     1      52.018   4.669  17.738  0.00  0.00    +0.000 S 
ATOM     28  C   UNL     1      50.565   3.883  17.340  0.00  0.00    +0.000 A 
ATOM     29  N   UNL     1      50.546   2.567  16.991  0.00  0.00    +0.000 NA
ATOM     30  C   UNL     1      49.365   2.093  16.796  0.00  0.00    +0.000 A 
ATOM     31  N   UNL     1      48.200   2.817  16.869  0.00  0.00    +0.000 N 
ATOM     32  C   UNL     1      48.184   4.182  17.069  0.00  0.00    +0.000 A 
ATOM     33  O   UNL     1      47.168   4.841  16.874  0.00  0.00    +0.000 OA
ATOM     34  C   UNL     1      49.479   4.735  17.425  0.00  0.00    +0.000 A 
ATOM     35  H   UNL     1      47.315   2.401  16.632  0.00  0.00    +0.000 HD
ENDBRANCH  23  25
ENDBRANCH  20  22
ENDBRANCH   1  20
TORSDOF 8
ENDMDL
MODEL 2
REMARK VINA RESULT:    -6.871      2.195      9.161
REMARK INTER + INTRA:         -11.500
REMARK INTER:                 -10.035
REMARK INTRA:                  -1.465
REMARK UNBOUND:                -1.616
REMARK  Name = 
REMARK  9 active torsions:
REMARK  status: ('A' for Active; 'I' for Inactive)
REMARK    1  A    between atoms: C_1  and  N_2
REMARK    2  A    between atoms: N_2  and  C_3
REMARK    3  A    between atoms: C_3  and  C_4
REMARK    4  A    between atoms: C_7  and  C_8
REMARK    5  A    between atoms: N_10  and  CA_11
REMARK    6  A    between atoms: CA_11  and  C_12
REMARK    7  A    between atoms: CA_11  and  C_14
REMARK    8  A    between atoms: C_12  and  O_13
REMARK    9  A    between atoms: C_21  and  C_23
REMARK                            x       y       z     vdW  Elec       q    Type
REMARK                         _______ _______ _______ _____ _____    ______ ____
ROOT
ATOM      1  C   UNL     1      47.384   5.757  13.700  0.00  0.00    +0.000 A 
ATOM      2  C   UNL     1      48.203   6.500  14.566  0.00  0.00    +0.000 A 
ATOM      3  C   UNL     1      48.495   6.042  15.858  0.00  0.00    +0.000 A 
ATOM      4  C   UNL     1      48.012   4.807  16.306  0.00  0.00    +0.000 A 
ATOM      5  C   UNL     1      47.128   4.098  15.478  0.00  0.00    +0.000 A 
ATOM      6  C   UNL     1      46.817   4.572  14.187  0.00  0.00    +0.000 A 
ENDROOT
BRANCH   4   7
ATOM      7  C   UNL     1      48.530   4.292  17.622  0.00  0.00    +0.000 C 
ATOM      8  O   UNL     1      48.046   3.286  18.127  0.00  0.00    +0.000 OA
ATOM      9  N   UNL     1      49.503   5.040  18.252  0.00  0.00    +0.000 N 
ATOM     10  H   UNL     1      49.813   5.894  17.809  0.00  0.00    +0.000 HD
BRANCH   9  11
ATOM     11  CA  UNL     1      49.978   4.852  19.634  0.00  0.00    +0.000 C 
BRANCH  11  12
ATOM     12  C   UNL     1      51.361   5.421  19.907  0.00  0.00    +0.000 A 
ATOM     13  N   UNL     1      51.644   6.110  21.001  0.00  0.00    +0.000 NA
ATOM     14  C   UNL     1      52.964   6.517  20.984  0.00  0.00    +0.000 A 
ATOM     15  C   UNL     1      53.696   6.109  19.892  0.00  0.00    +0.000 A 
ATOM     16  S   UNL     1      52.686   5.243  18.817  0.00  0.00    +0.000 S 
ENDBRANCH  11  12
BRANCH  11  17
ATOM     17  C   UNL     1      48.969   5.176  20.753  0.00  0.00    +0.000 C 
BRANCH  17  18
ATOM     18  O   UNL     1      48.114   4.099  21.121  0.00  0.00    +0.000 OA
ATOM     19  H   UNL     1      48.648   3.473  21.661  0.00  0.00    +0.000 HD
ENDBRANCH  17  18
ENDBRANCH  11  17
ENDBRANCH   9  11
ENDBRANCH   4   7
BRANCH   1  20
ATOM     20  C   UNL     1      47.097   6.276  12.303  0.00  0.00    +0.000 C 
BRANCH  20  22
ATOM     21  C   UNL     1      46.026   8.571  12.302  0.00  0.00    +0.000 C 
ATOM     22  N   UNL     1      45.916   7.132  12.090  0.00  0.00    +0.000 N 
ATOM     23  C   UNL     1      44.689   6.664  11.572  0.00  0.00    +0.000 C 
ATOM     24  O   UNL     1      43.785   7.438  11.262  0.00  0.00    +0.000 OA
BRANCH  23  25
ATOM     25  C   UNL     1      44.449   5.218  11.456  0.00  0.00    +0.000 A 
ATOM     26  C   UNL     1      43.690   4.477  12.346  0.00  0.00    +0.000 A 
ATOM     27  S   UNL     1      43.477   2.849  11.874  0.00  0.00    +0.000 S 
ATOM     28  C   UNL     1      44.269   3.117  10.395  0.00  0.00    +0.000 A 
ATOM     29  N   UNL     1      44.346   2.143   9.447  0.00  0.00    +0.000 NA
ATOM     30  C   UNL     1      44.905   2.520   8.350  0.00  0.00    +0.000 A 
ATOM     31  N   UNL     1      45.438   3.765   8.123  0.00  0.00    +0.000 N 
ATOM     32  C   UNL     1      45.519   4.731   9.104  0.00  0.00    +0.000 A 
ATOM     33  O   UNL     1      46.220   5.726   8.961  0.00  0.00    +0.000 OA
ATOM     34  C   UNL     1      44.784   4.398  10.313  0.00  0.00    +0.000 A 
ATOM     35  H   UNL     1      45.928   3.971   7.267  0.00  0.00    +0.000 HD
ENDBRANCH  23  25
ENDBRANCH  20  22
ENDBRANCH   1  20
TORSDOF 8
ENDMDL
MODEL 3
REMARK VINA RESULT:    -6.748      2.246      3.003
REMARK INTER + INTRA:         -11.323
REMARK INTER:                  -9.999
REMARK INTRA:                  -1.324
REMARK UNBOUND:                -1.616
REMARK  Name = 
REMARK  9 active torsions:
REMARK  status: ('A' for Active; 'I' for Inactive)
REMARK    1  A    between atoms: C_1  and  N_2
REMARK    2  A    between atoms: N_2  and  C_3
REMARK    3  A    between atoms: C_3  and  C_4
REMARK    4  A    between atoms: C_7  and  C_8
REMARK    5  A    between atoms: N_10  and  CA_11
REMARK    6  A    between atoms: CA_11  and  C_12
REMARK    7  A    between atoms: CA_11  and  C_14
REMARK    8  A    between atoms: C_12  and  O_13
REMARK    9  A    between atoms: C_21  and  C_23
REMARK                            x       y       z     vdW  Elec       q    Type
REMARK                         _______ _______ _______ _____ _____    ______ ____
ROOT
ATOM      1  C   UNL     1      47.093   8.254  13.645  0.00  0.00    +0.000 A 
ATOM      2  C   UNL     1      46.074   8.735  12.805  0.00  0.00    +0.000 A 
ATOM      3  C   UNL     1      45.415   7.885  11.906  0.00  0.00    +0.000 A 
ATOM      4  C   UNL     1      45.724   6.521  11.852  0.00  0.00    +0.000 A 
ATOM      5  C   UNL     1      46.794   6.050  12.629  0.00  0.00    +0.000 A 
ATOM      6  C   UNL     1      47.471   6.911  13.515  0.00  0.00    +0.000 A 
ENDROOT
BRANCH   4   7
ATOM      7  C   UNL     1      44.839   5.639  11.013  0.00  0.00    +0.000 C 
ATOM      8  O   UNL     1      43.631   5.837  10.970  0.00  0.00    +0.000 OA
ATOM      9  N   UNL     1      45.437   4.572  10.374  0.00  0.00    +0.000 N 
ATOM     10  H   UNL     1      46.429   4.430  10.503  0.00  0.00    +0.000 HD
BRANCH   9  11
ATOM     11  CA  UNL     1      44.736   3.464   9.702  0.00  0.00    +0.000 C 
BRANCH  11  12
ATOM     12  C   UNL     1      45.576   2.715   8.680  0.00  0.00    +0.000 A 
ATOM     13  N   UNL     1      45.791   1.411   8.753  0.00  0.00    +0.000 NA
ATOM     14  C   UNL     1      46.594   0.999   7.708  0.00  0.00    +0.000 A 
ATOM     15  C   UNL     1      46.965   1.983   6.820  0.00  0.00    +0.000 A 
ATOM     16  S   UNL     1      46.343   3.488   7.342  0.00  0.00    +0.000 S 
ENDBRANCH  11  12
BRANCH  11  17
ATOM     17  C   UNL     1      43.923   2.521  10.611  0.00  0.00    +0.000 C 
BRANCH  17  18
ATOM     18  O   UNL     1      42.843   3.138  11.304  0.00  0.00    +0.000 OA
ATOM     19  H   UNL     1      42.756   2.685  12.174  0.00  0.00    +0.000 HD
ENDBRANCH  17  18
ENDBRANCH  11  17
ENDBRANCH   9  11
ENDBRANCH   4   7
BRANCH   1  20
ATOM     20  C   UNL     1      47.779   9.198  14.615  0.00  0.00    +0.000 C 
BRANCH  20  22
ATOM     21  C   UNL     1      50.071   9.405  13.557  0.00  0.00    +0.000 C 
ATOM     22  N   UNL     1      49.248   9.152  14.734  0.00  0.00    +0.000 N 
ATOM     23  C   UNL     1      49.933   8.990  15.958  0.00  0.00    +0.000 C 
ATOM     24  O   UNL     1      51.153   9.116  16.033  0.00  0.00    +0.000 OA
BRANCH  23  25
ATOM     25  C   UNL     1      49.189   8.599  17.165  0.00  0.00    +0.000 A 
ATOM     26  C   UNL     1      48.658   9.492  18.080  0.00  0.00    +0.000 A 
ATOM     27  S   UNL     1      47.729   8.747  19.305  0.00  0.00    +0.000 S 
ATOM     28  C   UNL     1      47.884   7.223  18.570  0.00  0.00    +0.000 A 
ATOM     29  N   UNL     1      47.228   6.133  19.056  0.00  0.00    +0.000 NA
ATOM     30  C   UNL     1      47.379   5.069  18.347  0.00  0.00    +0.000 A 
ATOM     31  N   UNL     1      48.162   4.974  17.223  0.00  0.00    +0.000 N 
ATOM     32  C   UNL     1      48.962   6.007  16.783  0.00  0.00    +0.000 A 
ATOM     33  O   UNL     1      49.837   5.822  15.944  0.00  0.00    +0.000 OA
ATOM     34  C   UNL     1      48.723   7.265  17.471  0.00  0.00    +0.000 A 
ATOM     35  H   UNL     1      48.296   4.091  16.757  0.00  0.00    +0.000 HD
ENDBRANCH  23  25
ENDBRANCH  20  22
ENDBRANCH   1  20
TORSDOF 8
ENDMDL
MODEL 4
REMARK VINA RESULT:    -6.677      1.372      1.996
REMARK INTER + INTRA:         -11.221
REMARK INTER:                 -10.052
REMARK INTRA:                  -1.169
REMARK UNBOUND:                -1.616
REMARK  Name = 
REMARK  9 active torsions:
REMARK  status: ('A' for Active; 'I' for Inactive)
REMARK    1  A    between atoms: C_1  and  N_2
REMARK    2  A    between atoms: N_2  and  C_3
REMARK    3  A    between atoms: C_3  and  C_4
REMARK    4  A    between atoms: C_7  and  C_8
REMARK    5  A    between atoms: N_10  and  CA_11
REMARK    6  A    between atoms: CA_11  and  C_12
REMARK    7  A    between atoms: CA_11  and  C_14
REMARK    8  A    between atoms: C_12  and  O_13
REMARK    9  A    between atoms: C_21  and  C_23
REMARK                            x       y       z     vdW  Elec       q    Type
REMARK                         _______ _______ _______ _____ _____    ______ ____
ROOT
ATOM      1  C   UNL     1      48.598   7.119  15.035  0.00  0.00    +0.000 A 
ATOM      2  C   UNL     1      48.117   5.863  14.632  0.00  0.00    +0.000 A 
ATOM      3  C   UNL     1      47.139   5.747  13.634  0.00  0.00    +0.000 A 
ATOM      4  C   UNL     1      46.645   6.882  12.980  0.00  0.00    +0.000 A 
ATOM      5  C   UNL     1      47.060   8.144  13.432  0.00  0.00    +0.000 A 
ATOM      6  C   UNL     1      48.027   8.259  14.452  0.00  0.00    +0.000 A 
ENDROOT
BRANCH   4   7
ATOM      7  C   UNL     1      45.753   6.666  11.788  0.00  0.00    +0.000 C 
ATOM      8  O   UNL     1      45.095   7.592  11.331  0.00  0.00    +0.000 OA
ATOM      9  N   UNL     1      45.657   5.379  11.298  0.00  0.00    +0.000 N 
ATOM     10  H   UNL     1      46.179   4.649  11.762  0.00  0.00    +0.000 HD
BRANCH   9  11
ATOM     11  CA  UNL     1      44.680   4.904  10.303  0.00  0.00    +0.000 C 
BRANCH  11  12
ATOM     12  C   UNL     1      45.289   4.146   9.135  0.00  0.00    +0.000 A 
ATOM     13  N   UNL     1      46.012   4.741   8.200  0.00  0.00    +0.000 NA
ATOM     14  C   UNL     1      46.426   3.821   7.256  0.00  0.00    +0.000 A 
ATOM     15  C   UNL     1      46.045   2.519   7.489  0.00  0.00    +0.000 A 
ATOM     16  S   UNL     1      45.082   2.449   8.901  0.00  0.00    +0.000 S 
ENDBRANCH  11  12
BRANCH  11  17
ATOM     17  C   UNL     1      43.414   4.223  10.861  0.00  0.00    +0.000 C 
BRANCH  17  18
ATOM     18  O   UNL     1      42.515   5.091  11.542  0.00  0.00    +0.000 OA
ATOM     19  H   UNL     1      43.058   5.721  12.068  0.00  0.00    +0.000 HD
ENDBRANCH  17  18
ENDBRANCH  11  17
ENDBRANCH   9  11
ENDBRANCH   4   7
BRANCH   1  20
ATOM     20  C   UNL     1      49.666   7.210  16.110  0.00  0.00    +0.000 C 
BRANCH  20  22
ATOM     21  C   UNL     1      49.495   9.030  17.862  0.00  0.00    +0.000 C 
ATOM     22  N   UNL     1      49.277   7.644  17.464  0.00  0.00    +0.000 N 
ATOM     23  C   UNL     1      48.588   6.825  18.385  0.00  0.00    +0.000 C 
ATOM     24  O   UNL     1      48.145   7.276  19.439  0.00  0.00    +0.000 OA
BRANCH  23  25
ATOM     25  C   UNL     1      48.447   5.386  18.119  0.00  0.00    +0.000 A 
ATOM     26  C   UNL     1      47.267   4.775  17.730  0.00  0.00    +0.000 A 
ATOM     27  S   UNL     1      47.444   3.116  17.360  0.00  0.00    +0.000 S 
ATOM     28  C   UNL     1      49.128   3.195  17.567  0.00  0.00    +0.000 A 
ATOM     29  N   UNL     1      49.924   2.123  17.298  0.00  0.00    +0.000 NA
ATOM     30  C   UNL     1      51.184   2.360  17.424  0.00  0.00    +0.000 A 
ATOM     31  N   UNL     1      51.726   3.551  17.841  0.00  0.00    +0.000 N 
ATOM     32  C   UNL     1      50.954   4.610  18.270  0.00  0.00    +0.000 A 
ATOM     33  O   UNL     1      51.451   5.555  18.874  0.00  0.00    +0.000 OA
ATOM     34  C   UNL     1      49.534   4.437  18.019  0.00  0.00    +0.000 A 
ATOM     35  H   UNL     1      52.717   3.645  17.990  0.00  0.00    +0.000 HD
ENDBRANCH  23  25
ENDBRANCH  20  22
ENDBRANCH   1  20
TORSDOF 8
ENDMDL
MODEL 5
REMARK VINA RESULT:    -6.661      2.059      8.893
REMARK INTER + INTRA:         -11.197
REMARK INTER:                  -9.924
REMARK INTRA:                  -1.273
REMARK UNBOUND:                -1.616
REMARK  Name = 
REMARK  9 active torsions:
REMARK  status: ('A' for Active; 'I' for Inactive)
REMARK    1  A    between atoms: C_1  and  N_2
REMARK    2  A    between atoms: N_2  and  C_3
REMARK    3  A    between atoms: C_3  and  C_4
REMARK    4  A    between atoms: C_7  and  C_8
REMARK    5  A    between atoms: N_10  and  CA_11
REMARK    6  A    between atoms: CA_11  and  C_12
REMARK    7  A    between atoms: CA_11  and  C_14
REMARK    8  A    between atoms: C_12  and  O_13
REMARK    9  A    between atoms: C_21  and  C_23
REMARK                            x       y       z     vdW  Elec       q    Type
REMARK                         _______ _______ _______ _____ _____    ______ ____
ROOT
ATOM      1  C   UNL     1      47.289   5.896  13.532  0.00  0.00    +0.000 A 
ATOM      2  C   UNL     1      48.208   6.673  14.258  0.00  0.00    +0.000 A 
ATOM      3  C   UNL     1      48.610   6.302  15.548  0.00  0.00    +0.000 A 
ATOM      4  C   UNL     1      48.139   5.121  16.134  0.00  0.00    +0.000 A 
ATOM      5  C   UNL     1      47.160   4.383  15.449  0.00  0.00    +0.000 A 
ATOM      6  C   UNL     1      46.740   4.770  14.161  0.00  0.00    +0.000 A 
ENDROOT
BRANCH   4   7
ATOM      7  C   UNL     1      48.767   4.688  17.430  0.00  0.00    +0.000 C 
ATOM      8  O   UNL     1      48.074   4.501  18.422  0.00  0.00    +0.000 OA
ATOM      9  N   UNL     1      50.144   4.591  17.462  0.00  0.00    +0.000 N 
ATOM     10  H   UNL     1      50.660   4.821  16.624  0.00  0.00    +0.000 HD
BRANCH   9  11
ATOM     11  CA  UNL     1      50.970   4.415  18.668  0.00  0.00    +0.000 C 
BRANCH  11  12
ATOM     12  C   UNL     1      52.052   3.355  18.541  0.00  0.00    +0.000 A 
ATOM     13  N   UNL     1      51.962   2.343  17.693  0.00  0.00    +0.000 NA
ATOM     14  C   UNL     1      53.073   1.529  17.797  0.00  0.00    +0.000 A 
ATOM     15  C   UNL     1      54.026   1.939  18.702  0.00  0.00    +0.000 A 
ATOM     16  S   UNL     1      53.488   3.354  19.497  0.00  0.00    +0.000 S 
ENDBRANCH  11  12
BRANCH  11  17
ATOM     17  C   UNL     1      51.476   5.705  19.344  0.00  0.00    +0.000 C 
BRANCH  17  18
ATOM     18  O   UNL     1      52.175   6.599  18.485  0.00  0.00    +0.000 OA
ATOM     19  H   UNL     1      52.502   6.075  17.719  0.00  0.00    +0.000 HD
ENDBRANCH  17  18
ENDBRANCH  11  17
ENDBRANCH   9  11
ENDBRANCH   4   7
BRANCH   1  20
ATOM     20  C   UNL     1      46.883   6.319  12.132  0.00  0.00    +0.000 C 
BRANCH  20  22
ATOM     21  C   UNL     1      45.645   8.528  12.157  0.00  0.00    +0.000 C 
ATOM     22  N   UNL     1      45.635   7.084  11.953  0.00  0.00    +0.000 N 
ATOM     23  C   UNL     1      44.431   6.523  11.476  0.00  0.00    +0.000 C 
ATOM     24  O   UNL     1      43.464   7.225  11.191  0.00  0.00    +0.000 OA
BRANCH  23  25
ATOM     25  C   UNL     1      44.297   5.062  11.373  0.00  0.00    +0.000 A 
ATOM     26  C   UNL     1      43.565   4.280  12.251  0.00  0.00    +0.000 A 
ATOM     27  S   UNL     1      43.480   2.635  11.796  0.00  0.00    +0.000 S 
ATOM     28  C   UNL     1      44.294   2.942  10.337  0.00  0.00    +0.000 A 
ATOM     29  N   UNL     1      44.467   1.964   9.405  0.00  0.00    +0.000 NA
ATOM     30  C   UNL     1      45.030   2.366   8.319  0.00  0.00    +0.000 A 
ATOM     31  N   UNL     1      45.482   3.643   8.090  0.00  0.00    +0.000 N 
ATOM     32  C   UNL     1      45.466   4.624   9.059  0.00  0.00    +0.000 A 
ATOM     33  O   UNL     1      46.100   5.664   8.922  0.00  0.00    +0.000 OA
ATOM     34  C   UNL     1      44.721   4.254  10.251  0.00  0.00    +0.000 A 
ATOM     35  H   UNL     1      45.980   3.873   7.245  0.00  0.00    +0.000 HD
ENDBRANCH  23  25
ENDBRANCH  20  22
ENDBRANCH   1  20
TORSDOF 8
ENDMDL
MODEL 6
REMARK VINA RESULT:    -6.180      2.213      3.058
REMARK INTER + INTRA:         -10.505
REMARK INTER:                  -9.123
REMARK INTRA:                  -1.382
REMARK UNBOUND:                -1.616
REMARK  Name = 
REMARK  9 active torsions:
REMARK  status: ('A' for Active; 'I' for Inactive)
REMARK    1  A    between atoms: C_1  and  N_2
REMARK    2  A    between atoms: N_2  and  C_3
REMARK    3  A    between atoms: C_3  and  C_4
REMARK    4  A    between atoms: C_7  and  C_8
REMARK    5  A    between atoms: N_10  and  CA_11
REMARK    6  A    between atoms: CA_11  and  C_12
REMARK    7  A    between atoms: CA_11  and  C_14
REMARK    8  A    between atoms: C_12  and  O_13
REMARK    9  A    between atoms: C_21  and  C_23
REMARK                            x       y       z     vdW  Elec       q    Type
REMARK                         _______ _______ _______ _____ _____    ______ ____
ROOT
ATOM      1  C   UNL     1      48.912   8.125  14.569  0.00  0.00    +0.000 A 
ATOM      2  C   UNL     1      47.740   8.899  14.554  0.00  0.00    +0.000 A 
ATOM      3  C   UNL     1      46.738   8.678  13.599  0.00  0.00    +0.000 A 
ATOM      4  C   UNL     1      46.860   7.649  12.658  0.00  0.00    +0.000 A 
ATOM      5  C   UNL     1      48.062   6.925  12.615  0.00  0.00    +0.000 A 
ATOM      6  C   UNL     1      49.077   7.164  13.562  0.00  0.00    +0.000 A 
ENDROOT
BRANCH   4   7
ATOM      7  C   UNL     1      45.661   7.344  11.800  0.00  0.00    +0.000 C 
ATOM      8  O   UNL     1      44.954   8.252  11.380  0.00  0.00    +0.000 OA
ATOM      9  N   UNL     1      45.363   6.014  11.584  0.00  0.00    +0.000 N 
ATOM     10  H   UNL     1      45.952   5.314  12.013  0.00  0.00    +0.000 HD
BRANCH   9  11
ATOM     11  CA  UNL     1      44.124   5.493  10.981  0.00  0.00    +0.000 C 
BRANCH  11  12
ATOM     12  C   UNL     1      44.315   4.257  10.119  0.00  0.00    +0.000 A 
ATOM     13  N   UNL     1      44.656   4.325   8.842  0.00  0.00    +0.000 NA
ATOM     14  C   UNL     1      44.746   3.057   8.301  0.00  0.00    +0.000 A 
ATOM     15  C   UNL     1      44.504   2.021   9.174  0.00  0.00    +0.000 A 
ATOM     16  S   UNL     1      44.088   2.651  10.709  0.00  0.00    +0.000 S 
ENDBRANCH  11  12
BRANCH  11  17
ATOM     17  C   UNL     1      42.903   5.385  11.916  0.00  0.00    +0.000 C 
BRANCH  17  18
ATOM     18  O   UNL     1      43.167   5.672  13.286  0.00  0.00    +0.000 OA
ATOM     19  H   UNL     1      42.654   6.477  13.521  0.00  0.00    +0.000 HD
ENDBRANCH  17  18
ENDBRANCH  11  17
ENDBRANCH   9  11
ENDBRANCH   4   7
BRANCH   1  20
ATOM     20  C   UNL     1      49.972   8.381  15.624  0.00  0.00    +0.000 C 
BRANCH  20  22
ATOM     21  C   UNL     1      52.333   7.544  15.252  0.00  0.00    +0.000 C 
ATOM     22  N   UNL     1      51.015   7.363  15.848  0.00  0.00    +0.000 N 
ATOM     23  C   UNL     1      50.860   6.257  16.712  0.00  0.00    +0.000 C 
ATOM     24  O   UNL     1      51.806   5.523  16.992  0.00  0.00    +0.000 OA
BRANCH  23  25
ATOM     25  C   UNL     1      49.530   5.928  17.246  0.00  0.00    +0.000 A 
ATOM     26  C   UNL     1      48.702   4.945  16.730  0.00  0.00    +0.000 A 
ATOM     27  S   UNL     1      47.280   4.699  17.645  0.00  0.00    +0.000 S 
ATOM     28  C   UNL     1      47.793   5.793  18.839  0.00  0.00    +0.000 A 
ATOM     29  N   UNL     1      47.077   5.981  19.981  0.00  0.00    +0.000 NA
ATOM     30  C   UNL     1      47.633   6.779  20.825  0.00  0.00    +0.000 A 
ATOM     31  N   UNL     1      48.815   7.449  20.618  0.00  0.00    +0.000 N 
ATOM     32  C   UNL     1      49.493   7.408  19.419  0.00  0.00    +0.000 A 
ATOM     33  O   UNL     1      50.392   8.204  19.169  0.00  0.00    +0.000 OA
ATOM     34  C   UNL     1      48.976   6.418  18.489  0.00  0.00    +0.000 A 
ATOM     35  H   UNL     1      49.156   8.117  21.290  0.00  0.00    +0.000 HD
ENDBRANCH  23  25
ENDBRANCH  20  22
ENDBRANCH   1  20
TORSDOF 8
ENDMDL
MODEL 7
REMARK VINA RESULT:    -6.007      2.722      3.816
REMARK INTER + INTRA:         -10.256
REMARK INTER:                  -9.055
REMARK INTRA:                  -1.201
REMARK UNBOUND:                -1.616
REMARK  Name = 
REMARK  9 active torsions:
REMARK  status: ('A' for Active; 'I' for Inactive)
REMARK    1  A    between atoms: C_1  and  N_2
REMARK    2  A    between atoms: N_2  and  C_3
REMARK    3  A    between atoms: C_3  and  C_4
REMARK    4  A    between atoms: C_7  and  C_8
REMARK    5  A    between atoms: N_10  and  CA_11
REMARK    6  A    between atoms: CA_11  and  C_12
REMARK    7  A    between atoms: CA_11  and  C_14
REMARK    8  A    between atoms: C_12  and  O_13
REMARK    9  A    between atoms: C_21  and  C_23
REMARK                            x       y       z     vdW  Elec       q    Type
REMARK                         _______ _______ _______ _____ _____    ______ ____
ROOT
ATOM      1  C   UNL     1      48.254   9.179  12.949  0.00  0.00    +0.000 A 
ATOM      2  C   UNL     1      46.942   8.959  13.402  0.00  0.00    +0.000 A 
ATOM      3  C   UNL     1      46.174   7.897  12.907  0.00  0.00    +0.000 A 
ATOM      4  C   UNL     1      46.709   6.997  11.978  0.00  0.00    +0.000 A 
ATOM      5  C   UNL     1      47.988   7.257  11.461  0.00  0.00    +0.000 A 
ATOM      6  C   UNL     1      48.751   8.339  11.943  0.00  0.00    +0.000 A 
ENDROOT
BRANCH   4   7
ATOM      7  C   UNL     1      45.900   5.772  11.648  0.00  0.00    +0.000 C 
ATOM      8  O   UNL     1      46.083   4.727  12.260  0.00  0.00    +0.000 OA
ATOM      9  N   UNL     1      45.017   5.866  10.591  0.00  0.00    +0.000 N 
ATOM     10  H   UNL     1      44.962   6.740  10.089  0.00  0.00    +0.000 HD
BRANCH   9  11
ATOM     11  CA  UNL     1      44.307   4.742   9.957  0.00  0.00    +0.000 C 
BRANCH  11  12
ATOM     12  C   UNL     1      45.152   3.928   8.991  0.00  0.00    +0.000 A 
ATOM     13  N   UNL     1      45.886   4.486   8.042  0.00  0.00    +0.000 NA
ATOM     14  C   UNL     1      46.538   3.515   7.306  0.00  0.00    +0.000 A 
ATOM     15  C   UNL     1      46.325   2.218   7.715  0.00  0.00    +0.000 A 
ATOM     16  S   UNL     1      45.224   2.204   9.023  0.00  0.00    +0.000 S 
ENDBRANCH  11  12
BRANCH  11  17
ATOM     17  C   UNL     1      43.451   3.861  10.889  0.00  0.00    +0.000 C 
BRANCH  17  18
ATOM     18  O   UNL     1      42.485   4.565  11.662  0.00  0.00    +0.000 OA
ATOM     19  H   UNL     1      42.133   3.939  12.333  0.00  0.00    +0.000 HD
ENDBRANCH  17  18
ENDBRANCH  11  17
ENDBRANCH   9  11
ENDBRANCH   4   7
BRANCH   1  20
ATOM     20  C   UNL     1      49.064  10.332  13.514  0.00  0.00    +0.000 C 
BRANCH  20  22
ATOM     21  C   UNL     1      51.496  10.852  13.037  0.00  0.00    +0.000 C 
ATOM     22  N   UNL     1      50.494  10.122  13.805  0.00  0.00    +0.000 N 
ATOM     23  C   UNL     1      50.971   9.333  14.873  0.00  0.00    +0.000 C 
ATOM     24  O   UNL     1      52.162   9.313  15.176  0.00  0.00    +0.000 OA
BRANCH  23  25
ATOM     25  C   UNL     1      50.042   8.462  15.609  0.00  0.00    +0.000 A 
ATOM     26  C   UNL     1      49.916   7.099  15.399  0.00  0.00    +0.000 A 
ATOM     27  S   UNL     1      48.856   6.332  16.499  0.00  0.00    +0.000 S 
ATOM     28  C   UNL     1      48.645   7.768  17.381  0.00  0.00    +0.000 A 
ATOM     29  N   UNL     1      47.923   7.790  18.536  0.00  0.00    +0.000 NA
ATOM     30  C   UNL     1      47.920   8.931  19.132  0.00  0.00    +0.000 A 
ATOM     31  N   UNL     1      48.529  10.069  18.663  0.00  0.00    +0.000 N 
ATOM     32  C   UNL     1      49.139  10.132  17.428  0.00  0.00    +0.000 A 
ATOM     33  O   UNL     1      49.443  11.207  16.923  0.00  0.00    +0.000 OA
ATOM     34  C   UNL     1      49.283   8.838  16.781  0.00  0.00    +0.000 A 
ATOM     35  H   UNL     1      48.425  10.948  19.143  0.00  0.00    +0.000 HD
ENDBRANCH  23  25
ENDBRANCH  20  22
ENDBRANCH   1  20
TORSDOF 8
ENDMDL
MODEL 8
REMARK VINA RESULT:    -5.984      2.725      3.492
REMARK INTER + INTRA:         -10.224
REMARK INTER:                  -8.707
REMARK INTRA:                  -1.517
REMARK UNBOUND:                -1.616
REMARK  Name = 
REMARK  9 active torsions:
REMARK  status: ('A' for Active; 'I' for Inactive)
REMARK    1  A    between atoms: C_1  and  N_2
REMARK    2  A    between atoms: N_2  and  C_3
REMARK    3  A    between atoms: C_3  and  C_4
REMARK    4  A    between atoms: C_7  and  C_8
REMARK    5  A    between atoms: N_10  and  CA_11
REMARK    6  A    between atoms: CA_11  and  C_12
REMARK    7  A    between atoms: CA_11  and  C_14
REMARK    8  A    between atoms: C_12  and  O_13
REMARK    9  A    between atoms: C_21  and  C_23
REMARK                            x       y       z     vdW  Elec       q    Type
REMARK                         _______ _______ _______ _____ _____    ______ ____
ROOT
ATOM      1  C   UNL     1      50.677   7.162  15.883  0.00  0.00    +0.000 A 
ATOM      2  C   UNL     1      49.374   6.642  15.959  0.00  0.00    +0.000 A 
ATOM      3  C   UNL     1      48.509   6.689  14.858  0.00  0.00    +0.000 A 
ATOM      4  C   UNL     1      48.935   7.218  13.634  0.00  0.00    +0.000 A 
ATOM      5  C   UNL     1      50.205   7.813  13.572  0.00  0.00    +0.000 A 
ATOM      6  C   UNL     1      51.066   7.784  14.689  0.00  0.00    +0.000 A 
ENDROOT
BRANCH   4   7
ATOM      7  C   UNL     1      48.025   7.051  12.448  0.00  0.00    +0.000 C 
ATOM      8  O   UNL     1      48.381   7.424  11.337  0.00  0.00    +0.000 OA
ATOM      9  N   UNL     1      46.765   6.539  12.687  0.00  0.00    +0.000 N 
ATOM     10  H   UNL     1      46.514   6.310  13.639  0.00  0.00    +0.000 HD
BRANCH   9  11
ATOM     11  CA  UNL     1      45.648   6.509  11.728  0.00  0.00    +0.000 C 
BRANCH  11  12
ATOM     12  C   UNL     1      44.795   5.253  11.794  0.00  0.00    +0.000 A 
ATOM     13  N   UNL     1      44.050   4.952  12.846  0.00  0.00    +0.000 NA
ATOM     14  C   UNL     1      43.394   3.753  12.642  0.00  0.00    +0.000 A 
ATOM     15  C   UNL     1      43.613   3.158  11.420  0.00  0.00    +0.000 A 
ATOM     16  S   UNL     1      44.727   4.092  10.520  0.00  0.00    +0.000 S 
ENDBRANCH  11  12
BRANCH  11  17
ATOM     17  C   UNL     1      44.806   7.796  11.620  0.00  0.00    +0.000 C 
BRANCH  17  18
ATOM     18  O   UNL     1      43.481   7.609  11.136  0.00  0.00    +0.000 OA
ATOM     19  H   UNL     1      43.003   7.058  11.797  0.00  0.00    +0.000 HD
ENDBRANCH  17  18
ENDBRANCH  11  17
ENDBRANCH   9  11
ENDBRANCH   4   7
BRANCH   1  20
ATOM     20  C   UNL     1      51.593   7.085  17.090  0.00  0.00    +0.000 C 
BRANCH  20  22
ATOM     21  C   UNL     1      53.698   5.724  16.730  0.00  0.00    +0.000 C 
ATOM     22  N   UNL     1      52.369   5.852  17.316  0.00  0.00    +0.000 N 
ATOM     23  C   UNL     1      51.956   4.810  18.174  0.00  0.00    +0.000 C 
ATOM     24  O   UNL     1      52.704   3.876  18.457  0.00  0.00    +0.000 OA
BRANCH  23  25
ATOM     25  C   UNL     1      50.582   4.796  18.698  0.00  0.00    +0.000 A 
ATOM     26  C   UNL     1      50.107   5.660  19.670  0.00  0.00    +0.000 A 
ATOM     27  S   UNL     1      48.434   5.495  19.975  0.00  0.00    +0.000 S 
ATOM     28  C   UNL     1      48.261   4.367  18.716  0.00  0.00    +0.000 A 
ATOM     29  N   UNL     1      47.038   3.886  18.360  0.00  0.00    +0.000 NA
ATOM     30  C   UNL     1      47.058   3.102  17.339  0.00  0.00    +0.000 A 
ATOM     31  N   UNL     1      48.190   2.711  16.666  0.00  0.00    +0.000 N 
ATOM     32  C   UNL     1      49.460   3.050  17.085  0.00  0.00    +0.000 A 
ATOM     33  O   UNL     1      50.450   2.487  16.631  0.00  0.00    +0.000 OA
ATOM     34  C   UNL     1      49.479   4.039  18.149  0.00  0.00    +0.000 A 
ATOM     35  H   UNL     1      48.142   2.036  15.921  0.00  0.00    +0.000 HD
ENDBRANCH  23  25
ENDBRANCH  20  22
ENDBRANCH   1  20
TORSDOF 8
ENDMDL
MODEL 9
REMARK VINA RESULT:    -5.802      5.121      6.563
REMARK INTER + INTRA:          -9.962
REMARK INTER:                  -8.454
REMARK INTRA:                  -1.508
REMARK UNBOUND:                -1.616
REMARK  Name = 
REMARK  9 active torsions:
REMARK  status: ('A' for Active; 'I' for Inactive)
REMARK    1  A    between atoms: C_1  and  N_2
REMARK    2  A    between atoms: N_2  and  C_3
REMARK    3  A    between atoms: C_3  and  C_4
REMARK    4  A    between atoms: C_7  and  C_8
REMARK    5  A    between atoms: N_10  and  CA_11
REMARK    6  A    between atoms: CA_11  and  C_12
REMARK    7  A    between atoms: CA_11  and  C_14
REMARK    8  A    between atoms: C_12  and  O_13
REMARK    9  A    between atoms: C_21  and  C_23
REMARK                            x       y       z     vdW  Elec       q    Type
REMARK                         _______ _______ _______ _____ _____    ______ ____
ROOT
ATOM      1  C   UNL     1      48.993   9.290  12.089  0.00  0.00    +0.000 A 
ATOM      2  C   UNL     1      47.653   9.690  12.222  0.00  0.00    +0.000 A 
ATOM      3  C   UNL     1      46.606   8.765  12.114  0.00  0.00    +0.000 A 
ATOM      4  C   UNL     1      46.870   7.404  11.913  0.00  0.00    +0.000 A 
ATOM      5  C   UNL     1      48.200   7.009  11.699  0.00  0.00    +0.000 A 
ATOM      6  C   UNL     1      49.250   7.946  11.786  0.00  0.00    +0.000 A 
ENDROOT
BRANCH   4   7
ATOM      7  C   UNL     1      45.712   6.448  12.010  0.00  0.00    +0.000 C 
ATOM      8  O   UNL     1      45.734   5.530  12.820  0.00  0.00    +0.000 OA
ATOM      9  N   UNL     1      44.684   6.610  11.104  0.00  0.00    +0.000 N 
ATOM     10  H   UNL     1      44.760   7.350  10.420  0.00  0.00    +0.000 HD
BRANCH   9  11
ATOM     11  CA  UNL     1      43.582   5.662  10.869  0.00  0.00    +0.000 C 
BRANCH  11  12
ATOM     12  C   UNL     1      44.010   4.339  10.255  0.00  0.00    +0.000 A 
ATOM     13  N   UNL     1      43.613   3.170  10.734  0.00  0.00    +0.000 NA
ATOM     14  C   UNL     1      44.162   2.138   9.997  0.00  0.00    +0.000 A 
ATOM     15  C   UNL     1      44.950   2.521   8.936  0.00  0.00    +0.000 A 
ATOM     16  S   UNL     1      45.065   4.227   8.895  0.00  0.00    +0.000 S 
ENDBRANCH  11  12
BRANCH  11  17
ATOM     17  C   UNL     1      42.575   5.486  12.023  0.00  0.00    +0.000 C 
BRANCH  17  18
ATOM     18  O   UNL     1      43.022   4.654  13.089  0.00  0.00    +0.000 OA
ATOM     19  H   UNL     1      43.979   4.480  12.943  0.00  0.00    +0.000 HD
ENDBRANCH  17  18
ENDBRANCH  11  17
ENDBRANCH   9  11
ENDBRANCH   4   7
BRANCH   1  20
ATOM     20  C   UNL     1      50.104  10.315  12.224  0.00  0.00    +0.000 C 
BRANCH  20  22
ATOM     21  C   UNL     1      51.503   9.620  14.217  0.00  0.00    +0.000 C 
ATOM     22  N   UNL     1      51.399   9.891  12.788  0.00  0.00    +0.000 N 
ATOM     23  C   UNL     1      52.542   9.612  12.009  0.00  0.00    +0.000 C 
ATOM     24  O   UNL     1      53.549   9.110  12.502  0.00  0.00    +0.000 OA
BRANCH  23  25
ATOM     25  C   UNL     1      52.564   9.983  10.585  0.00  0.00    +0.000 A 
ATOM     26  C   UNL     1      52.745  11.273  10.117  0.00  0.00    +0.000 A 
ATOM     27  S   UNL     1      52.862  11.373   8.415  0.00  0.00    +0.000 S 
ATOM     28  C   UNL     1      52.822   9.682   8.259  0.00  0.00    +0.000 A 
ATOM     29  N   UNL     1      52.989   9.079   7.049  0.00  0.00    +0.000 NA
ATOM     30  C   UNL     1      53.014   7.793   7.102  0.00  0.00    +0.000 A 
ATOM     31  N   UNL     1      52.840   7.046   8.242  0.00  0.00    +0.000 N 
ATOM     32  C   UNL     1      52.517   7.608   9.459  0.00  0.00    +0.000 A 
ATOM     33  O   UNL     1      52.116   6.920  10.391  0.00  0.00    +0.000 OA
ATOM     34  C   UNL     1      52.610   9.058   9.475  0.00  0.00    +0.000 A 
ATOM     35  H   UNL     1      52.797   6.040   8.201  0.00  0.00    +0.000 HD
ENDBRANCH  23  25
ENDBRANCH  20  22
ENDBRANCH   1  20
TORSDOF 8
ENDMDL
