MODEL 1
REMARK VINA RESULT:    -8.419      0.000      0.000
REMARK INTER + INTRA:         -12.238
REMARK INTER:                 -11.126
REMARK INTRA:                  -1.112
REMARK UNBOUND:                -1.112
REMARK  Name = 
REMARK  8 active torsions:
REMARK  status: ('A' for Active; 'I' for Inactive)
REMARK    1  A    between atoms: C_1  and  C_2
REMARK    2  A    between atoms: C_2  and  N_3
REMARK    3  A    between atoms: C_2  and  C_17
REMARK    4  A    between atoms: C_4  and  C_6
REMARK    5  A    between atoms: N_12  and  C_13
REMARK    6  A    between atoms: C_20  and  C_21
REMARK    7  A    between atoms: C_21  and  O_22
REMARK    8  A    between atoms: C_21  and  C_23
REMARK                            x       y       z     vdW  Elec       q    Type
REMARK                         _______ _______ _______ _____ _____    ______ ____
ROOT
ATOM      1  C   UNL     1      47.809   8.537  13.929  0.00  0.00    +0.000 C 
ATOM      2  C   UNL     1      48.042   7.025  13.878  0.00  0.00    +0.000 C 
ENDROOT
BRANCH   2   3
ATOM      3  C   UNL     1      47.019   6.331  12.996  0.00  0.00    +0.000 A 
ATOM      4  C   UNL     1      46.608   6.925  11.796  0.00  0.00    +0.000 A 
ATOM      5  C   UNL     1      45.745   6.251  10.927  0.00  0.00    +0.000 A 
ATOM      6  C   UNL     1      45.282   4.962  11.232  0.00  0.00    +0.000 A 
ATOM      7  C   UNL     1      45.657   4.391  12.455  0.00  0.00    +0.000 A 
ATOM      8  C   UNL     1      46.516   5.063  13.324  0.00  0.00    +0.000 A 
BRANCH   6   9
ATOM      9  C   UNL     1      44.372   4.221  10.271  0.00  0.00    +0.000 C 
BRANCH   9  10
ATOM     10  C   UNL     1      45.145   3.518   9.165  0.00  0.00    +0.000 A 
ATOM     11  C   UNL     1      45.328   2.136   9.198  0.00  0.00    +0.000 A 
ATOM     12  C   UNL     1      46.108   1.541   8.212  0.00  0.00    +0.000 A 
ATOM     13  C   UNL     1      46.680   2.334   7.224  0.00  0.00    +0.000 A 
ATOM     14  C   UNL     1      46.425   3.695   7.244  0.00  0.00    +0.000 A 
ATOM     15  N   UNL     1      45.664   4.305   8.179  0.00  0.00    +0.000 NA
ENDBRANCH   9  10
BRANCH   9  16
ATOM     16  O   UNL     1      43.438   5.145   9.691  0.00  0.00    +0.000 OA
ATOM     17  H   UNL     1      42.706   4.578   9.376  0.00  0.00    +0.000 HD
ENDBRANCH   9  16
ENDBRANCH   6   9
ENDBRANCH   2   3
BRANCH   2  18
ATOM     18  N   UNL     1      47.981   6.442  15.203  0.00  0.00    +0.000 N 
ATOM     19  C   UNL     1      49.064   6.243  16.010  0.00  0.00    +0.000 C 
ATOM     20  O   UNL     1      50.217   6.426  15.631  0.00  0.00    +0.000 OA
ATOM     21  H   UNL     1      47.055   6.380  15.610  0.00  0.00    +0.000 HD
BRANCH  19  22
ATOM     22  C   UNL     1      48.765   5.750  17.363  0.00  0.00    +0.000 A 
ATOM     23  C   UNL     1      48.989   4.419  17.686  0.00  0.00    +0.000 A 
ATOM     24  S   UNL     1      48.604   4.038  19.303  0.00  0.00    +0.000 S 
ATOM     25  C   UNL     1      48.160   5.646  19.638  0.00  0.00    +0.000 A 
ATOM     26  N   UNL     1      47.765   6.018  20.881  0.00  0.00    +0.000 NA
ATOM     27  C   UNL     1      47.479   7.276  21.002  0.00  0.00    +0.000 A 
ATOM     28  N   UNL     1      47.538   8.209  19.986  0.00  0.00    +0.000 N 
ATOM     29  C   UNL     1      47.170   9.589  20.220  0.00  0.00    +0.000 C 
ATOM     30  C   UNL     1      47.902   7.852  18.692  0.00  0.00    +0.000 A 
ATOM     31  O   UNL     1      47.890   8.654  17.763  0.00  0.00    +0.000 OA
ATOM     32  C   UNL     1      48.266   6.456  18.523  0.00  0.00    +0.000 A 
ENDBRANCH  19  22
ENDBRANCH   2  18
TORSDOF 6
ENDMDL
MODEL 2
REMARK VINA RESULT:    -8.139      3.687      4.675
REMARK INTER + INTRA:         -11.868
REMARK INTER:                 -10.602
REMARK INTRA:                  -1.266
REMARK UNBOUND:                -1.112
REMARK  Name = 
REMARK  8 active torsions:
REMARK  status: ('A' for Active; 'I' for Inactive)
REMARK    1  A    between atoms: C_1  and  C_2
REMARK    2  A    between atoms: C_2  and  N_3
REMARK    3  A    between atoms: C_2  and  C_17
REMARK    4  A    between atoms: C_4  and  C_6
REMARK    5  A    between atoms: N_12  and  C_13
REMARK    6  A    between atoms: C_20  and  C_21
REMARK    7  A    between atoms: C_21  and  O_22
REMARK    8  A    between atoms: C_21  and  C_23
REMARK                            x       y       z     vdW  Elec       q    Type
REMARK                         _______ _______ _______ _____ _____    ______ ____
ROOT
ATOM      1  C   UNL     1      47.129   4.559  15.031  0.00  0.00    +0.000 C 
ATOM      2  C   UNL     1      46.746   5.646  14.026  0.00  0.00    +0.000 C 
ENDROOT
BRANCH   2   3
ATOM      3  C   UNL     1      46.069   5.061  12.799  0.00  0.00    +0.000 A 
ATOM      4  C   UNL     1      45.960   5.822  11.627  0.00  0.00    +0.000 A 
ATOM      5  C   UNL     1      45.432   5.261  10.461  0.00  0.00    +0.000 A 
ATOM      6  C   UNL     1      45.012   3.922  10.435  0.00  0.00    +0.000 A 
ATOM      7  C   UNL     1      45.078   3.179  11.621  0.00  0.00    +0.000 A 
ATOM      8  C   UNL     1      45.603   3.738  12.786  0.00  0.00    +0.000 A 
BRANCH   6   9
ATOM      9  C   UNL     1      44.470   3.308   9.158  0.00  0.00    +0.000 C 
BRANCH   9  10
ATOM     10  C   UNL     1      45.568   2.719   8.285  0.00  0.00    +0.000 A 
ATOM     11  C   UNL     1      46.162   3.485   7.283  0.00  0.00    +0.000 A 
ATOM     12  C   UNL     1      47.106   2.886   6.455  0.00  0.00    +0.000 A 
ATOM     13  C   UNL     1      47.432   1.549   6.647  0.00  0.00    +0.000 A 
ATOM     14  C   UNL     1      46.818   0.866   7.684  0.00  0.00    +0.000 A 
ATOM     15  N   UNL     1      45.907   1.418   8.514  0.00  0.00    +0.000 NA
ENDBRANCH   9  10
BRANCH   9  16
ATOM     16  O   UNL     1      43.751   4.305   8.417  0.00  0.00    +0.000 OA
ATOM     17  H   UNL     1      43.178   4.732   9.085  0.00  0.00    +0.000 HD
ENDBRANCH   9  16
ENDBRANCH   6   9
ENDBRANCH   2   3
BRANCH   2  18
ATOM     18  N   UNL     1      47.910   6.396  13.597  0.00  0.00    +0.000 N 
ATOM     19  C   UNL     1      48.008   7.757  13.635  0.00  0.00    +0.000 C 
ATOM     20  O   UNL     1      47.062   8.484  13.920  0.00  0.00    +0.000 OA
ATOM     21  H   UNL     1      48.754   5.852  13.463  0.00  0.00    +0.000 HD
BRANCH  19  22
ATOM     22  C   UNL     1      49.321   8.309  13.268  0.00  0.00    +0.000 A 
ATOM     23  C   UNL     1      49.440   9.163  12.181  0.00  0.00    +0.000 A 
ATOM     24  S   UNL     1      51.033   9.717  11.922  0.00  0.00    +0.000 S 
ATOM     25  C   UNL     1      51.612   8.862  13.275  0.00  0.00    +0.000 A 
ATOM     26  N   UNL     1      52.914   8.942  13.648  0.00  0.00    +0.000 NA
ATOM     27  C   UNL     1      53.213   8.261  14.709  0.00  0.00    +0.000 A 
ATOM     28  N   UNL     1      52.331   7.488  15.437  0.00  0.00    +0.000 N 
ATOM     29  C   UNL     1      52.775   6.742  16.594  0.00  0.00    +0.000 C 
ATOM     30  C   UNL     1      50.998   7.356  15.059  0.00  0.00    +0.000 A 
ATOM     31  O   UNL     1      50.220   6.617  15.653  0.00  0.00    +0.000 OA
ATOM     32  C   UNL     1      50.614   8.134  13.894  0.00  0.00    +0.000 A 
ENDBRANCH  19  22
ENDBRANCH   2  18
TORSDOF 6
ENDMDL
MODEL 3
REMARK VINA RESULT:    -7.596      3.092      4.774
REMARK INTER + INTRA:         -11.150
REMARK INTER:                 -10.029
REMARK INTRA:                  -1.121
REMARK UNBOUND:                -1.112
REMARK  Name = 
REMARK  8 active torsions:
REMARK  status: ('A' for Active; 'I' for Inactive)
REMARK    1  A    between atoms: C_1  and  C_2
REMARK    2  A    between atoms: C_2  and  N_3
REMARK    3  A    between atoms: C_2  and  C_17
REMARK    4  A    between atoms: C_4  and  C_6
REMARK    5  A    between atoms: N_12  and  C_13
REMARK    6  A    between atoms: C_20  and  C_21
REMARK    7  A    between atoms: C_21  and  O_22
REMARK    8  A    between atoms: C_21  and  C_23
REMARK                            x       y       z     vdW  Elec       q    Type
REMARK                         _______ _______ _______ _____ _____    ______ ____
ROOT
ATOM      1  C   UNL     1      47.522   4.279  15.563  0.00  0.00    +0.000 C 
ATOM      2  C   UNL     1      47.089   5.454  14.683  0.00  0.00    +0.000 C 
ENDROOT
BRANCH   2   3
ATOM      3  C   UNL     1      46.448   4.979  13.391  0.00  0.00    +0.000 A 
ATOM      4  C   UNL     1      46.022   3.651  13.266  0.00  0.00    +0.000 A 
ATOM      5  C   UNL     1      45.339   3.227  12.122  0.00  0.00    +0.000 A 
ATOM      6  C   UNL     1      45.057   4.125  11.081  0.00  0.00    +0.000 A 
ATOM      7  C   UNL     1      45.528   5.440  11.189  0.00  0.00    +0.000 A 
ATOM      8  C   UNL     1      46.210   5.864  12.329  0.00  0.00    +0.000 A 
BRANCH   6   9
ATOM      9  C   UNL     1      44.287   3.669   9.855  0.00  0.00    +0.000 C 
BRANCH   9  10
ATOM     10  C   UNL     1      45.201   3.135   8.762  0.00  0.00    +0.000 A 
ATOM     11  C   UNL     1      45.599   1.799   8.763  0.00  0.00    +0.000 A 
ATOM     12  C   UNL     1      46.498   1.369   7.792  0.00  0.00    +0.000 A 
ATOM     13  C   UNL     1      46.972   2.276   6.852  0.00  0.00    +0.000 A 
ATOM     14  C   UNL     1      46.505   3.579   6.901  0.00  0.00    +0.000 A 
ATOM     15  N   UNL     1      45.624   4.028   7.821  0.00  0.00    +0.000 NA
ENDBRANCH   9  10
BRANCH   9  16
ATOM     16  O   UNL     1      43.516   4.766   9.343  0.00  0.00    +0.000 OA
ATOM     17  H   UNL     1      43.044   4.387   8.574  0.00  0.00    +0.000 HD
ENDBRANCH   9  16
ENDBRANCH   6   9
ENDBRANCH   2   3
BRANCH   2  18
ATOM     18  N   UNL     1      48.217   6.303  14.354  0.00  0.00    +0.000 N 
ATOM     19  C   UNL     1      48.955   6.996  15.270  0.00  0.00    +0.000 C 
ATOM     20  O   UNL     1      48.648   7.063  16.456  0.00  0.00    +0.000 OA
ATOM     21  H   UNL     1      48.585   6.195  13.416  0.00  0.00    +0.000 HD
BRANCH  19  22
ATOM     22  C   UNL     1      50.131   7.699  14.736  0.00  0.00    +0.000 A 
ATOM     23  C   UNL     1      51.396   7.421  15.233  0.00  0.00    +0.000 A 
ATOM     24  S   UNL     1      52.636   8.318  14.478  0.00  0.00    +0.000 S 
ATOM     25  C   UNL     1      51.528   9.083  13.437  0.00  0.00    +0.000 A 
ATOM     26  N   UNL     1      51.949   9.959  12.491  0.00  0.00    +0.000 NA
ATOM     27  C   UNL     1      51.004  10.449  11.752  0.00  0.00    +0.000 A 
ATOM     28  N   UNL     1      49.661  10.154  11.874  0.00  0.00    +0.000 N 
ATOM     29  C   UNL     1      48.680  10.778  11.013  0.00  0.00    +0.000 C 
ATOM     30  C   UNL     1      49.194   9.288  12.858  0.00  0.00    +0.000 A 
ATOM     31  O   UNL     1      47.998   9.072  13.026  0.00  0.00    +0.000 OA
ATOM     32  C   UNL     1      50.227   8.690  13.686  0.00  0.00    +0.000 A 
ENDBRANCH  19  22
ENDBRANCH   2  18
TORSDOF 6
ENDMDL
MODEL 4
REMARK VINA RESULT:    -7.179      1.860      2.505
REMARK INTER + INTRA:         -10.599
REMARK INTER:                  -9.284
REMARK INTRA:                  -1.315
REMARK UNBOUND:                -1.112
REMARK  Name = 
REMARK  8 active torsions:
REMARK  status: ('A' for Active; 'I' for Inactive)
REMARK    1  A    between atoms: C_1  and  C_2
REMARK    2  A    between atoms: C_2  and  N_3
REMARK    3  A    between atoms: C_2  and  C_17
REMARK    4  A    between atoms: C_4  and  C_6
REMARK    5  A    between atoms: N_12  and  C_13
REMARK    6  A    between atoms: C_20  and  C_21
REMARK    7  A    between atoms: C_21  and  O_22
REMARK    8  A    between atoms: C_21  and  C_23
REMARK                            x       y       z     vdW  Elec       q    Type
REMARK                         _______ _______ _______ _____ _____    ______ ____
ROOT
ATOM      1  C   UNL     1      48.850   9.413  13.002  0.00  0.00    +0.000 C 
ATOM      2  C   UNL     1      48.901   7.921  13.338  0.00  0.00    +0.000 C 
ENDROOT
BRANCH   2   3
ATOM      3  C   UNL     1      47.674   7.189  12.824  0.00  0.00    +0.000 A 
ATOM      4  C   UNL     1      46.714   7.874  12.068  0.00  0.00    +0.000 A 
ATOM      5  C   UNL     1      45.633   7.191  11.502  0.00  0.00    +0.000 A 
ATOM      6  C   UNL     1      45.493   5.805  11.670  0.00  0.00    +0.000 A 
ATOM      7  C   UNL     1      46.429   5.132  12.467  0.00  0.00    +0.000 A 
ATOM      8  C   UNL     1      47.506   5.812  13.033  0.00  0.00    +0.000 A 
BRANCH   6   9
ATOM      9  C   UNL     1      44.336   5.062  11.028  0.00  0.00    +0.000 C 
BRANCH   9  10
ATOM     10  C   UNL     1      44.791   4.135   9.911  0.00  0.00    +0.000 A 
ATOM     11  C   UNL     1      44.556   2.763   9.992  0.00  0.00    +0.000 A 
ATOM     12  C   UNL     1      45.057   1.939   8.989  0.00  0.00    +0.000 A 
ATOM     13  C   UNL     1      45.773   2.501   7.939  0.00  0.00    +0.000 A 
ATOM     14  C   UNL     1      45.937   3.876   7.916  0.00  0.00    +0.000 A 
ATOM     15  N   UNL     1      45.455   4.707   8.866  0.00  0.00    +0.000 NA
ENDBRANCH   9  10
BRANCH   9  16
ATOM     16  O   UNL     1      43.391   6.010  10.510  0.00  0.00    +0.000 OA
ATOM     17  H   UNL     1      43.670   6.143   9.581  0.00  0.00    +0.000 HD
ENDBRANCH   9  16
ENDBRANCH   6   9
ENDBRANCH   2   3
BRANCH   2  18
ATOM     18  N   UNL     1      48.997   7.711  14.769  0.00  0.00    +0.000 N 
ATOM     19  C   UNL     1      50.168   7.697  15.471  0.00  0.00    +0.000 C 
ATOM     20  O   UNL     1      51.267   7.736  14.928  0.00  0.00    +0.000 OA
ATOM     21  H   UNL     1      48.126   7.789  15.281  0.00  0.00    +0.000 HD
BRANCH  19  22
ATOM     22  C   UNL     1      50.031   7.590  16.931  0.00  0.00    +0.000 A 
ATOM     23  C   UNL     1      50.385   8.656  17.745  0.00  0.00    +0.000 A 
ATOM     24  S   UNL     1      50.138   8.355  19.406  0.00  0.00    +0.000 S 
ATOM     25  C   UNL     1      49.517   6.802  19.092  0.00  0.00    +0.000 A 
ATOM     26  N   UNL     1      49.069   6.011  20.098  0.00  0.00    +0.000 NA
ATOM     27  C   UNL     1      48.600   4.865  19.716  0.00  0.00    +0.000 A 
ATOM     28  N   UNL     1      48.545   4.421  18.410  0.00  0.00    +0.000 N 
ATOM     29  C   UNL     1      48.027   3.109  18.091  0.00  0.00    +0.000 C 
ATOM     30  C   UNL     1      49.031   5.193  17.359  0.00  0.00    +0.000 A 
ATOM     31  O   UNL     1      49.055   4.784  16.203  0.00  0.00    +0.000 OA
ATOM     32  C   UNL     1      49.532   6.501  17.743  0.00  0.00    +0.000 A 
ENDBRANCH  19  22
ENDBRANCH   2  18
TORSDOF 6
ENDMDL
MODEL 5
REMARK VINA RESULT:    -6.952      2.484      9.515
REMARK INTER + INTRA:         -10.299
REMARK INTER:                  -9.165
REMARK INTRA:                  -1.135
REMARK UNBOUND:                -1.112
REMARK  Name = 
REMARK  8 active torsions:
REMARK  status: ('A' for Active; 'I' for Inactive)
REMARK    1  A    between atoms: C_1  and  C_2
REMARK    2  A    between atoms: C_2  and  N_3
REMARK    3  A    between atoms: C_2  and  C_17
REMARK    4  A    between atoms: C_4  and  C_6
REMARK    5  A    between atoms: N_12  and  C_13
REMARK    6  A    between atoms: C_20  and  C_21
REMARK    7  A    between atoms: C_21  and  O_22
REMARK    8  A    between atoms: C_21  and  C_23
REMARK                            x       y       z     vdW  Elec       q    Type
REMARK                         _______ _______ _______ _____ _____    ______ ____
ROOT
ATOM      1  C   UNL     1      48.543   7.894  11.467  0.00  0.00    +0.000 C 
ATOM      2  C   UNL     1      47.384   7.834  12.464  0.00  0.00    +0.000 C 
ENDROOT
BRANCH   2   3
ATOM      3  C   UNL     1      47.877   7.890  13.899  0.00  0.00    +0.000 A 
ATOM      4  C   UNL     1      48.464   6.760  14.484  0.00  0.00    +0.000 A 
ATOM      5  C   UNL     1      49.014   6.828  15.768  0.00  0.00    +0.000 A 
ATOM      6  C   UNL     1      49.000   8.030  16.492  0.00  0.00    +0.000 A 
ATOM      7  C   UNL     1      48.369   9.144  15.923  0.00  0.00    +0.000 A 
ATOM      8  C   UNL     1      47.819   9.078  14.643  0.00  0.00    +0.000 A 
BRANCH   6   9
ATOM      9  C   UNL     1      49.627   8.107  17.872  0.00  0.00    +0.000 C 
BRANCH   9  10
ATOM     10  C   UNL     1      49.105   7.027  18.808  0.00  0.00    +0.000 A 
ATOM     11  C   UNL     1      47.784   7.055  19.253  0.00  0.00    +0.000 A 
ATOM     12  C   UNL     1      47.368   6.095  20.170  0.00  0.00    +0.000 A 
ATOM     13  C   UNL     1      48.273   5.139  20.615  0.00  0.00    +0.000 A 
ATOM     14  C   UNL     1      49.559   5.162  20.102  0.00  0.00    +0.000 A 
ATOM     15  N   UNL     1      49.994   6.071  19.202  0.00  0.00    +0.000 NA
ENDBRANCH   9  10
BRANCH   9  16
ATOM     16  O   UNL     1      49.368   9.400  18.440  0.00  0.00    +0.000 OA
ATOM     17  H   UNL     1      50.258   9.772  18.603  0.00  0.00    +0.000 HD
ENDBRANCH   9  16
ENDBRANCH   6   9
ENDBRANCH   2   3
BRANCH   2  18
ATOM     18  N   UNL     1      46.607   6.622  12.291  0.00  0.00    +0.000 N 
ATOM     19  C   UNL     1      45.399   6.564  11.659  0.00  0.00    +0.000 C 
ATOM     20  O   UNL     1      44.794   7.566  11.288  0.00  0.00    +0.000 OA
ATOM     21  H   UNL     1      47.103   5.757  12.470  0.00  0.00    +0.000 HD
BRANCH  19  22
ATOM     22  C   UNL     1      44.838   5.216  11.485  0.00  0.00    +0.000 A 
ATOM     23  C   UNL     1      44.063   4.648  12.487  0.00  0.00    +0.000 A 
ATOM     24  S   UNL     1      43.483   3.092  12.099  0.00  0.00    +0.000 S 
ATOM     25  C   UNL     1      44.217   3.137  10.564  0.00  0.00    +0.000 A 
ATOM     26  N   UNL     1      44.072   2.112   9.689  0.00  0.00    +0.000 NA
ATOM     27  C   UNL     1      44.663   2.288   8.549  0.00  0.00    +0.000 A 
ATOM     28  N   UNL     1      45.405   3.398   8.198  0.00  0.00    +0.000 N 
ATOM     29  C   UNL     1      46.050   3.484   6.906  0.00  0.00    +0.000 C 
ATOM     30  C   UNL     1      45.604   4.450   9.087  0.00  0.00    +0.000 A 
ATOM     31  O   UNL     1      46.320   5.409   8.816  0.00  0.00    +0.000 OA
ATOM     32  C   UNL     1      44.927   4.307  10.364  0.00  0.00    +0.000 A 
ENDBRANCH  19  22
ENDBRANCH   2  18
TORSDOF 6
ENDMDL
MODEL 6
REMARK VINA RESULT:    -6.937      3.786      5.893
REMARK INTER + INTRA:         -10.279
REMARK INTER:                 -10.379
REMARK INTRA:                   0.100
REMARK UNBOUND:                -1.112
REMARK  Name = 
REMARK  8 active torsions:
REMARK  status: ('A' for Active; 'I' for Inactive)
REMARK    1  A    between atoms: C_1  and  C_2
REMARK    2  A    between atoms: C_2  and  N_3
REMARK    3  A    between atoms: C_2  and  C_17
REMARK    4  A    between atoms: C_4  and  C_6
REMARK    5  A    between atoms: N_12  and  C_13
REMARK    6  A    between atoms: C_20  and  C_21
REMARK    7  A    between atoms: C_21  and  O_22
REMARK    8  A    between atoms: C_21  and  C_23
REMARK                            x       y       z     vdW  Elec       q    Type
REMARK                         _______ _______ _______ _____ _____    ______ ____
ROOT
ATOM      1  C   UNL     1      47.383   4.983  14.785  0.00  0.00    +0.000 C 
ATOM      2  C   UNL     1      46.412   5.854  13.985  0.00  0.00    +0.000 C 
ENDROOT
BRANCH   2   3
ATOM      3  C   UNL     1      46.001   5.184  12.685  0.00  0.00    +0.000 A 
ATOM      4  C   UNL     1      45.652   3.827  12.675  0.00  0.00    +0.000 A 
ATOM      5  C   UNL     1      45.174   3.224  11.507  0.00  0.00    +0.000 A 
ATOM      6  C   UNL     1      45.023   3.967  10.326  0.00  0.00    +0.000 A 
ATOM      7  C   UNL     1      45.419   5.311  10.328  0.00  0.00    +0.000 A 
ATOM      8  C   UNL     1      45.897   5.914  11.491  0.00  0.00    +0.000 A 
BRANCH   6   9
ATOM      9  C   UNL     1      44.474   3.317   9.070  0.00  0.00    +0.000 C 
BRANCH   9  10
ATOM     10  C   UNL     1      45.566   2.700   8.210  0.00  0.00    +0.000 A 
ATOM     11  C   UNL     1      46.123   3.416   7.152  0.00  0.00    +0.000 A 
ATOM     12  C   UNL     1      47.063   2.788   6.341  0.00  0.00    +0.000 A 
ATOM     13  C   UNL     1      47.422   1.472   6.605  0.00  0.00    +0.000 A 
ATOM     14  C   UNL     1      46.844   0.839   7.694  0.00  0.00    +0.000 A 
ATOM     15  N   UNL     1      45.938   1.421   8.509  0.00  0.00    +0.000 NA
ENDBRANCH   9  10
BRANCH   9  16
ATOM     16  O   UNL     1      43.755   4.295   8.303  0.00  0.00    +0.000 OA
ATOM     17  H   UNL     1      44.185   5.142   8.534  0.00  0.00    +0.000 HD
ENDBRANCH   9  16
ENDBRANCH   6   9
ENDBRANCH   2   3
BRANCH   2  18
ATOM     18  N   UNL     1      46.999   7.142  13.674  0.00  0.00    +0.000 N 
ATOM     19  C   UNL     1      48.308   7.332  13.335  0.00  0.00    +0.000 C 
ATOM     20  O   UNL     1      49.144   6.436  13.387  0.00  0.00    +0.000 OA
ATOM     21  H   UNL     1      46.340   7.892  13.503  0.00  0.00    +0.000 HD
BRANCH  19  22
ATOM     22  C   UNL     1      48.668   8.702  12.940  0.00  0.00    +0.000 A 
ATOM     23  C   UNL     1      47.982   9.785  13.472  0.00  0.00    +0.000 A 
ATOM     24  S   UNL     1      48.553  11.293  12.913  0.00  0.00    +0.000 S 
ATOM     25  C   UNL     1      49.759  10.552  11.969  0.00  0.00    +0.000 A 
ATOM     26  N   UNL     1      50.641  11.294  11.255  0.00  0.00    +0.000 NA
ATOM     27  C   UNL     1      51.520  10.603  10.600  0.00  0.00    +0.000 A 
ATOM     28  N   UNL     1      51.598   9.225  10.578  0.00  0.00    +0.000 N 
ATOM     29  C   UNL     1      52.604   8.548   9.790  0.00  0.00    +0.000 C 
ATOM     30  C   UNL     1      50.685   8.435  11.270  0.00  0.00    +0.000 A 
ATOM     31  O   UNL     1      50.696   7.210  11.203  0.00  0.00    +0.000 OA
ATOM     32  C   UNL     1      49.703   9.173  12.046  0.00  0.00    +0.000 A 
ENDBRANCH  19  22
ENDBRANCH   2  18
TORSDOF 6
ENDMDL
MODEL 7
REMARK VINA RESULT:    -6.732      4.380      6.494
REMARK INTER + INTRA:         -10.009
REMARK INTER:                  -8.800
REMARK INTRA:                  -1.209
REMARK UNBOUND:                -1.112
REMARK  Name = 
REMARK  8 active torsions:
REMARK  status: ('A' for Active; 'I' for Inactive)
REMARK    1  A    between atoms: C_1  and  C_2
REMARK    2  A    between atoms: C_2  and  N_3
REMARK    3  A    between atoms: C_2  and  C_17
REMARK    4  A    between atoms: C_4  and  C_6
REMARK    5  A    between atoms: N_12  and  C_13
REMARK    6  A    between atoms: C_20  and  C_21
REMARK    7  A    between atoms: C_21  and  O_22
REMARK    8  A    between atoms: C_21  and  C_23
REMARK                            x       y       z     vdW  Elec       q    Type
REMARK                         _______ _______ _______ _____ _____    ______ ____
ROOT
ATOM      1  C   UNL     1      48.931   7.082  14.562  0.00  0.00    +0.000 C 
ATOM      2  C   UNL     1      48.055   7.910  13.619  0.00  0.00    +0.000 C 
ENDROOT
BRANCH   2   3
ATOM      3  C   UNL     1      46.999   7.055  12.941  0.00  0.00    +0.000 A 
ATOM      4  C   UNL     1      46.150   7.619  11.980  0.00  0.00    +0.000 A 
ATOM      5  C   UNL     1      45.243   6.822  11.276  0.00  0.00    +0.000 A 
ATOM      6  C   UNL     1      45.172   5.440  11.508  0.00  0.00    +0.000 A 
ATOM      7  C   UNL     1      45.988   4.888  12.504  0.00  0.00    +0.000 A 
ATOM      8  C   UNL     1      46.892   5.682  13.209  0.00  0.00    +0.000 A 
BRANCH   6   9
ATOM      9  C   UNL     1      44.209   4.573  10.718  0.00  0.00    +0.000 C 
BRANCH   9  10
ATOM     10  C   UNL     1      44.896   3.824   9.587  0.00  0.00    +0.000 A 
ATOM     11  C   UNL     1      44.963   2.431   9.598  0.00  0.00    +0.000 A 
ATOM     12  C   UNL     1      45.670   1.788   8.587  0.00  0.00    +0.000 A 
ATOM     13  C   UNL     1      46.286   2.544   7.597  0.00  0.00    +0.000 A 
ATOM     14  C   UNL     1      46.147   3.921   7.641  0.00  0.00    +0.000 A 
ATOM     15  N   UNL     1      45.460   4.579   8.600  0.00  0.00    +0.000 NA
ENDBRANCH   9  10
BRANCH   9  16
ATOM     16  O   UNL     1      43.159   5.393  10.182  0.00  0.00    +0.000 OA
ATOM     17  H   UNL     1      42.468   4.754   9.918  0.00  0.00    +0.000 HD
ENDBRANCH   9  16
ENDBRANCH   6   9
ENDBRANCH   2   3
BRANCH   2  18
ATOM     18  N   UNL     1      48.853   8.554  12.595  0.00  0.00    +0.000 N 
ATOM     19  C   UNL     1      49.387   9.806  12.707  0.00  0.00    +0.000 C 
ATOM     20  O   UNL     1      49.130  10.557  13.643  0.00  0.00    +0.000 OA
ATOM     21  H   UNL     1      49.192   7.946  11.859  0.00  0.00    +0.000 HD
BRANCH  19  22
ATOM     22  C   UNL     1      50.265  10.221  11.603  0.00  0.00    +0.000 A 
ATOM     23  C   UNL     1      49.807  11.114  10.644  0.00  0.00    +0.000 A 
ATOM     24  S   UNL     1      50.971  11.493   9.457  0.00  0.00    +0.000 S 
ATOM     25  C   UNL     1      52.140  10.507  10.203  0.00  0.00    +0.000 A 
ATOM     26  N   UNL     1      53.398  10.416   9.706  0.00  0.00    +0.000 NA
ATOM     27  C   UNL     1      54.192   9.649  10.386  0.00  0.00    +0.000 A 
ATOM     28  N   UNL     1      53.843   8.945  11.521  0.00  0.00    +0.000 N 
ATOM     29  C   UNL     1      54.800   8.092  12.191  0.00  0.00    +0.000 C 
ATOM     30  C   UNL     1      52.550   8.987  12.034  0.00  0.00    +0.000 A 
ATOM     31  O   UNL     1      52.206   8.312  12.998  0.00  0.00    +0.000 OA
ATOM     32  C   UNL     1      51.639   9.866  11.321  0.00  0.00    +0.000 A 
ENDBRANCH  19  22
ENDBRANCH   2  18
TORSDOF 6
ENDMDL
MODEL 8
REMARK VINA RESULT:    -6.610      4.673      8.445
REMARK INTER + INTRA:          -9.847
REMARK INTER:                  -9.664
REMARK INTRA:                  -0.183
REMARK UNBOUND:                -1.112
REMARK  Name = 
REMARK  8 active torsions:
REMARK  status: ('A' for Active; 'I' for Inactive)
REMARK    1  A    between atoms: C_1  and  C_2
REMARK    2  A    between atoms: C_2  and  N_3
REMARK    3  A    between atoms: C_2  and  C_17
REMARK    4  A    between atoms: C_4  and  C_6
REMARK    5  A    between atoms: N_12  and  C_13
REMARK    6  A    between atoms: C_20  and  C_21
REMARK    7  A    between atoms: C_21  and  O_22
REMARK    8  A    between atoms: C_21  and  C_23
REMARK                            x       y       z     vdW  Elec       q    Type
REMARK                         _______ _______ _______ _____ _____    ______ ____
ROOT
ATOM      1  C   UNL     1      45.351   9.448  12.140  0.00  0.00    +0.000 C 
ATOM      2  C   UNL     1      46.168   8.382  12.874  0.00  0.00    +0.000 C 
ENDROOT
BRANCH   2   3
ATOM      3  C   UNL     1      47.632   8.423  12.472  0.00  0.00    +0.000 A 
ATOM      4  C   UNL     1      48.188   9.605  11.966  0.00  0.00    +0.000 A 
ATOM      5  C   UNL     1      49.555   9.687  11.688  0.00  0.00    +0.000 A 
ATOM      6  C   UNL     1      50.401   8.592  11.920  0.00  0.00    +0.000 A 
ATOM      7  C   UNL     1      49.833   7.396  12.381  0.00  0.00    +0.000 A 
ATOM      8  C   UNL     1      48.469   7.313  12.657  0.00  0.00    +0.000 A 
BRANCH   6   9
ATOM      9  C   UNL     1      51.891   8.695  11.648  0.00  0.00    +0.000 C 
BRANCH   9  10
ATOM     10  C   UNL     1      52.234   8.428  10.190  0.00  0.00    +0.000 A 
ATOM     11  C   UNL     1      52.247   7.125   9.694  0.00  0.00    +0.000 A 
ATOM     12  C   UNL     1      52.643   6.915   8.377  0.00  0.00    +0.000 A 
ATOM     13  C   UNL     1      53.012   8.002   7.594  0.00  0.00    +0.000 A 
ATOM     14  C   UNL     1      52.943   9.268   8.153  0.00  0.00    +0.000 A 
ATOM     15  N   UNL     1      52.552   9.510   9.423  0.00  0.00    +0.000 NA
ENDBRANCH   9  10
BRANCH   9  16
ATOM     16  O   UNL     1      52.593   7.764  12.485  0.00  0.00    +0.000 OA
ATOM     17  H   UNL     1      52.330   8.014  13.393  0.00  0.00    +0.000 HD
ENDBRANCH   9  16
ENDBRANCH   6   9
ENDBRANCH   2   3
BRANCH   2  18
ATOM     18  N   UNL     1      45.654   7.053  12.607  0.00  0.00    +0.000 N 
ATOM     19  C   UNL     1      44.743   6.759  11.634  0.00  0.00    +0.000 C 
ATOM     20  O   UNL     1      44.176   7.623  10.972  0.00  0.00    +0.000 OA
ATOM     21  H   UNL     1      46.166   6.292  13.038  0.00  0.00    +0.000 HD
BRANCH  19  22
ATOM     22  C   UNL     1      44.448   5.330  11.452  0.00  0.00    +0.000 A 
ATOM     23  C   UNL     1      43.684   4.651  12.390  0.00  0.00    +0.000 A 
ATOM     24  S   UNL     1      43.429   3.010  12.000  0.00  0.00    +0.000 S 
ATOM     25  C   UNL     1      44.301   3.159  10.547  0.00  0.00    +0.000 A 
ATOM     26  N   UNL     1      44.430   2.110   9.698  0.00  0.00    +0.000 NA
ATOM     27  C   UNL     1      45.098   2.369   8.618  0.00  0.00    +0.000 A 
ATOM     28  N   UNL     1      45.667   3.586   8.304  0.00  0.00    +0.000 N 
ATOM     29  C   UNL     1      46.419   3.764   7.081  0.00  0.00    +0.000 C 
ATOM     30  C   UNL     1      45.585   4.672   9.171  0.00  0.00    +0.000 A 
ATOM     31  O   UNL     1      46.146   5.738   8.941  0.00  0.00    +0.000 OA
ATOM     32  C   UNL     1      44.813   4.432  10.378  0.00  0.00    +0.000 A 
ENDBRANCH  19  22
ENDBRANCH   2  18
TORSDOF 6
ENDMDL
MODEL 9
REMARK VINA RESULT:    -6.456      4.267      5.919
REMARK INTER + INTRA:          -9.644
REMARK INTER:                  -8.290
REMARK INTRA:                  -1.354
REMARK UNBOUND:                -1.112
REMARK  Name = 
REMARK  8 active torsions:
REMARK  status: ('A' for Active; 'I' for Inactive)
REMARK    1  A    between atoms: C_1  and  C_2
REMARK    2  A    between atoms: C_2  and  N_3
REMARK    3  A    between atoms: C_2  and  C_17
REMARK    4  A    between atoms: C_4  and  C_6
REMARK    5  A    between atoms: N_12  and  C_13
REMARK    6  A    between atoms: C_20  and  C_21
REMARK    7  A    between atoms: C_21  and  O_22
REMARK    8  A    between atoms: C_21  and  C_23
REMARK                            x       y       z     vdW  Elec       q    Type
REMARK                         _______ _______ _______ _____ _____    ______ ____
ROOT
ATOM      1  C   UNL     1      49.037   6.704  15.546  0.00  0.00    +0.000 C 
ATOM      2  C   UNL     1      48.791   7.483  14.253  0.00  0.00    +0.000 C 
ENDROOT
BRANCH   2   3
ATOM      3  C   UNL     1      47.716   6.830  13.402  0.00  0.00    +0.000 A 
ATOM      4  C   UNL     1      47.369   5.490  13.617  0.00  0.00    +0.000 A 
ATOM      5  C   UNL     1      46.313   4.906  12.911  0.00  0.00    +0.000 A 
ATOM      6  C   UNL     1      45.571   5.652  11.982  0.00  0.00    +0.000 A 
ATOM      7  C   UNL     1      45.952   6.978  11.736  0.00  0.00    +0.000 A 
ATOM      8  C   UNL     1      47.007   7.561  12.437  0.00  0.00    +0.000 A 
BRANCH   6   9
ATOM      9  C   UNL     1      44.405   5.025  11.242  0.00  0.00    +0.000 C 
BRANCH   9  10
ATOM     10  C   UNL     1      44.857   4.131  10.097  0.00  0.00    +0.000 A 
ATOM     11  C   UNL     1      45.508   4.675   8.991  0.00  0.00    +0.000 A 
ATOM     12  C   UNL     1      45.835   3.836   7.929  0.00  0.00    +0.000 A 
ATOM     13  C   UNL     1      45.508   2.488   7.999  0.00  0.00    +0.000 A 
ATOM     14  C   UNL     1      44.888   2.020   9.146  0.00  0.00    +0.000 A 
ATOM     15  N   UNL     1      44.566   2.802  10.200  0.00  0.00    +0.000 NA
ENDBRANCH   9  10
BRANCH   9  16
ATOM     16  O   UNL     1      43.551   6.061  10.734  0.00  0.00    +0.000 OA
ATOM     17  H   UNL     1      42.706   5.928  11.209  0.00  0.00    +0.000 HD
ENDBRANCH   9  16
ENDBRANCH   6   9
ENDBRANCH   2   3
BRANCH   2  18
ATOM     18  N   UNL     1      50.003   7.586  13.465  0.00  0.00    +0.000 N 
ATOM     19  C   UNL     1      50.512   8.757  12.980  0.00  0.00    +0.000 C 
ATOM     20  O   UNL     1      49.913   9.824  13.060  0.00  0.00    +0.000 OA
ATOM     21  H   UNL     1      50.595   6.764  13.466  0.00  0.00    +0.000 HD
BRANCH  19  22
ATOM     22  C   UNL     1      51.816   8.652  12.310  0.00  0.00    +0.000 A 
ATOM     23  C   UNL     1      51.927   8.921  10.953  0.00  0.00    +0.000 A 
ATOM     24  S   UNL     1      53.518   8.768  10.357  0.00  0.00    +0.000 S 
ATOM     25  C   UNL     1      54.120   8.372  11.899  0.00  0.00    +0.000 A 
ATOM     26  N   UNL     1      55.444   8.155  12.098  0.00  0.00    +0.000 NA
ATOM     27  C   UNL     1      55.767   7.887  13.324  0.00  0.00    +0.000 A 
ATOM     28  N   UNL     1      54.885   7.800  14.381  0.00  0.00    +0.000 N 
ATOM     29  C   UNL     1      55.347   7.466  15.711  0.00  0.00    +0.000 C 
ATOM     30  C   UNL     1      53.517   7.980  14.203  0.00  0.00    +0.000 A 
ATOM     31  O   UNL     1      52.712   7.835  15.118  0.00  0.00    +0.000 OA
ATOM     32  C   UNL     1      53.117   8.319  12.848  0.00  0.00    +0.000 A 
ENDBRANCH  19  22
ENDBRANCH   2  18
TORSDOF 6
ENDMDL
