MODEL 1
REMARK VINA RESULT:    -7.934      0.000      0.000
REMARK INTER + INTRA:         -14.346
REMARK INTER:                 -12.803
REMARK INTRA:                  -1.542
REMARK UNBOUND:                -1.542
REMARK  Name = 
REMARK  11 active torsions:
REMARK  status: ('A' for Active; 'I' for Inactive)
REMARK    1  A    between atoms: N_1  and  C_2
REMARK    2  A    between atoms: C_2  and  C_3
REMARK    3  A    between atoms: C_3  and  C_4
REMARK    4  A    between atoms: C_4  and  N_5
REMARK    5  A    between atoms: C_4  and  C_22
REMARK    6  A    between atoms: N_5  and  C_6
REMARK    7  A    between atoms: C_6  and  C_7
REMARK    8  A    between atoms: C_10  and  C_11
REMARK    9  A    between atoms: C_11  and  N_12
REMARK   10  A    between atoms: N_12  and  C_13
REMARK   11  A    between atoms: C_13  and  C_14
REMARK                            x       y       z     vdW  Elec       q    Type
REMARK                         _______ _______ _______ _____ _____    ______ ____
ROOT
ATOM      1  N   UNL     1      47.410   5.242  15.845  0.00  0.00    +0.000 NA
ATOM      2  H   UNL     1      46.984   4.316  15.953  0.00  0.00    +0.000 HD
ENDROOT
BRANCH   1   3
ATOM      3  C   UNL     1      48.736   5.204  16.490  0.00  0.00    +0.000 C 
BRANCH   3   4
ATOM      4  C   UNL     1      48.872   6.539  17.203  0.00  0.00    +0.000 A 
ATOM      5  C   UNL     1      49.667   7.599  16.788  0.00  0.00    +0.000 A 
ATOM      6  S   UNL     1      50.062   8.661  18.073  0.00  0.00    +0.000 S 
ATOM      7  C   UNL     1      49.057   7.814  19.153  0.00  0.00    +0.000 A 
ATOM      8  N   UNL     1      49.009   8.112  20.481  0.00  0.00    +0.000 NA
ATOM      9  C   UNL     1      48.127   7.438  21.139  0.00  0.00    +0.000 A 
ATOM     10  N   UNL     1      47.259   6.533  20.580  0.00  0.00    +0.000 N 
ATOM     11  C   UNL     1      47.266   6.199  19.252  0.00  0.00    +0.000 A 
ATOM     12  O   UNL     1      46.411   5.479  18.752  0.00  0.00    +0.000 OA
ATOM     13  C   UNL     1      48.327   6.842  18.498  0.00  0.00    +0.000 A 
ATOM     14  H   UNL     1      46.517   6.130  21.139  0.00  0.00    +0.000 HD
ENDBRANCH   3   4
BRANCH   3  15
ATOM     15  C   UNL     1      49.037   3.949  17.327  0.00  0.00    +0.000 C 
BRANCH  15  16
ATOM     16  C   UNL     1      48.200   2.695  17.076  0.00  0.00    +0.000 C 
BRANCH  16  17
ATOM     17  N   UNL     1      46.855   2.761  17.639  0.00  0.00    +0.000 NA
ATOM     18  H   UNL     1      46.628   3.734  17.846  0.00  0.00    +0.000 HD
ATOM     19  H   UNL     1      46.831   2.280  18.540  0.00  0.00    +0.000 HD
ENDBRANCH  16  17
ENDBRANCH  15  16
ENDBRANCH   3  15
ENDBRANCH   1   3
BRANCH   1  20
ATOM     20  C   UNL     1      47.478   5.538  14.411  0.00  0.00    +0.000 C 
BRANCH  20  21
ATOM     21  C   UNL     1      46.261   5.108  13.598  0.00  0.00    +0.000 A 
ATOM     22  N   UNL     1      45.556   6.073  12.971  0.00  0.00    +0.000 NA
ATOM     23  C   UNL     1      44.689   5.667  12.022  0.00  0.00    +0.000 A 
ATOM     24  C   UNL     1      44.502   4.348  11.661  0.00  0.00    +0.000 A 
ATOM     25  C   UNL     1      45.199   3.440  12.430  0.00  0.00    +0.000 A 
ATOM     26  N   UNL     1      46.081   3.783  13.392  0.00  0.00    +0.000 NA
BRANCH  24  27
ATOM     27  C   UNL     1      43.657   3.952  10.489  0.00  0.00    +0.000 C 
BRANCH  27  28
ATOM     28  N   UNL     1      44.402   3.065   9.600  0.00  0.00    +0.000 NA
ATOM     29  H   UNL     1      43.804   2.290   9.304  0.00  0.00    +0.000 HD
BRANCH  28  30
ATOM     30  C   UNL     1      44.906   3.747   8.417  0.00  0.00    +0.000 C 
BRANCH  30  31
ATOM     31  C   UNL     1      45.927   2.897   7.692  0.00  0.00    +0.000 A 
ATOM     32  C   UNL     1      46.591   3.375   6.559  0.00  0.00    +0.000 A 
ATOM     33  C   UNL     1      47.527   2.552   5.944  0.00  0.00    +0.000 A 
ATOM     34  N   UNL     1      47.841   1.312   6.373  0.00  0.00    +0.000 NA
ATOM     35  C   UNL     1      47.186   0.869   7.468  0.00  0.00    +0.000 A 
ATOM     36  C   UNL     1      46.240   1.613   8.154  0.00  0.00    +0.000 A 
ENDBRANCH  30  31
ENDBRANCH  28  30
ENDBRANCH  27  28
ENDBRANCH  24  27
ENDBRANCH  20  21
ENDBRANCH   1  20
TORSDOF 11
ENDMDL
MODEL 2
REMARK VINA RESULT:    -7.705      1.869      2.481
REMARK INTER + INTRA:         -13.976
REMARK INTER:                 -12.986
REMARK INTRA:                  -0.990
REMARK UNBOUND:                -1.542
REMARK  Name = 
REMARK  11 active torsions:
REMARK  status: ('A' for Active; 'I' for Inactive)
REMARK    1  A    between atoms: N_1  and  C_2
REMARK    2  A    between atoms: C_2  and  C_3
REMARK    3  A    between atoms: C_3  and  C_4
REMARK    4  A    between atoms: C_4  and  N_5
REMARK    5  A    between atoms: C_4  and  C_22
REMARK    6  A    between atoms: N_5  and  C_6
REMARK    7  A    between atoms: C_6  and  C_7
REMARK    8  A    between atoms: C_10  and  C_11
REMARK    9  A    between atoms: C_11  and  N_12
REMARK   10  A    between atoms: N_12  and  C_13
REMARK   11  A    between atoms: C_13  and  C_14
REMARK                            x       y       z     vdW  Elec       q    Type
REMARK                         _______ _______ _______ _____ _____    ______ ____
ROOT
ATOM      1  N   UNL     1      47.900   5.232  15.941  0.00  0.00    +0.000 NA
ATOM      2  H   UNL     1      47.227   5.906  16.320  0.00  0.00    +0.000 HD
ENDROOT
BRANCH   1   3
ATOM      3  C   UNL     1      48.766   4.788  17.049  0.00  0.00    +0.000 C 
BRANCH   3   4
ATOM      4  C   UNL     1      48.625   5.857  18.120  0.00  0.00    +0.000 A 
ATOM      5  C   UNL     1      48.322   5.627  19.455  0.00  0.00    +0.000 A 
ATOM      6  S   UNL     1      47.652   7.006  20.220  0.00  0.00    +0.000 S 
ATOM      7  C   UNL     1      47.904   7.962  18.835  0.00  0.00    +0.000 A 
ATOM      8  N   UNL     1      47.445   9.241  18.748  0.00  0.00    +0.000 NA
ATOM      9  C   UNL     1      47.802   9.854  17.669  0.00  0.00    +0.000 A 
ATOM     10  N   UNL     1      48.614   9.320  16.700  0.00  0.00    +0.000 N 
ATOM     11  C   UNL     1      49.101   8.040  16.741  0.00  0.00    +0.000 A 
ATOM     12  O   UNL     1      49.915   7.621  15.928  0.00  0.00    +0.000 OA
ATOM     13  C   UNL     1      48.620   7.274  17.876  0.00  0.00    +0.000 A 
ATOM     14  H   UNL     1      48.947   9.901  15.940  0.00  0.00    +0.000 HD
ENDBRANCH   3   4
BRANCH   3  15
ATOM     15  C   UNL     1      48.571   3.332  17.508  0.00  0.00    +0.000 C 
BRANCH  15  16
ATOM     16  C   UNL     1      49.736   2.358  17.335  0.00  0.00    +0.000 C 
BRANCH  16  17
ATOM     17  N   UNL     1      49.771   1.705  16.030  0.00  0.00    +0.000 NA
ATOM     18  H   UNL     1      48.943   1.118  15.930  0.00  0.00    +0.000 HD
ATOM     19  H   UNL     1      50.565   1.064  15.983  0.00  0.00    +0.000 HD
ENDBRANCH  16  17
ENDBRANCH  15  16
ENDBRANCH   3  15
ENDBRANCH   1   3
BRANCH   1  20
ATOM     20  C   UNL     1      47.140   4.136  15.334  0.00  0.00    +0.000 C 
BRANCH  20  21
ATOM     21  C   UNL     1      46.735   4.349  13.878  0.00  0.00    +0.000 A 
ATOM     22  N   UNL     1      46.046   3.362  13.270  0.00  0.00    +0.000 NA
ATOM     23  C   UNL     1      45.434   3.679  12.111  0.00  0.00    +0.000 A 
ATOM     24  C   UNL     1      45.467   4.934  11.539  0.00  0.00    +0.000 A 
ATOM     25  C   UNL     1      46.278   5.839  12.191  0.00  0.00    +0.000 A 
ATOM     26  N   UNL     1      46.915   5.583  13.354  0.00  0.00    +0.000 NA
BRANCH  24  27
ATOM     27  C   UNL     1      44.638   5.290  10.343  0.00  0.00    +0.000 C 
BRANCH  27  28
ATOM     28  N   UNL     1      45.354   4.966   9.112  0.00  0.00    +0.000 NA
ATOM     29  H   UNL     1      46.331   4.756   9.326  0.00  0.00    +0.000 HD
BRANCH  28  30
ATOM     30  C   UNL     1      44.775   3.833   8.404  0.00  0.00    +0.000 C 
BRANCH  30  31
ATOM     31  C   UNL     1      45.853   2.944   7.826  0.00  0.00    +0.000 A 
ATOM     32  C   UNL     1      45.990   1.615   8.235  0.00  0.00    +0.000 A 
ATOM     33  C   UNL     1      46.991   0.843   7.658  0.00  0.00    +0.000 A 
ATOM     34  N   UNL     1      47.849   1.297   6.720  0.00  0.00    +0.000 NA
ATOM     35  C   UNL     1      47.702   2.585   6.341  0.00  0.00    +0.000 A 
ATOM     36  C   UNL     1      46.733   3.433   6.852  0.00  0.00    +0.000 A 
ENDBRANCH  30  31
ENDBRANCH  28  30
ENDBRANCH  27  28
ENDBRANCH  24  27
ENDBRANCH  20  21
ENDBRANCH   1  20
TORSDOF 11
ENDMDL
MODEL 3
REMARK VINA RESULT:    -7.587      2.177      3.687
REMARK INTER + INTRA:         -13.786
REMARK INTER:                 -12.398
REMARK INTRA:                  -1.388
REMARK UNBOUND:                -1.542
REMARK  Name = 
REMARK  11 active torsions:
REMARK  status: ('A' for Active; 'I' for Inactive)
REMARK    1  A    between atoms: N_1  and  C_2
REMARK    2  A    between atoms: C_2  and  C_3
REMARK    3  A    between atoms: C_3  and  C_4
REMARK    4  A    between atoms: C_4  and  N_5
REMARK    5  A    between atoms: C_4  and  C_22
REMARK    6  A    between atoms: N_5  and  C_6
REMARK    7  A    between atoms: C_6  and  C_7
REMARK    8  A    between atoms: C_10  and  C_11
REMARK    9  A    between atoms: C_11  and  N_12
REMARK   10  A    between atoms: N_12  and  C_13
REMARK   11  A    between atoms: C_13  and  C_14
REMARK                            x       y       z     vdW  Elec       q    Type
REMARK                         _______ _______ _______ _____ _____    ______ ____
ROOT
ATOM      1  N   UNL     1      47.360   5.695  15.594  0.00  0.00    +0.000 NA
ATOM      2  H   UNL     1      46.725   5.737  16.398  0.00  0.00    +0.000 HD
ENDROOT
BRANCH   1   3
ATOM      3  C   UNL     1      48.726   5.955  16.083  0.00  0.00    +0.000 C 
BRANCH   3   4
ATOM      4  C   UNL     1      49.012   7.403  15.719  0.00  0.00    +0.000 A 
ATOM      5  C   UNL     1      49.278   8.425  16.621  0.00  0.00    +0.000 A 
ATOM      6  S   UNL     1      48.952   9.974  15.967  0.00  0.00    +0.000 S 
ATOM      7  C   UNL     1      48.609   9.314  14.437  0.00  0.00    +0.000 A 
ATOM      8  N   UNL     1      48.134  10.075  13.412  0.00  0.00    +0.000 NA
ATOM      9  C   UNL     1      48.016   9.438  12.296  0.00  0.00    +0.000 A 
ATOM     10  N   UNL     1      48.376   8.127  12.103  0.00  0.00    +0.000 N 
ATOM     11  C   UNL     1      48.858   7.320  13.100  0.00  0.00    +0.000 A 
ATOM     12  O   UNL     1      49.281   6.192  12.884  0.00  0.00    +0.000 OA
ATOM     13  C   UNL     1      48.888   7.963  14.401  0.00  0.00    +0.000 A 
ATOM     14  H   UNL     1      48.365   7.729  11.172  0.00  0.00    +0.000 HD
ENDBRANCH   3   4
BRANCH   3  15
ATOM     15  C   UNL     1      49.002   5.552  17.543  0.00  0.00    +0.000 C 
BRANCH  15  16
ATOM     16  C   UNL     1      47.907   5.800  18.580  0.00  0.00    +0.000 C 
BRANCH  16  17
ATOM     17  N   UNL     1      46.692   5.024  18.353  0.00  0.00    +0.000 NA
ATOM     18  H   UNL     1      46.884   4.298  17.662  0.00  0.00    +0.000 HD
ATOM     19  H   UNL     1      45.974   5.616  17.932  0.00  0.00    +0.000 HD
ENDBRANCH  16  17
ENDBRANCH  15  16
ENDBRANCH   3  15
ENDBRANCH   1   3
BRANCH   1  20
ATOM     20  C   UNL     1      47.213   4.372  14.980  0.00  0.00    +0.000 C 
BRANCH  20  21
ATOM     21  C   UNL     1      46.524   4.356  13.619  0.00  0.00    +0.000 A 
ATOM     22  N   UNL     1      46.111   3.164  13.141  0.00  0.00    +0.000 NA
ATOM     23  C   UNL     1      45.245   3.195  12.109  0.00  0.00    +0.000 A 
ATOM     24  C   UNL     1      44.762   4.356  11.541  0.00  0.00    +0.000 A 
ATOM     25  C   UNL     1      45.321   5.513  12.041  0.00  0.00    +0.000 A 
ATOM     26  N   UNL     1      46.192   5.548  13.072  0.00  0.00    +0.000 NA
BRANCH  24  27
ATOM     27  C   UNL     1      43.674   4.350  10.511  0.00  0.00    +0.000 C 
BRANCH  27  28
ATOM     28  N   UNL     1      43.959   3.362   9.474  0.00  0.00    +0.000 NA
ATOM     29  H   UNL     1      43.086   2.953   9.136  0.00  0.00    +0.000 HD
BRANCH  28  30
ATOM     30  C   UNL     1      44.681   3.926   8.341  0.00  0.00    +0.000 C 
BRANCH  30  31
ATOM     31  C   UNL     1      45.782   2.997   7.881  0.00  0.00    +0.000 A 
ATOM     32  C   UNL     1      45.791   1.649   8.248  0.00  0.00    +0.000 A 
ATOM     33  C   UNL     1      46.822   0.842   7.783  0.00  0.00    +0.000 A 
ATOM     34  N   UNL     1      47.826   1.279   6.993  0.00  0.00    +0.000 NA
ATOM     35  C   UNL     1      47.800   2.585   6.653  0.00  0.00    +0.000 A 
ATOM     36  C   UNL     1      46.814   3.469   7.060  0.00  0.00    +0.000 A 
ENDBRANCH  30  31
ENDBRANCH  28  30
ENDBRANCH  27  28
ENDBRANCH  24  27
ENDBRANCH  20  21
ENDBRANCH   1  20
TORSDOF 11
ENDMDL
MODEL 4
REMARK VINA RESULT:    -7.465      1.616      2.708
REMARK INTER + INTRA:         -13.590
REMARK INTER:                 -12.052
REMARK INTRA:                  -1.538
REMARK UNBOUND:                -1.542
REMARK  Name = 
REMARK  11 active torsions:
REMARK  status: ('A' for Active; 'I' for Inactive)
REMARK    1  A    between atoms: N_1  and  C_2
REMARK    2  A    between atoms: C_2  and  C_3
REMARK    3  A    between atoms: C_3  and  C_4
REMARK    4  A    between atoms: C_4  and  N_5
REMARK    5  A    between atoms: C_4  and  C_22
REMARK    6  A    between atoms: N_5  and  C_6
REMARK    7  A    between atoms: C_6  and  C_7
REMARK    8  A    between atoms: C_10  and  C_11
REMARK    9  A    between atoms: C_11  and  N_12
REMARK   10  A    between atoms: N_12  and  C_13
REMARK   11  A    between atoms: C_13  and  C_14
REMARK                            x       y       z     vdW  Elec       q    Type
REMARK                         _______ _______ _______ _____ _____    ______ ____
ROOT
ATOM      1  N   UNL     1      48.631   5.868  14.897  0.00  0.00    +0.000 NA
ATOM      2  H   UNL     1      48.650   6.321  13.978  0.00  0.00    +0.000 HD
ENDROOT
BRANCH   1   3
ATOM      3  C   UNL     1      48.696   6.926  15.923  0.00  0.00    +0.000 C 
BRANCH   3   4
ATOM      4  C   UNL     1      49.422   6.297  17.100  0.00  0.00    +0.000 A 
ATOM      5  C   UNL     1      50.548   5.488  17.016  0.00  0.00    +0.000 A 
ATOM      6  S   UNL     1      50.736   4.486  18.392  0.00  0.00    +0.000 S 
ATOM      7  C   UNL     1      49.421   5.226  19.177  0.00  0.00    +0.000 A 
ATOM      8  N   UNL     1      48.940   4.771  20.367  0.00  0.00    +0.000 NA
ATOM      9  C   UNL     1      48.002   5.501  20.869  0.00  0.00    +0.000 A 
ATOM     10  N   UNL     1      47.539   6.668  20.313  0.00  0.00    +0.000 N 
ATOM     11  C   UNL     1      47.989   7.169  19.120  0.00  0.00    +0.000 A 
ATOM     12  O   UNL     1      47.649   8.267  18.699  0.00  0.00    +0.000 OA
ATOM     13  C   UNL     1      48.956   6.310  18.460  0.00  0.00    +0.000 A 
ATOM     14  H   UNL     1      46.885   7.249  20.823  0.00  0.00    +0.000 HD
ENDBRANCH   3   4
BRANCH   3  15
ATOM     15  C   UNL     1      49.225   8.289  15.443  0.00  0.00    +0.000 C 
BRANCH  15  16
ATOM     16  C   UNL     1      48.216   9.314  14.924  0.00  0.00    +0.000 C 
BRANCH  16  17
ATOM     17  N   UNL     1      47.055   8.719  14.268  0.00  0.00    +0.000 NA
ATOM     18  H   UNL     1      46.928   9.158  13.356  0.00  0.00    +0.000 HD
ATOM     19  H   UNL     1      46.208   8.939  14.795  0.00  0.00    +0.000 HD
ENDBRANCH  16  17
ENDBRANCH  15  16
ENDBRANCH   3  15
ENDBRANCH   1   3
BRANCH   1  20
ATOM     20  C   UNL     1      47.403   5.070  14.974  0.00  0.00    +0.000 C 
BRANCH  20  21
ATOM     21  C   UNL     1      46.712   4.805  13.641  0.00  0.00    +0.000 A 
ATOM     22  N   UNL     1      46.269   3.552  13.404  0.00  0.00    +0.000 NA
ATOM     23  C   UNL     1      45.402   3.402  12.383  0.00  0.00    +0.000 A 
ATOM     24  C   UNL     1      44.948   4.441  11.597  0.00  0.00    +0.000 A 
ATOM     25  C   UNL     1      45.538   5.659  11.861  0.00  0.00    +0.000 A 
ATOM     26  N   UNL     1      46.410   5.874  12.869  0.00  0.00    +0.000 NA
BRANCH  24  27
ATOM     27  C   UNL     1      43.859   4.261  10.583  0.00  0.00    +0.000 C 
BRANCH  27  28
ATOM     28  N   UNL     1      44.243   3.256   9.596  0.00  0.00    +0.000 NA
ATOM     29  H   UNL     1      43.425   2.705   9.327  0.00  0.00    +0.000 HD
BRANCH  28  30
ATOM     30  C   UNL     1      44.829   3.839   8.397  0.00  0.00    +0.000 C 
BRANCH  30  31
ATOM     31  C   UNL     1      45.887   2.930   7.811  0.00  0.00    +0.000 A 
ATOM     32  C   UNL     1      45.998   1.597   8.215  0.00  0.00    +0.000 A 
ATOM     33  C   UNL     1      46.982   0.808   7.631  0.00  0.00    +0.000 A 
ATOM     34  N   UNL     1      47.845   1.248   6.691  0.00  0.00    +0.000 NA
ATOM     35  C   UNL     1      47.722   2.540   6.318  0.00  0.00    +0.000 A 
ATOM     36  C   UNL     1      46.772   3.406   6.836  0.00  0.00    +0.000 A 
ENDBRANCH  30  31
ENDBRANCH  28  30
ENDBRANCH  27  28
ENDBRANCH  24  27
ENDBRANCH  20  21
ENDBRANCH   1  20
TORSDOF 11
ENDMDL
MODEL 5
REMARK VINA RESULT:    -7.287      2.656      3.521
REMARK INTER + INTRA:         -13.302
REMARK INTER:                 -11.748
REMARK INTRA:                  -1.554
REMARK UNBOUND:                -1.542
REMARK  Name = 
REMARK  11 active torsions:
REMARK  status: ('A' for Active; 'I' for Inactive)
REMARK    1  A    between atoms: N_1  and  C_2
REMARK    2  A    between atoms: C_2  and  C_3
REMARK    3  A    between atoms: C_3  and  C_4
REMARK    4  A    between atoms: C_4  and  N_5
REMARK    5  A    between atoms: C_4  and  C_22
REMARK    6  A    between atoms: N_5  and  C_6
REMARK    7  A    between atoms: C_6  and  C_7
REMARK    8  A    between atoms: C_10  and  C_11
REMARK    9  A    between atoms: C_11  and  N_12
REMARK   10  A    between atoms: N_12  and  C_13
REMARK   11  A    between atoms: C_13  and  C_14
REMARK                            x       y       z     vdW  Elec       q    Type
REMARK                         _______ _______ _______ _____ _____    ______ ____
ROOT
ATOM      1  N   UNL     1      48.202   4.430  16.309  0.00  0.00    +0.000 NA
ATOM      2  H   UNL     1      47.544   5.194  16.493  0.00  0.00    +0.000 HD
ENDROOT
BRANCH   1   3
ATOM      3  C   UNL     1      48.622   3.874  17.609  0.00  0.00    +0.000 C 
BRANCH   3   4
ATOM      4  C   UNL     1      50.074   3.469  17.421  0.00  0.00    +0.000 A 
ATOM      5  C   UNL     1      50.549   2.165  17.373  0.00  0.00    +0.000 A 
ATOM      6  S   UNL     1      52.213   2.061  17.761  0.00  0.00    +0.000 S 
ATOM      7  C   UNL     1      52.355   3.754  17.841  0.00  0.00    +0.000 A 
ATOM      8  N   UNL     1      53.501   4.365  18.252  0.00  0.00    +0.000 NA
ATOM      9  C   UNL     1      53.470   5.652  18.164  0.00  0.00    +0.000 A 
ATOM     10  N   UNL     1      52.420   6.376  17.658  0.00  0.00    +0.000 N 
ATOM     11  C   UNL     1      51.247   5.810  17.231  0.00  0.00    +0.000 A 
ATOM     12  O   UNL     1      50.369   6.459  16.677  0.00  0.00    +0.000 OA
ATOM     13  C   UNL     1      51.192   4.373  17.430  0.00  0.00    +0.000 A 
ATOM     14  H   UNL     1      52.514   7.373  17.511  0.00  0.00    +0.000 HD
ENDBRANCH   3   4
BRANCH   3  15
ATOM     15  C   UNL     1      48.310   4.744  18.840  0.00  0.00    +0.000 C 
BRANCH  15  16
ATOM     16  C   UNL     1      47.224   5.812  18.714  0.00  0.00    +0.000 C 
BRANCH  16  17
ATOM     17  N   UNL     1      47.692   7.065  18.131  0.00  0.00    +0.000 NA
ATOM     18  H   UNL     1      47.207   7.223  17.247  0.00  0.00    +0.000 HD
ATOM     19  H   UNL     1      48.681   6.987  17.886  0.00  0.00    +0.000 HD
ENDBRANCH  16  17
ENDBRANCH  15  16
ENDBRANCH   3  15
ENDBRANCH   1   3
BRANCH   1  20
ATOM     20  C   UNL     1      47.521   3.450  15.459  0.00  0.00    +0.000 C 
BRANCH  20  21
ATOM     21  C   UNL     1      47.078   3.965  14.094  0.00  0.00    +0.000 A 
ATOM     22  N   UNL     1      46.190   3.220  13.402  0.00  0.00    +0.000 NA
ATOM     23  C   UNL     1      45.579   3.822  12.362  0.00  0.00    +0.000 A 
ATOM     24  C   UNL     1      45.802   5.131  11.988  0.00  0.00    +0.000 A 
ATOM     25  C   UNL     1      46.797   5.768  12.699  0.00  0.00    +0.000 A 
ATOM     26  N   UNL     1      47.444   5.221  13.750  0.00  0.00    +0.000 NA
BRANCH  24  27
ATOM     27  C   UNL     1      44.982   5.813  10.935  0.00  0.00    +0.000 C 
BRANCH  27  28
ATOM     28  N   UNL     1      45.429   5.413   9.603  0.00  0.00    +0.000 NA
ATOM     29  H   UNL     1      46.423   5.179   9.628  0.00  0.00    +0.000 HD
BRANCH  28  30
ATOM     30  C   UNL     1      44.691   4.271   9.081  0.00  0.00    +0.000 C 
BRANCH  30  31
ATOM     31  C   UNL     1      45.615   3.302   8.378  0.00  0.00    +0.000 A 
ATOM     32  C   UNL     1      46.559   3.747   7.449  0.00  0.00    +0.000 A 
ATOM     33  C   UNL     1      47.388   2.810   6.845  0.00  0.00    +0.000 A 
ATOM     34  N   UNL     1      47.343   1.486   7.099  0.00  0.00    +0.000 NA
ATOM     35  C   UNL     1      46.422   1.076   7.998  0.00  0.00    +0.000 A 
ATOM     36  C   UNL     1      45.552   1.931   8.657  0.00  0.00    +0.000 A 
ENDBRANCH  30  31
ENDBRANCH  28  30
ENDBRANCH  27  28
ENDBRANCH  24  27
ENDBRANCH  20  21
ENDBRANCH   1  20
TORSDOF 11
ENDMDL
MODEL 6
REMARK VINA RESULT:    -7.066      1.813      2.350
REMARK INTER + INTRA:         -12.945
REMARK INTER:                 -11.703
REMARK INTRA:                  -1.242
REMARK UNBOUND:                -1.542
REMARK  Name = 
REMARK  11 active torsions:
REMARK  status: ('A' for Active; 'I' for Inactive)
REMARK    1  A    between atoms: N_1  and  C_2
REMARK    2  A    between atoms: C_2  and  C_3
REMARK    3  A    between atoms: C_3  and  C_4
REMARK    4  A    between atoms: C_4  and  N_5
REMARK    5  A    between atoms: C_4  and  C_22
REMARK    6  A    between atoms: N_5  and  C_6
REMARK    7  A    between atoms: C_6  and  C_7
REMARK    8  A    between atoms: C_10  and  C_11
REMARK    9  A    between atoms: C_11  and  N_12
REMARK   10  A    between atoms: N_12  and  C_13
REMARK   11  A    between atoms: C_13  and  C_14
REMARK                            x       y       z     vdW  Elec       q    Type
REMARK                         _______ _______ _______ _____ _____    ______ ____
ROOT
ATOM      1  N   UNL     1      47.809   5.685  16.187  0.00  0.00    +0.000 NA
ATOM      2  H   UNL     1      47.296   4.840  15.915  0.00  0.00    +0.000 HD
ENDROOT
BRANCH   1   3
ATOM      3  C   UNL     1      48.940   5.271  17.037  0.00  0.00    +0.000 C 
BRANCH   3   4
ATOM      4  C   UNL     1      48.913   6.217  18.227  0.00  0.00    +0.000 A 
ATOM      5  C   UNL     1      47.776   6.610  18.920  0.00  0.00    +0.000 A 
ATOM      6  S   UNL     1      48.000   8.087  19.758  0.00  0.00    +0.000 S 
ATOM      7  C   UNL     1      49.649   8.135  19.340  0.00  0.00    +0.000 A 
ATOM      8  N   UNL     1      50.437   9.207  19.632  0.00  0.00    +0.000 NA
ATOM      9  C   UNL     1      51.681   9.041  19.330  0.00  0.00    +0.000 A 
ATOM     10  N   UNL     1      52.211   7.887  18.810  0.00  0.00    +0.000 N 
ATOM     11  C   UNL     1      51.462   6.783  18.499  0.00  0.00    +0.000 A 
ATOM     12  O   UNL     1      51.968   5.725  18.146  0.00  0.00    +0.000 OA
ATOM     13  C   UNL     1      50.038   6.972  18.707  0.00  0.00    +0.000 A 
ATOM     14  H   UNL     1      53.214   7.790  18.708  0.00  0.00    +0.000 HD
ENDBRANCH   3   4
BRANCH   3  15
ATOM     15  C   UNL     1      49.018   3.769  17.361  0.00  0.00    +0.000 C 
BRANCH  15  16
ATOM     16  C   UNL     1      47.939   2.850  16.790  0.00  0.00    +0.000 C 
BRANCH  16  17
ATOM     17  N   UNL     1      46.649   2.964  17.464  0.00  0.00    +0.000 NA
ATOM     18  H   UNL     1      46.760   3.539  18.300  0.00  0.00    +0.000 HD
ATOM     19  H   UNL     1      46.351   2.048  17.803  0.00  0.00    +0.000 HD
ENDBRANCH  16  17
ENDBRANCH  15  16
ENDBRANCH   3  15
ENDBRANCH   1   3
BRANCH   1  20
ATOM     20  C   UNL     1      48.233   6.364  14.959  0.00  0.00    +0.000 C 
BRANCH  20  21
ATOM     21  C   UNL     1      47.527   5.910  13.685  0.00  0.00    +0.000 A 
ATOM     22  N   UNL     1      46.670   4.873  13.781  0.00  0.00    +0.000 NA
ATOM     23  C   UNL     1      45.834   4.683  12.741  0.00  0.00    +0.000 A 
ATOM     24  C   UNL     1      45.804   5.484  11.618  0.00  0.00    +0.000 A 
ATOM     25  C   UNL     1      46.785   6.452  11.580  0.00  0.00    +0.000 A 
ATOM     26  N   UNL     1      47.650   6.693  12.588  0.00  0.00    +0.000 NA
BRANCH  24  27
ATOM     27  C   UNL     1      44.750   5.344  10.563  0.00  0.00    +0.000 C 
BRANCH  27  28
ATOM     28  N   UNL     1      45.363   5.136   9.254  0.00  0.00    +0.000 NA
ATOM     29  H   UNL     1      46.362   4.948   9.366  0.00  0.00    +0.000 HD
BRANCH  28  30
ATOM     30  C   UNL     1      44.760   4.034   8.517  0.00  0.00    +0.000 C 
BRANCH  30  31
ATOM     31  C   UNL     1      45.818   3.110   7.957  0.00  0.00    +0.000 A 
ATOM     32  C   UNL     1      46.799   3.582   7.081  0.00  0.00    +0.000 A 
ATOM     33  C   UNL     1      47.752   2.688   6.609  0.00  0.00    +0.000 A 
ATOM     34  N   UNL     1      47.793   1.381   6.943  0.00  0.00    +0.000 NA
ATOM     35  C   UNL     1      46.834   0.945   7.788  0.00  0.00    +0.000 A 
ATOM     36  C   UNL     1      45.844   1.757   8.317  0.00  0.00    +0.000 A 
ENDBRANCH  30  31
ENDBRANCH  28  30
ENDBRANCH  27  28
ENDBRANCH  24  27
ENDBRANCH  20  21
ENDBRANCH   1  20
TORSDOF 11
ENDMDL
MODEL 7
REMARK VINA RESULT:    -7.035      3.422      5.147
REMARK INTER + INTRA:         -12.895
REMARK INTER:                 -11.571
REMARK INTRA:                  -1.325
REMARK UNBOUND:                -1.542
REMARK  Name = 
REMARK  11 active torsions:
REMARK  status: ('A' for Active; 'I' for Inactive)
REMARK    1  A    between atoms: N_1  and  C_2
REMARK    2  A    between atoms: C_2  and  C_3
REMARK    3  A    between atoms: C_3  and  C_4
REMARK    4  A    between atoms: C_4  and  N_5
REMARK    5  A    between atoms: C_4  and  C_22
REMARK    6  A    between atoms: N_5  and  C_6
REMARK    7  A    between atoms: C_6  and  C_7
REMARK    8  A    between atoms: C_10  and  C_11
REMARK    9  A    between atoms: C_11  and  N_12
REMARK   10  A    between atoms: N_12  and  C_13
REMARK   11  A    between atoms: C_13  and  C_14
REMARK                            x       y       z     vdW  Elec       q    Type
REMARK                         _______ _______ _______ _____ _____    ______ ____
ROOT
ATOM      1  N   UNL     1      47.103   7.033  13.985  0.00  0.00    +0.000 NA
ATOM      2  H   UNL     1      47.324   7.595  14.814  0.00  0.00    +0.000 HD
ENDROOT
BRANCH   1   3
ATOM      3  C   UNL     1      48.068   7.389  12.929  0.00  0.00    +0.000 C 
BRANCH   3   4
ATOM      4  C   UNL     1      47.558   8.696  12.345  0.00  0.00    +0.000 A 
ATOM      5  C   UNL     1      48.224   9.913  12.387  0.00  0.00    +0.000 A 
ATOM      6  S   UNL     1      47.162  11.245  12.208  0.00  0.00    +0.000 S 
ATOM      7  C   UNL     1      45.837  10.218  11.916  0.00  0.00    +0.000 A 
ATOM      8  N   UNL     1      44.567  10.693  11.797  0.00  0.00    +0.000 NA
ATOM      9  C   UNL     1      43.697   9.793  11.485  0.00  0.00    +0.000 A 
ATOM     10  N   UNL     1      43.991   8.476  11.232  0.00  0.00    +0.000 N 
ATOM     11  C   UNL     1      45.251   7.949  11.337  0.00  0.00    +0.000 A 
ATOM     12  O   UNL     1      45.514   6.803  10.997  0.00  0.00    +0.000 OA
ATOM     13  C   UNL     1      46.240   8.902  11.809  0.00  0.00    +0.000 A 
ATOM     14  H   UNL     1      43.275   7.855  10.878  0.00  0.00    +0.000 HD
ENDBRANCH   3   4
BRANCH   3  15
ATOM     15  C   UNL     1      49.551   7.358  13.340  0.00  0.00    +0.000 C 
BRANCH  15  16
ATOM     16  C   UNL     1      49.892   7.492  14.824  0.00  0.00    +0.000 C 
BRANCH  16  17
ATOM     17  N   UNL     1      49.111   8.511  15.519  0.00  0.00    +0.000 NA
ATOM     18  H   UNL     1      49.146   9.380  14.984  0.00  0.00    +0.000 HD
ATOM     19  H   UNL     1      49.545   8.730  16.417  0.00  0.00    +0.000 HD
ENDBRANCH  16  17
ENDBRANCH  15  16
ENDBRANCH   3  15
ENDBRANCH   1   3
BRANCH   1  20
ATOM     20  C   UNL     1      47.172   5.621  14.373  0.00  0.00    +0.000 C 
BRANCH  20  21
ATOM     21  C   UNL     1      46.081   4.729  13.789  0.00  0.00    +0.000 A 
ATOM     22  N   UNL     1      44.845   5.255  13.663  0.00  0.00    +0.000 NA
ATOM     23  C   UNL     1      43.981   4.583  12.875  0.00  0.00    +0.000 A 
ATOM     24  C   UNL     1      44.295   3.423  12.199  0.00  0.00    +0.000 A 
ATOM     25  C   UNL     1      45.550   2.922  12.474  0.00  0.00    +0.000 A 
ATOM     26  N   UNL     1      46.460   3.546  13.252  0.00  0.00    +0.000 NA
BRANCH  24  27
ATOM     27  C   UNL     1      43.365   2.800  11.203  0.00  0.00    +0.000 C 
BRANCH  27  28
ATOM     28  N   UNL     1      44.121   2.176  10.120  0.00  0.00    +0.000 NA
ATOM     29  H   UNL     1      43.545   1.469   9.660  0.00  0.00    +0.000 HD
BRANCH  28  30
ATOM     30  C   UNL     1      44.571   3.136   9.122  0.00  0.00    +0.000 C 
BRANCH  30  31
ATOM     31  C   UNL     1      45.682   2.558   8.273  0.00  0.00    +0.000 A 
ATOM     32  C   UNL     1      46.455   3.373   7.442  0.00  0.00    +0.000 A 
ATOM     33  C   UNL     1      47.469   2.786   6.696  0.00  0.00    +0.000 A 
ATOM     34  N   UNL     1      47.761   1.468   6.721  0.00  0.00    +0.000 NA
ATOM     35  C   UNL     1      47.000   0.698   7.528  0.00  0.00    +0.000 A 
ATOM     36  C   UNL     1      45.969   1.188   8.314  0.00  0.00    +0.000 A 
ENDBRANCH  30  31
ENDBRANCH  28  30
ENDBRANCH  27  28
ENDBRANCH  24  27
ENDBRANCH  20  21
ENDBRANCH   1  20
TORSDOF 11
ENDMDL
MODEL 8
REMARK VINA RESULT:    -6.612      2.543      3.856
REMARK INTER + INTRA:         -12.213
REMARK INTER:                 -10.714
REMARK INTRA:                  -1.499
REMARK UNBOUND:                -1.542
REMARK  Name = 
REMARK  11 active torsions:
REMARK  status: ('A' for Active; 'I' for Inactive)
REMARK    1  A    between atoms: N_1  and  C_2
REMARK    2  A    between atoms: C_2  and  C_3
REMARK    3  A    between atoms: C_3  and  C_4
REMARK    4  A    between atoms: C_4  and  N_5
REMARK    5  A    between atoms: C_4  and  C_22
REMARK    6  A    between atoms: N_5  and  C_6
REMARK    7  A    between atoms: C_6  and  C_7
REMARK    8  A    between atoms: C_10  and  C_11
REMARK    9  A    between atoms: C_11  and  N_12
REMARK   10  A    between atoms: N_12  and  C_13
REMARK   11  A    between atoms: C_13  and  C_14
REMARK                            x       y       z     vdW  Elec       q    Type
REMARK                         _______ _______ _______ _____ _____    ______ ____
ROOT
ATOM      1  N   UNL     1      50.600   6.694  15.143  0.00  0.00    +0.000 NA
ATOM      2  H   UNL     1      51.394   6.723  14.495  0.00  0.00    +0.000 HD
ENDROOT
BRANCH   1   3
ATOM      3  C   UNL     1      51.132   6.805  16.514  0.00  0.00    +0.000 C 
BRANCH   3   4
ATOM      4  C   UNL     1      50.823   5.471  17.172  0.00  0.00    +0.000 A 
ATOM      5  C   UNL     1      51.748   4.472  17.447  0.00  0.00    +0.000 A 
ATOM      6  S   UNL     1      51.018   2.931  17.607  0.00  0.00    +0.000 S 
ATOM      7  C   UNL     1      49.458   3.597  17.470  0.00  0.00    +0.000 A 
ATOM      8  N   UNL     1      48.343   2.818  17.401  0.00  0.00    +0.000 NA
ATOM      9  C   UNL     1      47.238   3.483  17.394  0.00  0.00    +0.000 A 
ATOM     10  N   UNL     1      47.147   4.849  17.501  0.00  0.00    +0.000 N 
ATOM     11  C   UNL     1      48.236   5.676  17.573  0.00  0.00    +0.000 A 
ATOM     12  O   UNL     1      48.135   6.878  17.784  0.00  0.00    +0.000 OA
ATOM     13  C   UNL     1      49.503   4.977  17.457  0.00  0.00    +0.000 A 
ATOM     14  H   UNL     1      46.242   5.291  17.607  0.00  0.00    +0.000 HD
ENDBRANCH   3   4
BRANCH   3  15
ATOM     15  C   UNL     1      52.584   7.302  16.629  0.00  0.00    +0.000 C 
BRANCH  15  16
ATOM     16  C   UNL     1      53.576   6.893  15.540  0.00  0.00    +0.000 C 
BRANCH  16  17
ATOM     17  N   UNL     1      53.360   7.563  14.261  0.00  0.00    +0.000 NA
ATOM     18  H   UNL     1      53.956   8.390  14.214  0.00  0.00    +0.000 HD
ATOM     19  H   UNL     1      52.403   7.917  14.212  0.00  0.00    +0.000 HD
ENDBRANCH  16  17
ENDBRANCH  15  16
ENDBRANCH   3  15
ENDBRANCH   1   3
BRANCH   1  20
ATOM     20  C   UNL     1      49.695   7.791  14.789  0.00  0.00    +0.000 C 
BRANCH  20  21
ATOM     21  C   UNL     1      48.362   7.368  14.180  0.00  0.00    +0.000 A 
ATOM     22  N   UNL     1      47.477   8.340  13.877  0.00  0.00    +0.000 NA
ATOM     23  C   UNL     1      46.454   7.994  13.069  0.00  0.00    +0.000 A 
ATOM     24  C   UNL     1      46.281   6.731  12.541  0.00  0.00    +0.000 A 
ATOM     25  C   UNL     1      47.186   5.793  12.991  0.00  0.00    +0.000 A 
ATOM     26  N   UNL     1      48.231   6.077  13.798  0.00  0.00    +0.000 NA
BRANCH  24  27
ATOM     27  C   UNL     1      45.231   6.430  11.516  0.00  0.00    +0.000 C 
BRANCH  27  28
ATOM     28  N   UNL     1      44.903   5.007  11.524  0.00  0.00    +0.000 NA
ATOM     29  H   UNL     1      44.401   4.773  12.383  0.00  0.00    +0.000 HD
BRANCH  28  30
ATOM     30  C   UNL     1      44.091   4.608  10.383  0.00  0.00    +0.000 C 
BRANCH  30  31
ATOM     31  C   UNL     1      44.903   3.805   9.391  0.00  0.00    +0.000 A 
ATOM     32  C   UNL     1      45.628   4.433   8.375  0.00  0.00    +0.000 A 
ATOM     33  C   UNL     1      46.366   3.642   7.502  0.00  0.00    +0.000 A 
ATOM     34  N   UNL     1      46.429   2.296   7.571  0.00  0.00    +0.000 NA
ATOM     35  C   UNL     1      45.719   1.710   8.559  0.00  0.00    +0.000 A 
ATOM     36  C   UNL     1      44.957   2.409   9.481  0.00  0.00    +0.000 A 
ENDBRANCH  30  31
ENDBRANCH  28  30
ENDBRANCH  27  28
ENDBRANCH  24  27
ENDBRANCH  20  21
ENDBRANCH   1  20
TORSDOF 11
ENDMDL
MODEL 9
REMARK VINA RESULT:    -6.481      2.234      3.595
REMARK INTER + INTRA:         -12.001
REMARK INTER:                 -10.705
REMARK INTRA:                  -1.296
REMARK UNBOUND:                -1.542
REMARK  Name = 
REMARK  11 active torsions:
REMARK  status: ('A' for Active; 'I' for Inactive)
REMARK    1  A    between atoms: N_1  and  C_2
REMARK    2  A    between atoms: C_2  and  C_3
REMARK    3  A    between atoms: C_3  and  C_4
REMARK    4  A    between atoms: C_4  and  N_5
REMARK    5  A    between atoms: C_4  and  C_22
REMARK    6  A    between atoms: N_5  and  C_6
REMARK    7  A    between atoms: C_6  and  C_7
REMARK    8  A    between atoms: C_10  and  C_11
REMARK    9  A    between atoms: C_11  and  N_12
REMARK   10  A    between atoms: N_12  and  C_13
REMARK   11  A    between atoms: C_13  and  C_14
REMARK                            x       y       z     vdW  Elec       q    Type
REMARK                         _______ _______ _______ _____ _____    ______ ____
ROOT
ATOM      1  N   UNL     1      49.957   6.831  15.094  0.00  0.00    +0.000 NA
ATOM      2  H   UNL     1      50.902   7.227  15.113  0.00  0.00    +0.000 HD
ENDROOT
BRANCH   1   3
ATOM      3  C   UNL     1      49.404   6.918  16.459  0.00  0.00    +0.000 C 
BRANCH   3   4
ATOM      4  C   UNL     1      50.020   5.752  17.214  0.00  0.00    +0.000 A 
ATOM      5  C   UNL     1      51.199   5.798  17.948  0.00  0.00    +0.000 A 
ATOM      6  S   UNL     1      51.907   4.251  18.143  0.00  0.00    +0.000 S 
ATOM      7  C   UNL     1      50.581   3.491  17.396  0.00  0.00    +0.000 A 
ATOM      8  N   UNL     1      50.576   2.158  17.117  0.00  0.00    +0.000 NA
ATOM      9  C   UNL     1      49.458   1.727  16.636  0.00  0.00    +0.000 A 
ATOM     10  N   UNL     1      48.336   2.497  16.458  0.00  0.00    +0.000 N 
ATOM     11  C   UNL     1      48.290   3.840  16.723  0.00  0.00    +0.000 A 
ATOM     12  O   UNL     1      47.250   4.485  16.668  0.00  0.00    +0.000 OA
ATOM     13  C   UNL     1      49.564   4.390  17.148  0.00  0.00    +0.000 A 
ATOM     14  H   UNL     1      47.461   2.064  16.187  0.00  0.00    +0.000 HD
ENDBRANCH   3   4
BRANCH   3  15
ATOM     15  C   UNL     1      49.502   8.297  17.133  0.00  0.00    +0.000 C 
BRANCH  15  16
ATOM     16  C   UNL     1      48.220   8.933  17.669  0.00  0.00    +0.000 C 
BRANCH  16  17
ATOM     17  N   UNL     1      47.478   9.697  16.670  0.00  0.00    +0.000 NA
ATOM     18  H   UNL     1      46.478   9.590  16.845  0.00  0.00    +0.000 HD
ATOM     19  H   UNL     1      47.634   9.301  15.742  0.00  0.00    +0.000 HD
ENDBRANCH  16  17
ENDBRANCH  15  16
ENDBRANCH   3  15
ENDBRANCH   1   3
BRANCH   1  20
ATOM     20  C   UNL     1      49.177   7.588  14.111  0.00  0.00    +0.000 C 
BRANCH  20  21
ATOM     21  C   UNL     1      47.849   6.956  13.705  0.00  0.00    +0.000 A 
ATOM     22  N   UNL     1      46.837   7.785  13.374  0.00  0.00    +0.000 NA
ATOM     23  C   UNL     1      45.790   7.232  12.730  0.00  0.00    +0.000 A 
ATOM     24  C   UNL     1      45.710   5.897  12.390  0.00  0.00    +0.000 A 
ATOM     25  C   UNL     1      46.751   5.124  12.860  0.00  0.00    +0.000 A 
ATOM     26  N   UNL     1      47.827   5.617  13.509  0.00  0.00    +0.000 NA
BRANCH  24  27
ATOM     27  C   UNL     1      44.611   5.355  11.528  0.00  0.00    +0.000 C 
BRANCH  27  28
ATOM     28  N   UNL     1      44.947   4.015  11.057  0.00  0.00    +0.000 NA
ATOM     29  H   UNL     1      44.670   3.323  11.756  0.00  0.00    +0.000 HD
BRANCH  28  30
ATOM     30  C   UNL     1      44.304   3.684   9.792  0.00  0.00    +0.000 C 
BRANCH  30  31
ATOM     31  C   UNL     1      45.303   3.121   8.805  0.00  0.00    +0.000 A 
ATOM     32  C   UNL     1      45.979   3.952   7.908  0.00  0.00    +0.000 A 
ATOM     33  C   UNL     1      46.894   3.378   7.034  0.00  0.00    +0.000 A 
ATOM     34  N   UNL     1      47.176   2.059   6.994  0.00  0.00    +0.000 NA
ATOM     35  C   UNL     1      46.509   1.273   7.867  0.00  0.00    +0.000 A 
ATOM     36  C   UNL     1      45.582   1.749   8.781  0.00  0.00    +0.000 A 
ENDBRANCH  30  31
ENDBRANCH  28  30
ENDBRANCH  27  28
ENDBRANCH  24  27
ENDBRANCH  20  21
ENDBRANCH   1  20
TORSDOF 11
ENDMDL
