MODEL 1
REMARK VINA RESULT:    -8.137      0.000      0.000
REMARK INTER + INTRA:         -13.361
REMARK INTER:                 -11.943
REMARK INTRA:                  -1.418
REMARK UNBOUND:                -1.418
REMARK  Name = 
REMARK  9 active torsions:
REMARK  status: ('A' for Active; 'I' for Inactive)
REMARK    1  A    between atoms: C_1  and  O_2
REMARK    2  A    between atoms: O_2  and  C_3
REMARK    3  A    between atoms: C_10  and  C_11
REMARK    4  A    between atoms: N_13  and  C_14
REMARK    5  A    between atoms: C_14  and  C_15
REMARK    6  A    between atoms: C_18  and  C_19
REMARK    7  A    between atoms: C_19  and  N_20
REMARK    8  A    between atoms: N_20  and  C_21
REMARK    9  A    between atoms: C_21  and  C_22
REMARK                            x       y       z     vdW  Elec       q    Type
REMARK                         _______ _______ _______ _____ _____    ______ ____
ROOT
ATOM      1  C   UNL     1      46.818   5.663  12.589  0.00  0.00    +0.000 A 
ATOM      2  C   UNL     1      46.008   6.056  11.516  0.00  0.00    +0.000 A 
ATOM      3  C   UNL     1      45.005   5.208  11.031  0.00  0.00    +0.000 A 
ATOM      4  C   UNL     1      44.780   3.950  11.612  0.00  0.00    +0.000 A 
ATOM      5  C   UNL     1      45.560   3.579  12.714  0.00  0.00    +0.000 A 
ATOM      6  C   UNL     1      46.564   4.427  13.201  0.00  0.00    +0.000 A 
ENDROOT
BRANCH   1   7
ATOM      7  C   UNL     1      47.917   6.562  13.101  0.00  0.00    +0.000 C 
BRANCH   7  10
ATOM      8  C   UNL     1      48.974   6.889  15.308  0.00  0.00    +0.000 C 
ATOM      9  O   UNL     1      50.093   6.971  14.809  0.00  0.00    +0.000 OA
ATOM     10  N   UNL     1      47.865   6.679  14.539  0.00  0.00    +0.000 N 
ATOM     11  H   UNL     1      46.963   6.562  14.973  0.00  0.00    +0.000 HD
BRANCH   8  19
ATOM     12  C   UNL     1      48.851   4.608  17.882  0.00  0.00    +0.000 A 
ATOM     13  N   UNL     1      48.762   3.944  19.053  0.00  0.00    +0.000 NA
ATOM     14  C   UNL     1      48.533   4.654  20.159  0.00  0.00    +0.000 A 
ATOM     15  N   UNL     1      48.379   5.973  20.248  0.00  0.00    +0.000 NA
ATOM     16  C   UNL     1      48.486   6.595  19.061  0.00  0.00    +0.000 A 
ATOM     17  S   UNL     1      48.319   8.284  18.983  0.00  0.00    +0.000 S 
ATOM     18  C   UNL     1      48.560   8.280  17.301  0.00  0.00    +0.000 A 
ATOM     19  C   UNL     1      48.770   7.015  16.764  0.00  0.00    +0.000 A 
ATOM     20  C   UNL     1      48.725   6.007  17.824  0.00  0.00    +0.000 A 
BRANCH  12  22
ATOM     21  C   UNL     1      47.995   3.120  16.291  0.00  0.00    +0.000 C 
ATOM     22  O   UNL     1      49.115   3.878  16.744  0.00  0.00    +0.000 OA
ENDBRANCH  12  22
ENDBRANCH   8  19
ENDBRANCH   7  10
ENDBRANCH   1   7
BRANCH   4  23
ATOM     23  C   UNL     1      43.723   3.016  11.056  0.00  0.00    +0.000 C 
BRANCH  23  24
ATOM     24  N   UNL     1      43.839   2.919   9.603  0.00  0.00    +0.000 NA
ATOM     25  H   UNL     1      44.248   3.785   9.252  0.00  0.00    +0.000 HD
BRANCH  24  26
ATOM     26  C   UNL     1      44.689   1.798   9.178  0.00  0.00    +0.000 C 
BRANCH  26  27
ATOM     27  C   UNL     1      45.786   2.252   8.231  0.00  0.00    +0.000 A 
ATOM     28  C   UNL     1      45.931   3.620   7.925  0.00  0.00    +0.000 A 
ATOM     29  C   UNL     1      46.962   4.078   7.102  0.00  0.00    +0.000 A 
ATOM     30  C   UNL     1      47.856   3.173   6.542  0.00  0.00    +0.000 A 
ATOM     31  C   UNL     1      47.696   1.809   6.779  0.00  0.00    +0.000 A 
ATOM     32  C   UNL     1      46.661   1.348   7.604  0.00  0.00    +0.000 A 
ATOM     33 CL   UNL     1      46.511  -0.363   7.802  0.00  0.00    +0.000 Cl
ENDBRANCH  26  27
ENDBRANCH  24  26
ENDBRANCH  23  24
ENDBRANCH   4  23
TORSDOF 8
ENDMDL
MODEL 2
REMARK VINA RESULT:    -7.766      1.327      1.602
REMARK INTER + INTRA:         -12.817
REMARK INTER:                 -11.488
REMARK INTRA:                  -1.329
REMARK UNBOUND:                -1.418
REMARK  Name = 
REMARK  9 active torsions:
REMARK  status: ('A' for Active; 'I' for Inactive)
REMARK    1  A    between atoms: C_1  and  O_2
REMARK    2  A    between atoms: O_2  and  C_3
REMARK    3  A    between atoms: C_10  and  C_11
REMARK    4  A    between atoms: N_13  and  C_14
REMARK    5  A    between atoms: C_14  and  C_15
REMARK    6  A    between atoms: C_18  and  C_19
REMARK    7  A    between atoms: C_19  and  N_20
REMARK    8  A    between atoms: N_20  and  C_21
REMARK    9  A    between atoms: C_21  and  C_22
REMARK                            x       y       z     vdW  Elec       q    Type
REMARK                         _______ _______ _______ _____ _____    ______ ____
ROOT
ATOM      1  C   UNL     1      46.368   6.942  12.788  0.00  0.00    +0.000 A 
ATOM      2  C   UNL     1      45.219   7.139  12.011  0.00  0.00    +0.000 A 
ATOM      3  C   UNL     1      44.449   6.050  11.586  0.00  0.00    +0.000 A 
ATOM      4  C   UNL     1      44.802   4.737  11.933  0.00  0.00    +0.000 A 
ATOM      5  C   UNL     1      45.925   4.545  12.749  0.00  0.00    +0.000 A 
ATOM      6  C   UNL     1      46.696   5.635  13.176  0.00  0.00    +0.000 A 
ENDROOT
BRANCH   1   7
ATOM      7  C   UNL     1      47.216   8.110  13.229  0.00  0.00    +0.000 C 
BRANCH   7  10
ATOM      8  C   UNL     1      48.740   7.656  15.117  0.00  0.00    +0.000 C 
ATOM      9  O   UNL     1      49.656   7.343  14.360  0.00  0.00    +0.000 OA
ATOM     10  N   UNL     1      47.518   8.030  14.638  0.00  0.00    +0.000 N 
ATOM     11  H   UNL     1      46.764   8.231  15.277  0.00  0.00    +0.000 HD
BRANCH   8  19
ATOM     12  C   UNL     1      48.812   5.143  17.468  0.00  0.00    +0.000 A 
ATOM     13  N   UNL     1      48.884   4.372  18.572  0.00  0.00    +0.000 NA
ATOM     14  C   UNL     1      49.059   4.977  19.748  0.00  0.00    +0.000 A 
ATOM     15  N   UNL     1      49.179   6.284  19.968  0.00  0.00    +0.000 NA
ATOM     16  C   UNL     1      49.114   7.014  18.840  0.00  0.00    +0.000 A 
ATOM     17  S   UNL     1      49.249   8.705  18.928  0.00  0.00    +0.000 S 
ATOM     18  C   UNL     1      49.078   8.856  17.244  0.00  0.00    +0.000 A 
ATOM     19  C   UNL     1      48.916   7.644  16.583  0.00  0.00    +0.000 A 
ATOM     20  C   UNL     1      48.938   6.541  17.544  0.00  0.00    +0.000 A 
BRANCH  12  22
ATOM     21  C   UNL     1      47.571   3.594  16.229  0.00  0.00    +0.000 C 
ATOM     22  O   UNL     1      48.658   4.516  16.251  0.00  0.00    +0.000 OA
ENDBRANCH  12  22
ENDBRANCH   8  19
ENDBRANCH   7  10
ENDBRANCH   1   7
BRANCH   4  23
ATOM     23  C   UNL     1      43.991   3.557  11.434  0.00  0.00    +0.000 C 
BRANCH  23  24
ATOM     24  N   UNL     1      44.861   2.571  10.799  0.00  0.00    +0.000 NA
ATOM     25  H   UNL     1      44.842   1.717  11.356  0.00  0.00    +0.000 HD
BRANCH  24  26
ATOM     26  C   UNL     1      44.440   2.244   9.430  0.00  0.00    +0.000 C 
BRANCH  26  27
ATOM     27  C   UNL     1      45.619   2.202   8.474  0.00  0.00    +0.000 A 
ATOM     28  C   UNL     1      46.170   0.963   8.088  0.00  0.00    +0.000 A 
ATOM     29  C   UNL     1      47.218   0.887   7.169  0.00  0.00    +0.000 A 
ATOM     30  C   UNL     1      47.759   2.050   6.635  0.00  0.00    +0.000 A 
ATOM     31  C   UNL     1      47.274   3.290   7.049  0.00  0.00    +0.000 A 
ATOM     32  C   UNL     1      46.222   3.368   7.972  0.00  0.00    +0.000 A 
ATOM     33 CL   UNL     1      45.718   4.947   8.462  0.00  0.00    +0.000 Cl
ENDBRANCH  26  27
ENDBRANCH  24  26
ENDBRANCH  23  24
ENDBRANCH   4  23
TORSDOF 8
ENDMDL
MODEL 3
REMARK VINA RESULT:    -7.572      1.413      2.584
REMARK INTER + INTRA:         -12.532
REMARK INTER:                 -11.378
REMARK INTRA:                  -1.154
REMARK UNBOUND:                -1.418
REMARK  Name = 
REMARK  9 active torsions:
REMARK  status: ('A' for Active; 'I' for Inactive)
REMARK    1  A    between atoms: C_1  and  O_2
REMARK    2  A    between atoms: O_2  and  C_3
REMARK    3  A    between atoms: C_10  and  C_11
REMARK    4  A    between atoms: N_13  and  C_14
REMARK    5  A    between atoms: C_14  and  C_15
REMARK    6  A    between atoms: C_18  and  C_19
REMARK    7  A    between atoms: C_19  and  N_20
REMARK    8  A    between atoms: N_20  and  C_21
REMARK    9  A    between atoms: C_21  and  C_22
REMARK                            x       y       z     vdW  Elec       q    Type
REMARK                         _______ _______ _______ _____ _____    ______ ____
ROOT
ATOM      1  C   UNL     1      46.912   5.652  12.927  0.00  0.00    +0.000 A 
ATOM      2  C   UNL     1      46.626   4.358  13.381  0.00  0.00    +0.000 A 
ATOM      3  C   UNL     1      45.663   3.572  12.737  0.00  0.00    +0.000 A 
ATOM      4  C   UNL     1      44.969   4.055  11.617  0.00  0.00    +0.000 A 
ATOM      5  C   UNL     1      45.290   5.331  11.137  0.00  0.00    +0.000 A 
ATOM      6  C   UNL     1      46.254   6.119  11.781  0.00  0.00    +0.000 A 
ENDROOT
BRANCH   1   7
ATOM      7  C   UNL     1      47.931   6.514  13.632  0.00  0.00    +0.000 C 
BRANCH   7  10
ATOM      8  C   UNL     1      48.915   6.382  15.893  0.00  0.00    +0.000 C 
ATOM      9  O   UNL     1      50.056   6.495  15.451  0.00  0.00    +0.000 OA
ATOM     10  N   UNL     1      47.829   6.371  15.066  0.00  0.00    +0.000 N 
ATOM     11  H   UNL     1      46.906   6.224  15.444  0.00  0.00    +0.000 HD
BRANCH   8  19
ATOM     12  C   UNL     1      47.857   8.590  18.311  0.00  0.00    +0.000 A 
ATOM     13  N   UNL     1      47.463   9.230  19.431  0.00  0.00    +0.000 NA
ATOM     14  C   UNL     1      47.435   8.538  20.570  0.00  0.00    +0.000 A 
ATOM     15  N   UNL     1      47.754   7.257  20.739  0.00  0.00    +0.000 NA
ATOM     16  C   UNL     1      48.128   6.655  19.597  0.00  0.00    +0.000 A 
ATOM     17  S   UNL     1      48.571   5.015  19.621  0.00  0.00    +0.000 S 
ATOM     18  C   UNL     1      48.881   5.023  17.950  0.00  0.00    +0.000 A 
ATOM     19  C   UNL     1      48.661   6.253  17.341  0.00  0.00    +0.000 A 
ATOM     20  C   UNL     1      48.209   7.229  18.333  0.00  0.00    +0.000 A 
BRANCH  12  22
ATOM     21  C   UNL     1      48.405  10.609  17.262  0.00  0.00    +0.000 C 
ATOM     22  O   UNL     1      47.860   9.298  17.129  0.00  0.00    +0.000 OA
ENDBRANCH  12  22
ENDBRANCH   8  19
ENDBRANCH   7  10
ENDBRANCH   1   7
BRANCH   4  23
ATOM     23  C   UNL     1      43.896   3.218  10.949  0.00  0.00    +0.000 C 
BRANCH  23  24
ATOM     24  N   UNL     1      44.175   3.074   9.522  0.00  0.00    +0.000 NA
ATOM     25  H   UNL     1      44.576   3.947   9.181  0.00  0.00    +0.000 HD
BRANCH  24  26
ATOM     26  C   UNL     1      45.119   1.985   9.238  0.00  0.00    +0.000 C 
BRANCH  26  27
ATOM     27  C   UNL     1      45.988   2.295   8.031  0.00  0.00    +0.000 A 
ATOM     28  C   UNL     1      46.082   3.617   7.551  0.00  0.00    +0.000 A 
ATOM     29  C   UNL     1      46.913   3.945   6.479  0.00  0.00    +0.000 A 
ATOM     30  C   UNL     1      47.649   2.953   5.842  0.00  0.00    +0.000 A 
ATOM     31  C   UNL     1      47.526   1.629   6.257  0.00  0.00    +0.000 A 
ATOM     32  C   UNL     1      46.691   1.297   7.334  0.00  0.00    +0.000 A 
ATOM     33 CL   UNL     1      46.564  -0.376   7.748  0.00  0.00    +0.000 Cl
ENDBRANCH  26  27
ENDBRANCH  24  26
ENDBRANCH  23  24
ENDBRANCH   4  23
TORSDOF 8
ENDMDL
MODEL 4
REMARK VINA RESULT:    -7.266      1.483      1.948
REMARK INTER + INTRA:         -12.083
REMARK INTER:                 -10.955
REMARK INTRA:                  -1.128
REMARK UNBOUND:                -1.418
REMARK  Name = 
REMARK  9 active torsions:
REMARK  status: ('A' for Active; 'I' for Inactive)
REMARK    1  A    between atoms: C_1  and  O_2
REMARK    2  A    between atoms: O_2  and  C_3
REMARK    3  A    between atoms: C_10  and  C_11
REMARK    4  A    between atoms: N_13  and  C_14
REMARK    5  A    between atoms: C_14  and  C_15
REMARK    6  A    between atoms: C_18  and  C_19
REMARK    7  A    between atoms: C_19  and  N_20
REMARK    8  A    between atoms: N_20  and  C_21
REMARK    9  A    between atoms: C_21  and  C_22
REMARK                            x       y       z     vdW  Elec       q    Type
REMARK                         _______ _______ _______ _____ _____    ______ ____
ROOT
ATOM      1  C   UNL     1      47.035   7.953  13.311  0.00  0.00    +0.000 A 
ATOM      2  C   UNL     1      45.878   8.368  12.638  0.00  0.00    +0.000 A 
ATOM      3  C   UNL     1      45.195   7.493  11.786  0.00  0.00    +0.000 A 
ATOM      4  C   UNL     1      45.645   6.178  11.590  0.00  0.00    +0.000 A 
ATOM      5  C   UNL     1      46.775   5.750  12.300  0.00  0.00    +0.000 A 
ATOM      6  C   UNL     1      47.459   6.625  13.154  0.00  0.00    +0.000 A 
ENDROOT
BRANCH   1   7
ATOM      7  C   UNL     1      47.790   8.899  14.212  0.00  0.00    +0.000 C 
BRANCH   7  10
ATOM      8  C   UNL     1      49.271   8.210  16.064  0.00  0.00    +0.000 C 
ATOM      9  O   UNL     1      50.270   8.615  15.474  0.00  0.00    +0.000 OA
ATOM     10  N   UNL     1      48.028   8.305  15.506  0.00  0.00    +0.000 N 
ATOM     11  H   UNL     1      47.229   7.919  15.984  0.00  0.00    +0.000 HD
BRANCH   8  19
ATOM     12  C   UNL     1      48.492   5.097  17.307  0.00  0.00    +0.000 A 
ATOM     13  N   UNL     1      48.281   3.985  18.040  0.00  0.00    +0.000 NA
ATOM     14  C   UNL     1      48.567   4.029  19.341  0.00  0.00    +0.000 A 
ATOM     15  N   UNL     1      49.052   5.066  20.022  0.00  0.00    +0.000 NA
ATOM     16  C   UNL     1      49.258   6.148  19.251  0.00  0.00    +0.000 A 
ATOM     17  S   UNL     1      49.877   7.568  19.950  0.00  0.00    +0.000 S 
ATOM     18  C   UNL     1      49.840   8.378  18.457  0.00  0.00    +0.000 A 
ATOM     19  C   UNL     1      49.364   7.603  17.406  0.00  0.00    +0.000 A 
ATOM     20  C   UNL     1      49.016   6.265  17.887  0.00  0.00    +0.000 A 
BRANCH  12  22
ATOM     21  C   UNL     1      47.399   3.936  15.594  0.00  0.00    +0.000 C 
ATOM     22  O   UNL     1      48.221   5.043  15.957  0.00  0.00    +0.000 OA
ENDBRANCH  12  22
ENDBRANCH   8  19
ENDBRANCH   7  10
ENDBRANCH   1   7
BRANCH   4  23
ATOM     23  C   UNL     1      44.928   5.246  10.632  0.00  0.00    +0.000 C 
BRANCH  23  24
ATOM     24  N   UNL     1      45.541   5.304   9.308  0.00  0.00    +0.000 NA
ATOM     25  H   UNL     1      46.518   5.024   9.391  0.00  0.00    +0.000 HD
BRANCH  24  26
ATOM     26  C   UNL     1      44.882   4.417   8.341  0.00  0.00    +0.000 C 
BRANCH  26  27
ATOM     27  C   UNL     1      45.809   3.307   7.874  0.00  0.00    +0.000 A 
ATOM     28  C   UNL     1      46.826   3.585   6.938  0.00  0.00    +0.000 A 
ATOM     29  C   UNL     1      47.729   2.602   6.530  0.00  0.00    +0.000 A 
ATOM     30  C   UNL     1      47.620   1.309   7.028  0.00  0.00    +0.000 A 
ATOM     31  C   UNL     1      46.586   0.994   7.907  0.00  0.00    +0.000 A 
ATOM     32  C   UNL     1      45.678   1.980   8.318  0.00  0.00    +0.000 A 
ATOM     33 CL   UNL     1      44.399   1.486   9.372  0.00  0.00    +0.000 Cl
ENDBRANCH  26  27
ENDBRANCH  24  26
ENDBRANCH  23  24
ENDBRANCH   4  23
TORSDOF 8
ENDMDL
MODEL 5
REMARK VINA RESULT:    -6.680      3.980      8.428
REMARK INTER + INTRA:         -11.222
REMARK INTER:                  -9.465
REMARK INTRA:                  -1.757
REMARK UNBOUND:                -1.418
REMARK  Name = 
REMARK  9 active torsions:
REMARK  status: ('A' for Active; 'I' for Inactive)
REMARK    1  A    between atoms: C_1  and  O_2
REMARK    2  A    between atoms: O_2  and  C_3
REMARK    3  A    between atoms: C_10  and  C_11
REMARK    4  A    between atoms: N_13  and  C_14
REMARK    5  A    between atoms: C_14  and  C_15
REMARK    6  A    between atoms: C_18  and  C_19
REMARK    7  A    between atoms: C_19  and  N_20
REMARK    8  A    between atoms: N_20  and  C_21
REMARK    9  A    between atoms: C_21  and  C_22
REMARK                            x       y       z     vdW  Elec       q    Type
REMARK                         _______ _______ _______ _____ _____    ______ ____
ROOT
ATOM      1  C   UNL     1      48.576   7.958  13.429  0.00  0.00    +0.000 A 
ATOM      2  C   UNL     1      48.185   9.035  14.234  0.00  0.00    +0.000 A 
ATOM      3  C   UNL     1      48.266   8.949  15.629  0.00  0.00    +0.000 A 
ATOM      4  C   UNL     1      48.748   7.789  16.255  0.00  0.00    +0.000 A 
ATOM      5  C   UNL     1      49.182   6.731  15.446  0.00  0.00    +0.000 A 
ATOM      6  C   UNL     1      49.102   6.816  14.050  0.00  0.00    +0.000 A 
ENDROOT
BRANCH   1   7
ATOM      7  C   UNL     1      48.469   8.034  11.926  0.00  0.00    +0.000 C 
BRANCH   7  10
ATOM      8  C   UNL     1      46.330   6.951  11.335  0.00  0.00    +0.000 C 
ATOM      9  O   UNL     1      45.681   7.912  11.738  0.00  0.00    +0.000 OA
ATOM     10  N   UNL     1      47.694   6.933  11.403  0.00  0.00    +0.000 N 
ATOM     11  H   UNL     1      48.205   6.113  11.116  0.00  0.00    +0.000 HD
BRANCH   8  19
ATOM     12  C   UNL     1      44.499   4.366  12.681  0.00  0.00    +0.000 A 
ATOM     13  N   UNL     1      43.763   3.266  12.939  0.00  0.00    +0.000 NA
ATOM     14  C   UNL     1      43.438   2.477  11.915  0.00  0.00    +0.000 A 
ATOM     15  N   UNL     1      43.758   2.650  10.634  0.00  0.00    +0.000 NA
ATOM     16  C   UNL     1      44.481   3.763  10.421  0.00  0.00    +0.000 A 
ATOM     17  S   UNL     1      44.980   4.148   8.843  0.00  0.00    +0.000 S 
ATOM     18  C   UNL     1      45.765   5.555   9.381  0.00  0.00    +0.000 A 
ATOM     19  C   UNL     1      45.670   5.766  10.752  0.00  0.00    +0.000 A 
ATOM     20  C   UNL     1      44.898   4.688  11.372  0.00  0.00    +0.000 A 
BRANCH  12  22
ATOM     21  C   UNL     1      46.096   4.930  14.297  0.00  0.00    +0.000 C 
ATOM     22  O   UNL     1      44.812   5.196  13.736  0.00  0.00    +0.000 OA
ENDBRANCH  12  22
ENDBRANCH   8  19
ENDBRANCH   7  10
ENDBRANCH   1   7
BRANCH   4  23
ATOM     23  C   UNL     1      48.792   7.684  17.767  0.00  0.00    +0.000 C 
BRANCH  23  24
ATOM     24  N   UNL     1      49.935   6.878  18.189  0.00  0.00    +0.000 NA
ATOM     25  H   UNL     1      50.580   7.475  18.706  0.00  0.00    +0.000 HD
BRANCH  24  26
ATOM     26  C   UNL     1      49.546   5.755  19.053  0.00  0.00    +0.000 C 
BRANCH  26  27
ATOM     27  C   UNL     1      49.285   4.492  18.250  0.00  0.00    +0.000 A 
ATOM     28  C   UNL     1      47.968   4.153  17.878  0.00  0.00    +0.000 A 
ATOM     29  C   UNL     1      47.699   3.030  17.094  0.00  0.00    +0.000 A 
ATOM     30  C   UNL     1      48.739   2.203  16.685  0.00  0.00    +0.000 A 
ATOM     31  C   UNL     1      50.042   2.482  17.093  0.00  0.00    +0.000 A 
ATOM     32  C   UNL     1      50.314   3.609  17.880  0.00  0.00    +0.000 A 
ATOM     33 CL   UNL     1      51.952   3.848  18.377  0.00  0.00    +0.000 Cl
ENDBRANCH  26  27
ENDBRANCH  24  26
ENDBRANCH  23  24
ENDBRANCH   4  23
TORSDOF 8
ENDMDL
MODEL 6
REMARK VINA RESULT:    -6.585      3.074      4.355
REMARK INTER + INTRA:         -11.084
REMARK INTER:                 -10.101
REMARK INTRA:                  -0.982
REMARK UNBOUND:                -1.418
REMARK  Name = 
REMARK  9 active torsions:
REMARK  status: ('A' for Active; 'I' for Inactive)
REMARK    1  A    between atoms: C_1  and  O_2
REMARK    2  A    between atoms: O_2  and  C_3
REMARK    3  A    between atoms: C_10  and  C_11
REMARK    4  A    between atoms: N_13  and  C_14
REMARK    5  A    between atoms: C_14  and  C_15
REMARK    6  A    between atoms: C_18  and  C_19
REMARK    7  A    between atoms: C_19  and  N_20
REMARK    8  A    between atoms: N_20  and  C_21
REMARK    9  A    between atoms: C_21  and  C_22
REMARK                            x       y       z     vdW  Elec       q    Type
REMARK                         _______ _______ _______ _____ _____    ______ ____
ROOT
ATOM      1  C   UNL     1      49.818   7.556  14.854  0.00  0.00    +0.000 A 
ATOM      2  C   UNL     1      49.921   8.152  13.591  0.00  0.00    +0.000 A 
ATOM      3  C   UNL     1      48.993   7.857  12.585  0.00  0.00    +0.000 A 
ATOM      4  C   UNL     1      47.934   6.966  12.818  0.00  0.00    +0.000 A 
ATOM      5  C   UNL     1      47.806   6.407  14.096  0.00  0.00    +0.000 A 
ATOM      6  C   UNL     1      48.734   6.702  15.104  0.00  0.00    +0.000 A 
ENDROOT
BRANCH   1   7
ATOM      7  C   UNL     1      50.829   7.851  15.935  0.00  0.00    +0.000 C 
BRANCH   7  10
ATOM      8  C   UNL     1      51.452   6.120  17.582  0.00  0.00    +0.000 C 
ATOM      9  O   UNL     1      50.778   6.651  18.461  0.00  0.00    +0.000 OA
ATOM     10  N   UNL     1      51.534   6.653  16.328  0.00  0.00    +0.000 N 
ATOM     11  H   UNL     1      52.134   6.231  15.637  0.00  0.00    +0.000 HD
BRANCH   8  19
ATOM     12  C   UNL     1      50.646   2.781  17.364  0.00  0.00    +0.000 A 
ATOM     13  N   UNL     1      50.598   1.433  17.362  0.00  0.00    +0.000 NA
ATOM     14  C   UNL     1      51.693   0.769  17.735  0.00  0.00    +0.000 A 
ATOM     15  N   UNL     1      52.857   1.289  18.117  0.00  0.00    +0.000 NA
ATOM     16  C   UNL     1      52.863   2.633  18.093  0.00  0.00    +0.000 A 
ATOM     17  S   UNL     1      54.269   3.471  18.549  0.00  0.00    +0.000 S 
ATOM     18  C   UNL     1      53.522   4.972  18.274  0.00  0.00    +0.000 A 
ATOM     19  C   UNL     1      52.206   4.877  17.836  0.00  0.00    +0.000 A 
ATOM     20  C   UNL     1      51.815   3.471  17.729  0.00  0.00    +0.000 A 
BRANCH  12  22
ATOM     21  C   UNL     1      48.444   2.611  16.588  0.00  0.00    +0.000 C 
ATOM     22  O   UNL     1      49.524   3.468  16.953  0.00  0.00    +0.000 OA
ENDBRANCH  12  22
ENDBRANCH   8  19
ENDBRANCH   7  10
ENDBRANCH   1   7
BRANCH   4  23
ATOM     23  C   UNL     1      46.957   6.616  11.713  0.00  0.00    +0.000 C 
BRANCH  23  24
ATOM     24  N   UNL     1      46.094   5.512  12.125  0.00  0.00    +0.000 NA
ATOM     25  H   UNL     1      45.846   5.643  13.106  0.00  0.00    +0.000 HD
BRANCH  24  26
ATOM     26  C   UNL     1      44.856   5.437  11.338  0.00  0.00    +0.000 C 
BRANCH  26  27
ATOM     27  C   UNL     1      44.963   4.417  10.218  0.00  0.00    +0.000 A 
ATOM     28  C   UNL     1      45.622   4.754   9.018  0.00  0.00    +0.000 A 
ATOM     29  C   UNL     1      45.787   3.823   7.991  0.00  0.00    +0.000 A 
ATOM     30  C   UNL     1      45.271   2.540   8.128  0.00  0.00    +0.000 A 
ATOM     31  C   UNL     1      44.561   2.201   9.278  0.00  0.00    +0.000 A 
ATOM     32  C   UNL     1      44.395   3.135  10.310  0.00  0.00    +0.000 A 
ATOM     33 CL   UNL     1      43.460   2.641  11.678  0.00  0.00    +0.000 Cl
ENDBRANCH  26  27
ENDBRANCH  24  26
ENDBRANCH  23  24
ENDBRANCH   4  23
TORSDOF 8
ENDMDL
MODEL 7
REMARK VINA RESULT:    -6.546      4.132      8.730
REMARK INTER + INTRA:         -11.026
REMARK INTER:                  -8.760
REMARK INTRA:                  -2.266
REMARK UNBOUND:                -1.418
REMARK  Name = 
REMARK  9 active torsions:
REMARK  status: ('A' for Active; 'I' for Inactive)
REMARK    1  A    between atoms: C_1  and  O_2
REMARK    2  A    between atoms: O_2  and  C_3
REMARK    3  A    between atoms: C_10  and  C_11
REMARK    4  A    between atoms: N_13  and  C_14
REMARK    5  A    between atoms: C_14  and  C_15
REMARK    6  A    between atoms: C_18  and  C_19
REMARK    7  A    between atoms: C_19  and  N_20
REMARK    8  A    between atoms: N_20  and  C_21
REMARK    9  A    between atoms: C_21  and  C_22
REMARK                            x       y       z     vdW  Elec       q    Type
REMARK                         _______ _______ _______ _____ _____    ______ ____
ROOT
ATOM      1  C   UNL     1      48.912   8.242  15.740  0.00  0.00    +0.000 A 
ATOM      2  C   UNL     1      48.305   8.706  16.914  0.00  0.00    +0.000 A 
ATOM      3  C   UNL     1      48.827   8.370  18.169  0.00  0.00    +0.000 A 
ATOM      4  C   UNL     1      49.974   7.569  18.282  0.00  0.00    +0.000 A 
ATOM      5  C   UNL     1      50.606   7.144  17.106  0.00  0.00    +0.000 A 
ATOM      6  C   UNL     1      50.085   7.481  15.850  0.00  0.00    +0.000 A 
ENDROOT
BRANCH   1   7
ATOM      7  C   UNL     1      48.340   8.581  14.385  0.00  0.00    +0.000 C 
BRANCH   7  10
ATOM      8  C   UNL     1      47.690   6.494  13.237  0.00  0.00    +0.000 C 
ATOM      9  O   UNL     1      48.843   6.287  12.867  0.00  0.00    +0.000 OA
ATOM     10  N   UNL     1      47.366   7.598  13.972  0.00  0.00    +0.000 N 
ATOM     11  H   UNL     1      46.406   7.777  14.220  0.00  0.00    +0.000 HD
BRANCH   8  19
ATOM     12  C   UNL     1      44.567   6.906  11.849  0.00  0.00    +0.000 A 
ATOM     13  N   UNL     1      43.326   6.786  11.335  0.00  0.00    +0.000 NA
ATOM     14  C   UNL     1      42.780   5.570  11.298  0.00  0.00    +0.000 A 
ATOM     15  N   UNL     1      43.328   4.430  11.715  0.00  0.00    +0.000 NA
ATOM     16  C   UNL     1      44.568   4.595  12.207  0.00  0.00    +0.000 A 
ATOM     17  S   UNL     1      45.425   3.246  12.786  0.00  0.00    +0.000 S 
ATOM     18  C   UNL     1      46.763   4.210  13.195  0.00  0.00    +0.000 A 
ATOM     19  C   UNL     1      46.596   5.559  12.907  0.00  0.00    +0.000 A 
ATOM     20  C   UNL     1      45.278   5.786  12.314  0.00  0.00    +0.000 A 
BRANCH  12  22
ATOM     21  C   UNL     1      44.364   9.141  11.182  0.00  0.00    +0.000 C 
ATOM     22  O   UNL     1      45.142   8.159  11.863  0.00  0.00    +0.000 OA
ENDBRANCH  12  22
ENDBRANCH   8  19
ENDBRANCH   7  10
ENDBRANCH   1   7
BRANCH   4  23
ATOM     23  C   UNL     1      50.511   7.170  19.643  0.00  0.00    +0.000 C 
BRANCH  23  24
ATOM     24  N   UNL     1      50.745   5.729  19.698  0.00  0.00    +0.000 NA
ATOM     25  H   UNL     1      51.434   5.540  20.426  0.00  0.00    +0.000 HD
BRANCH  24  26
ATOM     26  C   UNL     1      49.525   4.970  20.004  0.00  0.00    +0.000 C 
BRANCH  26  27
ATOM     27  C   UNL     1      48.966   4.283  18.770  0.00  0.00    +0.000 A 
ATOM     28  C   UNL     1      49.751   3.345  18.069  0.00  0.00    +0.000 A 
ATOM     29  C   UNL     1      49.249   2.656  16.964  0.00  0.00    +0.000 A 
ATOM     30  C   UNL     1      47.957   2.908  16.517  0.00  0.00    +0.000 A 
ATOM     31  C   UNL     1      47.183   3.875  17.155  0.00  0.00    +0.000 A 
ATOM     32  C   UNL     1      47.686   4.569  18.264  0.00  0.00    +0.000 A 
ATOM     33 CL   UNL     1      46.673   5.783  18.962  0.00  0.00    +0.000 Cl
ENDBRANCH  26  27
ENDBRANCH  24  26
ENDBRANCH  23  24
ENDBRANCH   4  23
TORSDOF 8
ENDMDL
MODEL 8
REMARK VINA RESULT:    -6.225      3.155      5.128
REMARK INTER + INTRA:         -10.554
REMARK INTER:                  -9.210
REMARK INTRA:                  -1.344
REMARK UNBOUND:                -1.418
REMARK  Name = 
REMARK  9 active torsions:
REMARK  status: ('A' for Active; 'I' for Inactive)
REMARK    1  A    between atoms: C_1  and  O_2
REMARK    2  A    between atoms: O_2  and  C_3
REMARK    3  A    between atoms: C_10  and  C_11
REMARK    4  A    between atoms: N_13  and  C_14
REMARK    5  A    between atoms: C_14  and  C_15
REMARK    6  A    between atoms: C_18  and  C_19
REMARK    7  A    between atoms: C_19  and  N_20
REMARK    8  A    between atoms: N_20  and  C_21
REMARK    9  A    between atoms: C_21  and  C_22
REMARK                            x       y       z     vdW  Elec       q    Type
REMARK                         _______ _______ _______ _____ _____    ______ ____
ROOT
ATOM      1  C   UNL     1      48.758   7.356  16.391  0.00  0.00    +0.000 A 
ATOM      2  C   UNL     1      48.468   6.249  15.583  0.00  0.00    +0.000 A 
ATOM      3  C   UNL     1      48.131   6.419  14.235  0.00  0.00    +0.000 A 
ATOM      4  C   UNL     1      48.085   7.697  13.657  0.00  0.00    +0.000 A 
ATOM      5  C   UNL     1      48.421   8.798  14.456  0.00  0.00    +0.000 A 
ATOM      6  C   UNL     1      48.758   8.630  15.805  0.00  0.00    +0.000 A 
ENDROOT
BRANCH   1   7
ATOM      7  C   UNL     1      49.097   7.182  17.851  0.00  0.00    +0.000 C 
BRANCH   7  10
ATOM      8  C   UNL     1      51.341   6.153  17.889  0.00  0.00    +0.000 C 
ATOM      9  O   UNL     1      51.877   7.204  17.546  0.00  0.00    +0.000 OA
ATOM     10  N   UNL     1      49.988   6.063  18.049  0.00  0.00    +0.000 N 
ATOM     11  H   UNL     1      49.563   5.179  18.279  0.00  0.00    +0.000 HD
BRANCH   8  19
ATOM     12  C   UNL     1      50.773   2.804  17.338  0.00  0.00    +0.000 A 
ATOM     13  N   UNL     1      50.810   1.459  17.235  0.00  0.00    +0.000 NA
ATOM     14  C   UNL     1      51.888   0.826  17.697  0.00  0.00    +0.000 A 
ATOM     15  N   UNL     1      52.963   1.375  18.260  0.00  0.00    +0.000 NA
ATOM     16  C   UNL     1      52.890   2.715  18.331  0.00  0.00    +0.000 A 
ATOM     17  S   UNL     1      54.175   3.588  19.019  0.00  0.00    +0.000 S 
ATOM     18  C   UNL     1      53.377   5.065  18.757  0.00  0.00    +0.000 A 
ATOM     19  C   UNL     1      52.133   4.935  18.150  0.00  0.00    +0.000 A 
ATOM     20  C   UNL     1      51.845   3.523  17.896  0.00  0.00    +0.000 A 
BRANCH  12  22
ATOM     21  C   UNL     1      48.444   2.787  17.109  0.00  0.00    +0.000 C 
ATOM     22  O   UNL     1      49.671   3.461  16.837  0.00  0.00    +0.000 OA
ENDBRANCH  12  22
ENDBRANCH   8  19
ENDBRANCH   7  10
ENDBRANCH   1   7
BRANCH   4  23
ATOM     23  C   UNL     1      47.677   7.880  12.208  0.00  0.00    +0.000 C 
BRANCH  23  24
ATOM     24  N   UNL     1      47.062   6.661  11.692  0.00  0.00    +0.000 NA
ATOM     25  H   UNL     1      47.177   5.921  12.386  0.00  0.00    +0.000 HD
BRANCH  24  26
ATOM     26  C   UNL     1      45.628   6.823  11.419  0.00  0.00    +0.000 C 
BRANCH  26  27
ATOM     27  C   UNL     1      44.879   5.507  11.547  0.00  0.00    +0.000 A 
ATOM     28  C   UNL     1      44.264   5.162  12.768  0.00  0.00    +0.000 A 
ATOM     29  C   UNL     1      43.522   3.988  12.903  0.00  0.00    +0.000 A 
ATOM     30  C   UNL     1      43.400   3.116  11.828  0.00  0.00    +0.000 A 
ATOM     31  C   UNL     1      44.050   3.404  10.629  0.00  0.00    +0.000 A 
ATOM     32  C   UNL     1      44.796   4.583  10.492  0.00  0.00    +0.000 A 
ATOM     33 CL   UNL     1      45.606   4.833   8.985  0.00  0.00    +0.000 Cl
ENDBRANCH  26  27
ENDBRANCH  24  26
ENDBRANCH  23  24
ENDBRANCH   4  23
TORSDOF 8
ENDMDL
MODEL 9
REMARK VINA RESULT:    -5.830      4.132      8.363
REMARK INTER + INTRA:          -9.975
REMARK INTER:                  -8.208
REMARK INTRA:                  -1.767
REMARK UNBOUND:                -1.418
REMARK  Name = 
REMARK  9 active torsions:
REMARK  status: ('A' for Active; 'I' for Inactive)
REMARK    1  A    between atoms: C_1  and  O_2
REMARK    2  A    between atoms: O_2  and  C_3
REMARK    3  A    between atoms: C_10  and  C_11
REMARK    4  A    between atoms: N_13  and  C_14
REMARK    5  A    between atoms: C_14  and  C_15
REMARK    6  A    between atoms: C_18  and  C_19
REMARK    7  A    between atoms: C_19  and  N_20
REMARK    8  A    between atoms: N_20  and  C_21
REMARK    9  A    between atoms: C_21  and  C_22
REMARK                            x       y       z     vdW  Elec       q    Type
REMARK                         _______ _______ _______ _____ _____    ______ ____
ROOT
ATOM      1  C   UNL     1      48.853   8.544  15.230  0.00  0.00    +0.000 A 
ATOM      2  C   UNL     1      48.728   8.343  16.610  0.00  0.00    +0.000 A 
ATOM      3  C   UNL     1      49.714   7.652  17.323  0.00  0.00    +0.000 A 
ATOM      4  C   UNL     1      50.855   7.151  16.677  0.00  0.00    +0.000 A 
ATOM      5  C   UNL     1      51.000   7.394  15.304  0.00  0.00    +0.000 A 
ATOM      6  C   UNL     1      50.013   8.087  14.590  0.00  0.00    +0.000 A 
ENDROOT
BRANCH   1   7
ATOM      7  C   UNL     1      47.781   9.267  14.451  0.00  0.00    +0.000 C 
BRANCH   7  10
ATOM      8  C   UNL     1      46.696   8.009  12.626  0.00  0.00    +0.000 C 
ATOM      9  O   UNL     1      47.444   8.499  11.783  0.00  0.00    +0.000 OA
ATOM     10  N   UNL     1      46.793   8.344  13.945  0.00  0.00    +0.000 N 
ATOM     11  H   UNL     1      46.135   7.971  14.612  0.00  0.00    +0.000 HD
BRANCH   8  19
ATOM     12  C   UNL     1      46.410   4.600  13.010  0.00  0.00    +0.000 A 
ATOM     13  N   UNL     1      46.047   3.302  13.032  0.00  0.00    +0.000 NA
ATOM     14  C   UNL     1      44.880   2.969  12.478  0.00  0.00    +0.000 A 
ATOM     15  N   UNL     1      44.007   3.785  11.894  0.00  0.00    +0.000 NA
ATOM     16  C   UNL     1      44.402   5.070  11.905  0.00  0.00    +0.000 A 
ATOM     17  S   UNL     1      43.410   6.257  11.203  0.00  0.00    +0.000 S 
ATOM     18  C   UNL     1      44.519   7.484  11.591  0.00  0.00    +0.000 A 
ATOM     19  C   UNL     1      45.654   7.031  12.254  0.00  0.00    +0.000 A 
ATOM     20  C   UNL     1      45.580   5.581  12.440  0.00  0.00    +0.000 A 
BRANCH  12  22
ATOM     21  C   UNL     1      47.503   5.089  15.020  0.00  0.00    +0.000 C 
ATOM     22  O   UNL     1      47.603   4.948  13.605  0.00  0.00    +0.000 OA
ENDBRANCH  12  22
ENDBRANCH   8  19
ENDBRANCH   7  10
ENDBRANCH   1   7
BRANCH   4  23
ATOM     23  C   UNL     1      51.900   6.364  17.443  0.00  0.00    +0.000 C 
BRANCH  23  24
ATOM     24  N   UNL     1      51.523   6.250  18.850  0.00  0.00    +0.000 NA
ATOM     25  H   UNL     1      50.565   6.584  18.957  0.00  0.00    +0.000 HD
BRANCH  24  26
ATOM     26  C   UNL     1      51.592   4.868  19.343  0.00  0.00    +0.000 C 
BRANCH  26  27
ATOM     27  C   UNL     1      50.711   3.936  18.530  0.00  0.00    +0.000 A 
ATOM     28  C   UNL     1      49.309   4.079  18.568  0.00  0.00    +0.000 A 
ATOM     29  C   UNL     1      48.473   3.276  17.791  0.00  0.00    +0.000 A 
ATOM     30  C   UNL     1      49.018   2.290  16.977  0.00  0.00    +0.000 A 
ATOM     31  C   UNL     1      50.396   2.087  16.969  0.00  0.00    +0.000 A 
ATOM     32  C   UNL     1      51.237   2.893  17.749  0.00  0.00    +0.000 A 
ATOM     33 CL   UNL     1      52.929   2.537  17.712  0.00  0.00    +0.000 Cl
ENDBRANCH  26  27
ENDBRANCH  24  26
ENDBRANCH  23  24
ENDBRANCH   4  23
TORSDOF 8
ENDMDL
