MODEL 1
REMARK VINA RESULT:    -7.879      0.000      0.000
REMARK INTER + INTRA:         -12.580
REMARK INTER:                 -11.794
REMARK INTRA:                  -0.787
REMARK UNBOUND:                -0.787
REMARK  Name = 
REMARK  11 active torsions:
REMARK  status: ('A' for Active; 'I' for Inactive)
REMARK    1  A    between atoms: C_1  and  N_2
REMARK    2  A    between atoms: N_2  and  C_3
REMARK    3  A    between atoms: N_2  and  C_4
REMARK    4  A    between atoms: C_4  and  C_5
REMARK    5  A    between atoms: C_5  and  N_6
REMARK    6  A    between atoms: C_7  and  C_9
REMARK    7  A    between atoms: C_12  and  O_13
REMARK    8  A    between atoms: O_13  and  C_14
REMARK    9  A    between atoms: C_14  and  C_15
REMARK   10  A    between atoms: C_18  and  C_19
REMARK   11  A    between atoms: C_19  and  N_20
REMARK                            x       y       z     vdW  Elec       q    Type
REMARK                         _______ _______ _______ _____ _____    ______ ____
ROOT
ATOM      1  C   UNL     1      46.653   5.127  13.753  0.00  0.00    +0.000 A 
ATOM      2  C   UNL     1      47.037   6.074  12.800  0.00  0.00    +0.000 A 
ATOM      3  C   UNL     1      46.266   6.232  11.647  0.00  0.00    +0.000 A 
ATOM      4  C   UNL     1      45.131   5.450  11.500  0.00  0.00    +0.000 A 
ATOM      5  N   UNL     1      44.754   4.505  12.386  0.00  0.00    +0.000 NA
ATOM      6  C   UNL     1      45.530   4.353  13.486  0.00  0.00    +0.000 A 
ENDROOT
BRANCH   1   8
ATOM      7  N   UNL     1      46.898   3.886  15.827  0.00  0.00    +0.000 N 
ATOM      8  C   UNL     1      47.388   4.882  15.013  0.00  0.00    +0.000 C 
ATOM      9  O   UNL     1      48.394   5.536  15.271  0.00  0.00    +0.000 OA
ATOM     10  H   UNL     1      46.231   3.210  15.470  0.00  0.00    +0.000 HD
BRANCH   7  11
ATOM     11  C   UNL     1      47.604   3.495  17.032  0.00  0.00    +0.000 C 
BRANCH  11  12
ATOM     12  C   UNL     1      48.693   2.450  16.738  0.00  0.00    +0.000 C 
BRANCH  12  14
ATOM     13  C   UNL     1      50.156   3.959  17.972  0.00  0.00    +0.000 C 
ATOM     14  N   UNL     1      50.081   2.934  16.926  0.00  0.00    +0.000 NA
ATOM     15  C   UNL     1      50.938   1.801  17.300  0.00  0.00    +0.000 C 
ENDBRANCH  12  14
ENDBRANCH  11  12
ENDBRANCH   7  11
ENDBRANCH   1   8
BRANCH   4  16
ATOM     16  O   UNL     1      44.378   5.636  10.361  0.00  0.00    +0.000 OA
BRANCH  16  17
ATOM     17  C   UNL     1      43.803   4.403   9.909  0.00  0.00    +0.000 C 
BRANCH  17  18
ATOM     18  C   UNL     1      44.807   3.653   9.063  0.00  0.00    +0.000 A 
ATOM     19  C   UNL     1      45.009   2.291   9.271  0.00  0.00    +0.000 A 
ATOM     20  C   UNL     1      45.920   1.613   8.466  0.00  0.00    +0.000 A 
ATOM     21  C   UNL     1      46.633   2.302   7.484  0.00  0.00    +0.000 A 
ATOM     22  C   UNL     1      46.342   3.655   7.330  0.00  0.00    +0.000 A 
ATOM     23  N   UNL     1      45.459   4.342   8.091  0.00  0.00    +0.000 NA
BRANCH  21  24
ATOM     24  C   UNL     1      47.621   1.634   6.570  0.00  0.00    +0.000 C 
BRANCH  24  25
ATOM     25  N   UNL     1      48.799   2.457   6.304  0.00  0.00    +0.000 NA
ATOM     26  H   UNL     1      49.399   1.965   5.641  0.00  0.00    +0.000 HD
ATOM     27  H   UNL     1      49.340   2.552   7.161  0.00  0.00    +0.000 HD
ENDBRANCH  24  25
ENDBRANCH  21  24
ENDBRANCH  17  18
ENDBRANCH  16  17
ENDBRANCH   4  16
TORSDOF 9
ENDMDL
MODEL 2
REMARK VINA RESULT:    -7.415      1.422      1.634
REMARK INTER + INTRA:         -11.887
REMARK INTER:                 -11.287
REMARK INTRA:                  -0.600
REMARK UNBOUND:                -0.787
REMARK  Name = 
REMARK  11 active torsions:
REMARK  status: ('A' for Active; 'I' for Inactive)
REMARK    1  A    between atoms: C_1  and  N_2
REMARK    2  A    between atoms: N_2  and  C_3
REMARK    3  A    between atoms: N_2  and  C_4
REMARK    4  A    between atoms: C_4  and  C_5
REMARK    5  A    between atoms: C_5  and  N_6
REMARK    6  A    between atoms: C_7  and  C_9
REMARK    7  A    between atoms: C_12  and  O_13
REMARK    8  A    between atoms: O_13  and  C_14
REMARK    9  A    between atoms: C_14  and  C_15
REMARK   10  A    between atoms: C_18  and  C_19
REMARK   11  A    between atoms: C_19  and  N_20
REMARK                            x       y       z     vdW  Elec       q    Type
REMARK                         _______ _______ _______ _____ _____    ______ ____
ROOT
ATOM      1  C   UNL     1      46.798   5.367  13.584  0.00  0.00    +0.000 A 
ATOM      2  C   UNL     1      46.034   6.225  12.788  0.00  0.00    +0.000 A 
ATOM      3  C   UNL     1      45.013   5.693  11.998  0.00  0.00    +0.000 A 
ATOM      4  C   UNL     1      44.784   4.326  12.048  0.00  0.00    +0.000 A 
ATOM      5  N   UNL     1      45.526   3.471  12.780  0.00  0.00    +0.000 NA
ATOM      6  C   UNL     1      46.526   4.006  13.521  0.00  0.00    +0.000 A 
ENDROOT
BRANCH   1   8
ATOM      7  N   UNL     1      47.775   5.518  15.802  0.00  0.00    +0.000 N 
ATOM      8  C   UNL     1      47.896   5.822  14.465  0.00  0.00    +0.000 C 
ATOM      9  O   UNL     1      48.860   6.412  13.987  0.00  0.00    +0.000 OA
ATOM     10  H   UNL     1      47.106   4.822  16.115  0.00  0.00    +0.000 HD
BRANCH   7  11
ATOM     11  C   UNL     1      48.844   5.824  16.734  0.00  0.00    +0.000 C 
BRANCH  11  12
ATOM     12  C   UNL     1      48.394   5.645  18.194  0.00  0.00    +0.000 C 
BRANCH  12  14
ATOM     13  C   UNL     1      48.903   4.674  20.371  0.00  0.00    +0.000 C 
ATOM     14  N   UNL     1      49.076   4.548  18.920  0.00  0.00    +0.000 NA
ATOM     15  C   UNL     1      48.521   3.262  18.478  0.00  0.00    +0.000 C 
ENDBRANCH  12  14
ENDBRANCH  11  12
ENDBRANCH   7  11
ENDBRANCH   1   8
BRANCH   4  16
ATOM     16  O   UNL     1      43.761   3.828  11.271  0.00  0.00    +0.000 OA
BRANCH  16  17
ATOM     17  C   UNL     1      43.789   4.387   9.951  0.00  0.00    +0.000 C 
BRANCH  17  18
ATOM     18  C   UNL     1      44.802   3.647   9.107  0.00  0.00    +0.000 A 
ATOM     19  C   UNL     1      44.911   2.263   9.210  0.00  0.00    +0.000 A 
ATOM     20  C   UNL     1      45.834   1.597   8.407  0.00  0.00    +0.000 A 
ATOM     21  C   UNL     1      46.648   2.318   7.532  0.00  0.00    +0.000 A 
ATOM     22  C   UNL     1      46.446   3.694   7.477  0.00  0.00    +0.000 A 
ATOM     23  N   UNL     1      45.555   4.371   8.239  0.00  0.00    +0.000 NA
BRANCH  21  24
ATOM     24  C   UNL     1      47.655   1.666   6.627  0.00  0.00    +0.000 C 
BRANCH  24  25
ATOM     25  N   UNL     1      48.728   2.570   6.222  0.00  0.00    +0.000 NA
ATOM     26  H   UNL     1      48.318   3.373   5.744  0.00  0.00    +0.000 HD
ATOM     27  H   UNL     1      49.318   2.102   5.536  0.00  0.00    +0.000 HD
ENDBRANCH  24  25
ENDBRANCH  21  24
ENDBRANCH  17  18
ENDBRANCH  16  17
ENDBRANCH   4  16
TORSDOF 9
ENDMDL
MODEL 3
REMARK VINA RESULT:    -6.786      2.488      3.122
REMARK INTER + INTRA:         -10.944
REMARK INTER:                 -10.313
REMARK INTRA:                  -0.631
REMARK UNBOUND:                -0.787
REMARK  Name = 
REMARK  11 active torsions:
REMARK  status: ('A' for Active; 'I' for Inactive)
REMARK    1  A    between atoms: C_1  and  N_2
REMARK    2  A    between atoms: N_2  and  C_3
REMARK    3  A    between atoms: N_2  and  C_4
REMARK    4  A    between atoms: C_4  and  C_5
REMARK    5  A    between atoms: C_5  and  N_6
REMARK    6  A    between atoms: C_7  and  C_9
REMARK    7  A    between atoms: C_12  and  O_13
REMARK    8  A    between atoms: O_13  and  C_14
REMARK    9  A    between atoms: C_14  and  C_15
REMARK   10  A    between atoms: C_18  and  C_19
REMARK   11  A    between atoms: C_19  and  N_20
REMARK                            x       y       z     vdW  Elec       q    Type
REMARK                         _______ _______ _______ _____ _____    ______ ____
ROOT
ATOM      1  C   UNL     1      46.751   5.286  13.570  0.00  0.00    +0.000 A 
ATOM      2  C   UNL     1      46.445   6.087  12.466  0.00  0.00    +0.000 A 
ATOM      3  C   UNL     1      45.520   5.627  11.526  0.00  0.00    +0.000 A 
ATOM      4  C   UNL     1      44.925   4.393  11.735  0.00  0.00    +0.000 A 
ATOM      5  N   UNL     1      45.225   3.585  12.772  0.00  0.00    +0.000 NA
ATOM      6  C   UNL     1      46.141   4.041  13.659  0.00  0.00    +0.000 A 
ENDROOT
BRANCH   1   8
ATOM      7  N   UNL     1      48.050   7.008  14.686  0.00  0.00    +0.000 N 
ATOM      8  C   UNL     1      47.705   5.677  14.630  0.00  0.00    +0.000 C 
ATOM      9  O   UNL     1      48.123   4.833  15.417  0.00  0.00    +0.000 OA
ATOM     10  H   UNL     1      47.502   7.704  14.193  0.00  0.00    +0.000 HD
BRANCH   7  11
ATOM     11  C   UNL     1      48.895   7.513  15.751  0.00  0.00    +0.000 C 
BRANCH  11  12
ATOM     12  C   UNL     1      48.417   8.886  16.252  0.00  0.00    +0.000 C 
BRANCH  12  14
ATOM     13  C   UNL     1      48.291   7.962  18.505  0.00  0.00    +0.000 C 
ATOM     14  N   UNL     1      48.649   9.132  17.696  0.00  0.00    +0.000 NA
ATOM     15  C   UNL     1      50.067   9.449  17.907  0.00  0.00    +0.000 C 
ENDBRANCH  12  14
ENDBRANCH  11  12
ENDBRANCH   7  11
ENDBRANCH   1   8
BRANCH   4  16
ATOM     16  O   UNL     1      44.004   3.969  10.801  0.00  0.00    +0.000 OA
BRANCH  16  17
ATOM     17  C   UNL     1      44.274   2.627  10.376  0.00  0.00    +0.000 C 
BRANCH  17  18
ATOM     18  C   UNL     1      45.073   2.650   9.093  0.00  0.00    +0.000 A 
ATOM     19  C   UNL     1      45.065   3.789   8.292  0.00  0.00    +0.000 A 
ATOM     20  C   UNL     1      45.827   3.800   7.127  0.00  0.00    +0.000 A 
ATOM     21  C   UNL     1      46.565   2.672   6.764  0.00  0.00    +0.000 A 
ATOM     22  C   UNL     1      46.535   1.593   7.642  0.00  0.00    +0.000 A 
ATOM     23  N   UNL     1      45.810   1.552   8.785  0.00  0.00    +0.000 NA
BRANCH  21  24
ATOM     24  C   UNL     1      47.420   2.617   5.529  0.00  0.00    +0.000 C 
BRANCH  24  25
ATOM     25  N   UNL     1      48.593   1.761   5.684  0.00  0.00    +0.000 NA
ATOM     26  H   UNL     1      48.290   0.787   5.697  0.00  0.00    +0.000 HD
ATOM     27  H   UNL     1      49.018   1.939   6.592  0.00  0.00    +0.000 HD
ENDBRANCH  24  25
ENDBRANCH  21  24
ENDBRANCH  17  18
ENDBRANCH  16  17
ENDBRANCH   4  16
TORSDOF 9
ENDMDL
MODEL 4
REMARK VINA RESULT:    -6.139      1.362      8.345
REMARK INTER + INTRA:          -9.977
REMARK INTER:                  -9.395
REMARK INTRA:                  -0.581
REMARK UNBOUND:                -0.787
REMARK  Name = 
REMARK  11 active torsions:
REMARK  status: ('A' for Active; 'I' for Inactive)
REMARK    1  A    between atoms: C_1  and  N_2
REMARK    2  A    between atoms: N_2  and  C_3
REMARK    3  A    between atoms: N_2  and  C_4
REMARK    4  A    between atoms: C_4  and  C_5
REMARK    5  A    between atoms: C_5  and  N_6
REMARK    6  A    between atoms: C_7  and  C_9
REMARK    7  A    between atoms: C_12  and  O_13
REMARK    8  A    between atoms: O_13  and  C_14
REMARK    9  A    between atoms: C_14  and  C_15
REMARK   10  A    between atoms: C_18  and  C_19
REMARK   11  A    between atoms: C_19  and  N_20
REMARK                            x       y       z     vdW  Elec       q    Type
REMARK                         _______ _______ _______ _____ _____    ______ ____
ROOT
ATOM      1  C   UNL     1      45.746   5.218  12.230  0.00  0.00    +0.000 A 
ATOM      2  C   UNL     1      46.671   6.266  12.243  0.00  0.00    +0.000 A 
ATOM      3  C   UNL     1      47.511   6.420  13.348  0.00  0.00    +0.000 A 
ATOM      4  C   UNL     1      47.406   5.509  14.388  0.00  0.00    +0.000 A 
ATOM      5  N   UNL     1      46.501   4.509  14.418  0.00  0.00    +0.000 NA
ATOM      6  C   UNL     1      45.681   4.394  13.346  0.00  0.00    +0.000 A 
ENDROOT
BRANCH   1   8
ATOM      7  N   UNL     1      45.227   4.037  10.172  0.00  0.00    +0.000 N 
ATOM      8  C   UNL     1      44.815   4.956  11.110  0.00  0.00    +0.000 C 
ATOM      9  O   UNL     1      43.730   5.528  11.071  0.00  0.00    +0.000 OA
ATOM     10  H   UNL     1      45.999   3.410  10.369  0.00  0.00    +0.000 HD
BRANCH   7  11
ATOM     11  C   UNL     1      44.347   3.630   9.094  0.00  0.00    +0.000 C 
BRANCH  11  12
ATOM     12  C   UNL     1      44.862   2.365   8.387  0.00  0.00    +0.000 C 
BRANCH  12  14
ATOM     13  C   UNL     1      46.801   1.104   7.617  0.00  0.00    +0.000 C 
ATOM     14  N   UNL     1      46.279   2.432   7.956  0.00  0.00    +0.000 NA
ATOM     15  C   UNL     1      46.381   3.305   6.779  0.00  0.00    +0.000 C 
ENDBRANCH  12  14
ENDBRANCH  11  12
ENDBRANCH   7  11
ENDBRANCH   1   8
BRANCH   4  16
ATOM     16  O   UNL     1      48.257   5.673  15.459  0.00  0.00    +0.000 OA
BRANCH  16  17
ATOM     17  C   UNL     1      47.909   4.798  16.540  0.00  0.00    +0.000 C 
BRANCH  17  18
ATOM     18  C   UNL     1      49.073   3.885  16.851  0.00  0.00    +0.000 A 
ATOM     19  C   UNL     1      50.174   4.378  17.546  0.00  0.00    +0.000 A 
ATOM     20  C   UNL     1      51.226   3.516  17.844  0.00  0.00    +0.000 A 
ATOM     21  C   UNL     1      51.178   2.185  17.428  0.00  0.00    +0.000 A 
ATOM     22  C   UNL     1      50.024   1.775  16.766  0.00  0.00    +0.000 A 
ATOM     23  N   UNL     1      48.982   2.586  16.465  0.00  0.00    +0.000 NA
BRANCH  21  24
ATOM     24  C   UNL     1      52.269   1.195  17.725  0.00  0.00    +0.000 C 
BRANCH  24  25
ATOM     25  N   UNL     1      53.187   1.652  18.766  0.00  0.00    +0.000 NA
ATOM     26  H   UNL     1      54.057   1.125  18.690  0.00  0.00    +0.000 HD
ATOM     27  H   UNL     1      52.796   1.425  19.678  0.00  0.00    +0.000 HD
ENDBRANCH  24  25
ENDBRANCH  21  24
ENDBRANCH  17  18
ENDBRANCH  16  17
ENDBRANCH   4  16
TORSDOF 9
ENDMDL
MODEL 5
REMARK VINA RESULT:    -5.996      2.353      2.747
REMARK INTER + INTRA:          -9.762
REMARK INTER:                  -9.226
REMARK INTRA:                  -0.536
REMARK UNBOUND:                -0.787
REMARK  Name = 
REMARK  11 active torsions:
REMARK  status: ('A' for Active; 'I' for Inactive)
REMARK    1  A    between atoms: C_1  and  N_2
REMARK    2  A    between atoms: N_2  and  C_3
REMARK    3  A    between atoms: N_2  and  C_4
REMARK    4  A    between atoms: C_4  and  C_5
REMARK    5  A    between atoms: C_5  and  N_6
REMARK    6  A    between atoms: C_7  and  C_9
REMARK    7  A    between atoms: C_12  and  O_13
REMARK    8  A    between atoms: O_13  and  C_14
REMARK    9  A    between atoms: C_14  and  C_15
REMARK   10  A    between atoms: C_18  and  C_19
REMARK   11  A    between atoms: C_19  and  N_20
REMARK                            x       y       z     vdW  Elec       q    Type
REMARK                         _______ _______ _______ _____ _____    ______ ____
ROOT
ATOM      1  C   UNL     1      47.424   5.882  14.011  0.00  0.00    +0.000 A 
ATOM      2  C   UNL     1      47.911   6.768  13.046  0.00  0.00    +0.000 A 
ATOM      3  C   UNL     1      47.239   6.885  11.827  0.00  0.00    +0.000 A 
ATOM      4  C   UNL     1      46.097   6.125  11.628  0.00  0.00    +0.000 A 
ATOM      5  N   UNL     1      45.623   5.238  12.526  0.00  0.00    +0.000 NA
ATOM      6  C   UNL     1      46.304   5.124  13.692  0.00  0.00    +0.000 A 
ENDROOT
BRANCH   1   8
ATOM      7  N   UNL     1      48.277   6.821  16.082  0.00  0.00    +0.000 N 
ATOM      8  C   UNL     1      48.048   5.686  15.337  0.00  0.00    +0.000 C 
ATOM      9  O   UNL     1      48.309   4.552  15.729  0.00  0.00    +0.000 OA
ATOM     10  H   UNL     1      47.825   7.696  15.841  0.00  0.00    +0.000 HD
BRANCH   7  11
ATOM     11  C   UNL     1      48.786   6.730  17.437  0.00  0.00    +0.000 C 
BRANCH  11  12
ATOM     12  C   UNL     1      50.122   7.477  17.593  0.00  0.00    +0.000 C 
BRANCH  12  14
ATOM     13  C   UNL     1      51.778   8.486  19.069  0.00  0.00    +0.000 C 
ATOM     14  N   UNL     1      50.561   7.672  18.995  0.00  0.00    +0.000 NA
ATOM     15  C   UNL     1      49.489   8.340  19.745  0.00  0.00    +0.000 C 
ENDBRANCH  12  14
ENDBRANCH  11  12
ENDBRANCH   7  11
ENDBRANCH   1   8
BRANCH   4  16
ATOM     16  O   UNL     1      45.444   6.270  10.423  0.00  0.00    +0.000 OA
BRANCH  16  17
ATOM     17  C   UNL     1      44.485   5.223  10.221  0.00  0.00    +0.000 C 
BRANCH  17  18
ATOM     18  C   UNL     1      45.105   4.118   9.396  0.00  0.00    +0.000 A 
ATOM     19  C   UNL     1      44.846   2.787   9.715  0.00  0.00    +0.000 A 
ATOM     20  C   UNL     1      45.407   1.784   8.929  0.00  0.00    +0.000 A 
ATOM     21  C   UNL     1      46.233   2.117   7.854  0.00  0.00    +0.000 A 
ATOM     22  C   UNL     1      46.409   3.473   7.595  0.00  0.00    +0.000 A 
ATOM     23  N   UNL     1      45.874   4.473   8.335  0.00  0.00    +0.000 NA
BRANCH  21  24
ATOM     24  C   UNL     1      46.860   1.090   6.955  0.00  0.00    +0.000 C 
BRANCH  24  25
ATOM     25  N   UNL     1      46.970  -0.226   7.581  0.00  0.00    +0.000 NA
ATOM     26  H   UNL     1      46.837  -0.122   8.588  0.00  0.00    +0.000 HD
ATOM     27  H   UNL     1      47.917  -0.577   7.455  0.00  0.00    +0.000 HD
ENDBRANCH  24  25
ENDBRANCH  21  24
ENDBRANCH  17  18
ENDBRANCH  16  17
ENDBRANCH   4  16
TORSDOF 9
ENDMDL
MODEL 6
REMARK VINA RESULT:    -5.911      3.011      3.894
REMARK INTER + INTRA:          -9.634
REMARK INTER:                  -9.213
REMARK INTRA:                  -0.421
REMARK UNBOUND:                -0.787
REMARK  Name = 
REMARK  11 active torsions:
REMARK  status: ('A' for Active; 'I' for Inactive)
REMARK    1  A    between atoms: C_1  and  N_2
REMARK    2  A    between atoms: N_2  and  C_3
REMARK    3  A    between atoms: N_2  and  C_4
REMARK    4  A    between atoms: C_4  and  C_5
REMARK    5  A    between atoms: C_5  and  N_6
REMARK    6  A    between atoms: C_7  and  C_9
REMARK    7  A    between atoms: C_12  and  O_13
REMARK    8  A    between atoms: O_13  and  C_14
REMARK    9  A    between atoms: C_14  and  C_15
REMARK   10  A    between atoms: C_18  and  C_19
REMARK   11  A    between atoms: C_19  and  N_20
REMARK                            x       y       z     vdW  Elec       q    Type
REMARK                         _______ _______ _______ _____ _____    ______ ____
ROOT
ATOM      1  C   UNL     1      46.921   7.068  12.962  0.00  0.00    +0.000 A 
ATOM      2  C   UNL     1      46.088   7.814  12.124  0.00  0.00    +0.000 A 
ATOM      3  C   UNL     1      45.144   7.152  11.336  0.00  0.00    +0.000 A 
ATOM      4  C   UNL     1      45.058   5.772  11.430  0.00  0.00    +0.000 A 
ATOM      5  N   UNL     1      45.871   5.023  12.203  0.00  0.00    +0.000 NA
ATOM      6  C   UNL     1      46.794   5.684  12.941  0.00  0.00    +0.000 A 
ENDROOT
BRANCH   1   8
ATOM      7  N   UNL     1      49.234   7.203  13.689  0.00  0.00    +0.000 N 
ATOM      8  C   UNL     1      47.947   7.664  13.845  0.00  0.00    +0.000 C 
ATOM      9  O   UNL     1      47.632   8.541  14.644  0.00  0.00    +0.000 OA
ATOM     10  H   UNL     1      49.497   6.675  12.863  0.00  0.00    +0.000 HD
BRANCH   7  11
ATOM     11  C   UNL     1      50.331   7.795  14.430  0.00  0.00    +0.000 C 
BRANCH  11  12
ATOM     12  C   UNL     1      50.846   9.077  13.753  0.00  0.00    +0.000 C 
BRANCH  12  14
ATOM     13  C   UNL     1      51.076  10.188  11.596  0.00  0.00    +0.000 C 
ATOM     14  N   UNL     1      51.202   8.921  12.323  0.00  0.00    +0.000 NA
ATOM     15  C   UNL     1      52.588   8.443  12.223  0.00  0.00    +0.000 C 
ENDBRANCH  12  14
ENDBRANCH  11  12
ENDBRANCH   7  11
ENDBRANCH   1   8
BRANCH   4  16
ATOM     16  O   UNL     1      44.108   5.143  10.654  0.00  0.00    +0.000 OA
BRANCH  16  17
ATOM     17  C   UNL     1      44.335   3.729  10.596  0.00  0.00    +0.000 C 
BRANCH  17  18
ATOM     18  C   UNL     1      45.120   3.390   9.349  0.00  0.00    +0.000 A 
ATOM     19  C   UNL     1      45.453   2.066   9.079  0.00  0.00    +0.000 A 
ATOM     20  C   UNL     1      46.156   1.771   7.914  0.00  0.00    +0.000 A 
ATOM     21  C   UNL     1      46.536   2.798   7.048  0.00  0.00    +0.000 A 
ATOM     22  C   UNL     1      46.133   4.086   7.387  0.00  0.00    +0.000 A 
ATOM     23  N   UNL     1      45.444   4.406   8.508  0.00  0.00    +0.000 NA
BRANCH  21  24
ATOM     24  C   UNL     1      47.283   2.554   5.767  0.00  0.00    +0.000 C 
BRANCH  24  25
ATOM     25  N   UNL     1      48.493   1.756   5.955  0.00  0.00    +0.000 NA
ATOM     26  H   UNL     1      48.411   1.237   6.829  0.00  0.00    +0.000 HD
ATOM     27  H   UNL     1      49.289   2.380   6.068  0.00  0.00    +0.000 HD
ENDBRANCH  24  25
ENDBRANCH  21  24
ENDBRANCH  17  18
ENDBRANCH  16  17
ENDBRANCH   4  16
TORSDOF 9
ENDMDL
MODEL 7
REMARK VINA RESULT:    -5.801      1.936      8.567
REMARK INTER + INTRA:          -9.470
REMARK INTER:                  -8.794
REMARK INTRA:                  -0.676
REMARK UNBOUND:                -0.787
REMARK  Name = 
REMARK  11 active torsions:
REMARK  status: ('A' for Active; 'I' for Inactive)
REMARK    1  A    between atoms: C_1  and  N_2
REMARK    2  A    between atoms: N_2  and  C_3
REMARK    3  A    between atoms: N_2  and  C_4
REMARK    4  A    between atoms: C_4  and  C_5
REMARK    5  A    between atoms: C_5  and  N_6
REMARK    6  A    between atoms: C_7  and  C_9
REMARK    7  A    between atoms: C_12  and  O_13
REMARK    8  A    between atoms: O_13  and  C_14
REMARK    9  A    between atoms: C_14  and  C_15
REMARK   10  A    between atoms: C_18  and  C_19
REMARK   11  A    between atoms: C_19  and  N_20
REMARK                            x       y       z     vdW  Elec       q    Type
REMARK                         _______ _______ _______ _____ _____    ______ ____
ROOT
ATOM      1  C   UNL     1      45.323   4.989  11.197  0.00  0.00    +0.000 A 
ATOM      2  C   UNL     1      45.217   4.607  12.537  0.00  0.00    +0.000 A 
ATOM      3  C   UNL     1      45.837   5.384  13.518  0.00  0.00    +0.000 A 
ATOM      4  C   UNL     1      46.523   6.521  13.123  0.00  0.00    +0.000 A 
ATOM      5  N   UNL     1      46.671   6.895  11.836  0.00  0.00    +0.000 NA
ATOM      6  C   UNL     1      46.081   6.115  10.900  0.00  0.00    +0.000 A 
ENDROOT
BRANCH   1   8
ATOM      7  N   UNL     1      45.252   4.441   8.832  0.00  0.00    +0.000 N 
ATOM      8  C   UNL     1      44.700   4.248  10.078  0.00  0.00    +0.000 C 
ATOM      9  O   UNL     1      43.760   3.489  10.296  0.00  0.00    +0.000 OA
ATOM     10  H   UNL     1      46.167   4.866   8.733  0.00  0.00    +0.000 HD
BRANCH   7  11
ATOM     11  C   UNL     1      44.784   3.683   7.687  0.00  0.00    +0.000 C 
BRANCH  11  12
ATOM     12  C   UNL     1      45.951   3.224   6.796  0.00  0.00    +0.000 C 
BRANCH  12  14
ATOM     13  C   UNL     1      46.388   1.127   7.959  0.00  0.00    +0.000 C 
ATOM     14  N   UNL     1      46.964   2.389   7.485  0.00  0.00    +0.000 NA
ATOM     15  C   UNL     1      48.061   2.099   6.553  0.00  0.00    +0.000 C 
ENDBRANCH  12  14
ENDBRANCH  11  12
ENDBRANCH   7  11
ENDBRANCH   1   8
BRANCH   4  16
ATOM     16  O   UNL     1      47.112   7.279  14.112  0.00  0.00    +0.000 OA
BRANCH  16  17
ATOM     17  C   UNL     1      48.486   6.913  14.300  0.00  0.00    +0.000 C 
BRANCH  17  18
ATOM     18  C   UNL     1      48.684   6.389  15.704  0.00  0.00    +0.000 A 
ATOM     19  C   UNL     1      48.907   7.280  16.751  0.00  0.00    +0.000 A 
ATOM     20  C   UNL     1      49.063   6.780  18.041  0.00  0.00    +0.000 A 
ATOM     21  C   UNL     1      49.020   5.403  18.267  0.00  0.00    +0.000 A 
ATOM     22  C   UNL     1      48.763   4.593  17.164  0.00  0.00    +0.000 A 
ATOM     23  N   UNL     1      48.600   5.048  15.899  0.00  0.00    +0.000 NA
BRANCH  21  24
ATOM     24  C   UNL     1      49.167   4.793  19.633  0.00  0.00    +0.000 C 
BRANCH  24  25
ATOM     25  N   UNL     1      48.372   3.579  19.805  0.00  0.00    +0.000 NA
ATOM     26  H   UNL     1      48.656   2.899  19.100  0.00  0.00    +0.000 HD
ATOM     27  H   UNL     1      47.394   3.792  19.618  0.00  0.00    +0.000 HD
ENDBRANCH  24  25
ENDBRANCH  21  24
ENDBRANCH  17  18
ENDBRANCH  16  17
ENDBRANCH   4  16
TORSDOF 9
ENDMDL
MODEL 8
REMARK VINA RESULT:    -5.316      2.810      5.878
REMARK INTER + INTRA:          -8.745
REMARK INTER:                  -7.945
REMARK INTRA:                  -0.800
REMARK UNBOUND:                -0.787
REMARK  Name = 
REMARK  11 active torsions:
REMARK  status: ('A' for Active; 'I' for Inactive)
REMARK    1  A    between atoms: C_1  and  N_2
REMARK    2  A    between atoms: N_2  and  C_3
REMARK    3  A    between atoms: N_2  and  C_4
REMARK    4  A    between atoms: C_4  and  C_5
REMARK    5  A    between atoms: C_5  and  N_6
REMARK    6  A    between atoms: C_7  and  C_9
REMARK    7  A    between atoms: C_12  and  O_13
REMARK    8  A    between atoms: O_13  and  C_14
REMARK    9  A    between atoms: C_14  and  C_15
REMARK   10  A    between atoms: C_18  and  C_19
REMARK   11  A    between atoms: C_19  and  N_20
REMARK                            x       y       z     vdW  Elec       q    Type
REMARK                         _______ _______ _______ _____ _____    ______ ____
ROOT
ATOM      1  C   UNL     1      50.449   2.493  17.262  0.00  0.00    +0.000 A 
ATOM      2  C   UNL     1      49.380   1.796  16.693  0.00  0.00    +0.000 A 
ATOM      3  C   UNL     1      48.269   2.508  16.235  0.00  0.00    +0.000 A 
ATOM      4  C   UNL     1      48.279   3.890  16.347  0.00  0.00    +0.000 A 
ATOM      5  N   UNL     1      49.281   4.586  16.921  0.00  0.00    +0.000 NA
ATOM      6  C   UNL     1      50.338   3.873  17.379  0.00  0.00    +0.000 A 
ENDROOT
BRANCH   1   8
ATOM      7  N   UNL     1      52.771   2.659  17.955  0.00  0.00    +0.000 N 
ATOM      8  C   UNL     1      51.678   1.844  17.770  0.00  0.00    +0.000 C 
ATOM      9  O   UNL     1      51.673   0.644  18.027  0.00  0.00    +0.000 OA
ATOM     10  H   UNL     1      52.666   3.668  17.975  0.00  0.00    +0.000 HD
BRANCH   7  11
ATOM     11  C   UNL     1      53.990   2.144  18.548  0.00  0.00    +0.000 C 
BRANCH  11  12
ATOM     12  C   UNL     1      55.027   1.766  17.477  0.00  0.00    +0.000 C 
BRANCH  12  14
ATOM     13  C   UNL     1      54.996  -0.370  18.651  0.00  0.00    +0.000 C 
ATOM     14  N   UNL     1      55.340   0.319  17.403  0.00  0.00    +0.000 NA
ATOM     15  C   UNL     1      54.583  -0.280  16.297  0.00  0.00    +0.000 C 
ENDBRANCH  12  14
ENDBRANCH  11  12
ENDBRANCH   7  11
ENDBRANCH   1   8
BRANCH   4  16
ATOM     16  O   UNL     1      47.178   4.570  15.873  0.00  0.00    +0.000 OA
BRANCH  16  17
ATOM     17  C   UNL     1      47.510   5.367  14.729  0.00  0.00    +0.000 C 
BRANCH  17  18
ATOM     18  C   UNL     1      46.624   4.982  13.566  0.00  0.00    +0.000 A 
ATOM     19  C   UNL     1      46.405   5.889  12.532  0.00  0.00    +0.000 A 
ATOM     20  C   UNL     1      45.605   5.508  11.459  0.00  0.00    +0.000 A 
ATOM     21  C   UNL     1      45.018   4.242  11.439  0.00  0.00    +0.000 A 
ATOM     22  C   UNL     1      45.318   3.394  12.501  0.00  0.00    +0.000 A 
ATOM     23  N   UNL     1      46.096   3.731  13.557  0.00  0.00    +0.000 NA
BRANCH  21  24
ATOM     24  C   UNL     1      44.155   3.757  10.308  0.00  0.00    +0.000 C 
BRANCH  24  25
ATOM     25  N   UNL     1      44.004   2.304  10.287  0.00  0.00    +0.000 NA
ATOM     26  H   UNL     1      43.964   1.964  11.248  0.00  0.00    +0.000 HD
ATOM     27  H   UNL     1      44.836   1.889   9.872  0.00  0.00    +0.000 HD
ENDBRANCH  24  25
ENDBRANCH  21  24
ENDBRANCH  17  18
ENDBRANCH  16  17
ENDBRANCH   4  16
TORSDOF 9
ENDMDL
MODEL 9
REMARK VINA RESULT:    -5.090      2.537      8.718
REMARK INTER + INTRA:          -8.405
REMARK INTER:                  -7.787
REMARK INTRA:                  -0.618
REMARK UNBOUND:                -0.787
REMARK  Name = 
REMARK  11 active torsions:
REMARK  status: ('A' for Active; 'I' for Inactive)
REMARK    1  A    between atoms: C_1  and  N_2
REMARK    2  A    between atoms: N_2  and  C_3
REMARK    3  A    between atoms: N_2  and  C_4
REMARK    4  A    between atoms: C_4  and  C_5
REMARK    5  A    between atoms: C_5  and  N_6
REMARK    6  A    between atoms: C_7  and  C_9
REMARK    7  A    between atoms: C_12  and  O_13
REMARK    8  A    between atoms: O_13  and  C_14
REMARK    9  A    between atoms: C_14  and  C_15
REMARK   10  A    between atoms: C_18  and  C_19
REMARK   11  A    between atoms: C_19  and  N_20
REMARK                            x       y       z     vdW  Elec       q    Type
REMARK                         _______ _______ _______ _____ _____    ______ ____
ROOT
ATOM      1  C   UNL     1      46.302   6.936  12.412  0.00  0.00    +0.000 A 
ATOM      2  C   UNL     1      47.527   6.263  12.391  0.00  0.00    +0.000 A 
ATOM      3  C   UNL     1      48.593   6.763  13.143  0.00  0.00    +0.000 A 
ATOM      4  C   UNL     1      48.386   7.906  13.900  0.00  0.00    +0.000 A 
ATOM      5  N   UNL     1      47.227   8.595  13.914  0.00  0.00    +0.000 NA
ATOM      6  C   UNL     1      46.214   8.104  13.159  0.00  0.00    +0.000 A 
ENDROOT
BRANCH   1   8
ATOM      7  N   UNL     1      45.033   5.149  11.366  0.00  0.00    +0.000 N 
ATOM      8  C   UNL     1      45.107   6.491  11.663  0.00  0.00    +0.000 C 
ATOM      9  O   UNL     1      44.235   7.302  11.365  0.00  0.00    +0.000 OA
ATOM     10  H   UNL     1      45.632   4.482  11.839  0.00  0.00    +0.000 HD
BRANCH   7  11
ATOM     11  C   UNL     1      43.854   4.593  10.729  0.00  0.00    +0.000 C 
BRANCH  11  12
ATOM     12  C   UNL     1      44.095   3.152  10.249  0.00  0.00    +0.000 C 
BRANCH  12  14
ATOM     13  C   UNL     1      45.305   1.618   8.790  0.00  0.00    +0.000 C 
ATOM     14  N   UNL     1      45.161   3.011   9.228  0.00  0.00    +0.000 NA
ATOM     15  C   UNL     1      44.829   3.848   8.068  0.00  0.00    +0.000 C 
ENDBRANCH  12  14
ENDBRANCH  11  12
ENDBRANCH   7  11
ENDBRANCH   1   8
BRANCH   4  16
ATOM     16  O   UNL     1      49.448   8.370  14.646  0.00  0.00    +0.000 OA
BRANCH  16  17
ATOM     17  C   UNL     1      50.279   7.292  15.097  0.00  0.00    +0.000 C 
BRANCH  17  18
ATOM     18  C   UNL     1      49.774   6.785  16.429  0.00  0.00    +0.000 A 
ATOM     19  C   UNL     1      49.521   7.683  17.462  0.00  0.00    +0.000 A 
ATOM     20  C   UNL     1      49.034   7.199  18.673  0.00  0.00    +0.000 A 
ATOM     21  C   UNL     1      48.828   5.829  18.847  0.00  0.00    +0.000 A 
ATOM     22  C   UNL     1      49.081   5.013  17.749  0.00  0.00    +0.000 A 
ATOM     23  N   UNL     1      49.549   5.452  16.556  0.00  0.00    +0.000 NA
BRANCH  21  24
ATOM     24  C   UNL     1      48.293   5.237  20.120  0.00  0.00    +0.000 C 
BRANCH  24  25
ATOM     25  N   UNL     1      48.569   3.808  20.246  0.00  0.00    +0.000 NA
ATOM     26  H   UNL     1      48.218   3.332  19.415  0.00  0.00    +0.000 HD
ATOM     27  H   UNL     1      48.041   3.435  21.032  0.00  0.00    +0.000 HD
ENDBRANCH  24  25
ENDBRANCH  21  24
ENDBRANCH  17  18
ENDBRANCH  16  17
ENDBRANCH   4  16
TORSDOF 9
ENDMDL
