MODEL 1
REMARK VINA RESULT:    -8.369      0.000      0.000
REMARK INTER + INTRA:         -11.607
REMARK INTER:                 -10.815
REMARK INTRA:                  -0.792
REMARK UNBOUND:                -0.792
REMARK  Name = 
REMARK  5 active torsions:
REMARK  status: ('A' for Active; 'I' for Inactive)
REMARK    1  A    between atoms: C_2  and  C_4
REMARK    2  A    between atoms: C_7  and  O_8
REMARK    3  A    between atoms: O_8  and  C_9
REMARK    4  A    between atoms: C_9  and  C_10
REMARK    5  A    between atoms: C_14  and  C_15
REMARK                            x       y       z     vdW  Elec       q    Type
REMARK                         _______ _______ _______ _____ _____    ______ ____
ROOT
ATOM      1  C   UNL     1      43.840   5.344  10.894  0.00  0.00    +0.000 C 
ENDROOT
BRANCH   1   2
ATOM      2  C   UNL     1      44.932   5.241  11.925  0.00  0.00    +0.000 A 
ATOM      3  C   UNL     1      44.894   4.242  12.888  0.00  0.00    +0.000 A 
ATOM      4  N   UNL     1      45.852   4.055  13.819  0.00  0.00    +0.000 NA
ATOM      5  C   UNL     1      46.909   4.902  13.784  0.00  0.00    +0.000 A 
ATOM      6  C   UNL     1      47.088   5.930  12.854  0.00  0.00    +0.000 A 
ATOM      7  C   UNL     1      46.058   6.075  11.911  0.00  0.00    +0.000 A 
BRANCH   6   8
ATOM      8  C   UNL     1      48.280   6.796  12.850  0.00  0.00    +0.000 A 
ATOM      9  C   UNL     1      48.744   7.429  11.686  0.00  0.00    +0.000 A 
ATOM     10  C   UNL     1      49.886   8.230  11.715  0.00  0.00    +0.000 A 
ATOM     11  C   UNL     1      50.543   8.392  12.919  0.00  0.00    +0.000 A 
ATOM     12  N   UNL     1      50.144   7.813  14.067  0.00  0.00    +0.000 NA
ATOM     13  C   UNL     1      49.036   7.033  14.003  0.00  0.00    +0.000 A 
ENDBRANCH   6   8
ENDBRANCH   1   2
BRANCH   1  14
ATOM     14  O   UNL     1      43.587   4.065  10.302  0.00  0.00    +0.000 OA
BRANCH  14  18
ATOM     15  C   UNL     1      46.354   2.409   7.758  0.00  0.00    +0.000 A 
ATOM     16  C   UNL     1      46.164   3.781   7.660  0.00  0.00    +0.000 A 
ATOM     17  C   UNL     1      45.229   4.386   8.499  0.00  0.00    +0.000 A 
ATOM     18  C   UNL     1      44.518   3.612   9.410  0.00  0.00    +0.000 A 
ATOM     19  C   UNL     1      44.775   2.240   9.427  0.00  0.00    +0.000 A 
ATOM     20  N   UNL     1      45.670   1.612   8.624  0.00  0.00    +0.000 NA
BRANCH  15  22
ATOM     21  N   UNL     1      48.428   2.529   6.503  0.00  0.00    +0.000 N 
ATOM     22  C   UNL     1      47.370   1.748   6.879  0.00  0.00    +0.000 C 
ATOM     23  O   UNL     1      47.268   0.583   6.517  0.00  0.00    +0.000 OA
ATOM     24  H   UNL     1      49.146   2.139   5.911  0.00  0.00    +0.000 HD
ATOM     25  H   UNL     1      48.490   3.486   6.831  0.00  0.00    +0.000 HD
ENDBRANCH  15  22
ENDBRANCH  14  18
ENDBRANCH   1  14
TORSDOF 5
ENDMDL
MODEL 2
REMARK VINA RESULT:    -8.265      1.301      1.408
REMARK INTER + INTRA:         -11.473
REMARK INTER:                 -10.763
REMARK INTRA:                  -0.710
REMARK UNBOUND:                -0.792
REMARK  Name = 
REMARK  5 active torsions:
REMARK  status: ('A' for Active; 'I' for Inactive)
REMARK    1  A    between atoms: C_2  and  C_4
REMARK    2  A    between atoms: C_7  and  O_8
REMARK    3  A    between atoms: O_8  and  C_9
REMARK    4  A    between atoms: C_9  and  C_10
REMARK    5  A    between atoms: C_14  and  C_15
REMARK                            x       y       z     vdW  Elec       q    Type
REMARK                         _______ _______ _______ _____ _____    ______ ____
ROOT
ATOM      1  C   UNL     1      43.393   4.398  10.921  0.00  0.00    +0.000 C 
ENDROOT
BRANCH   1   2
ATOM      2  C   UNL     1      44.525   4.790  11.831  0.00  0.00    +0.000 A 
ATOM      3  C   UNL     1      44.924   3.946  12.858  0.00  0.00    +0.000 A 
ATOM      4  N   UNL     1      45.955   4.203  13.689  0.00  0.00    +0.000 NA
ATOM      5  C   UNL     1      46.632   5.358  13.480  0.00  0.00    +0.000 A 
ATOM      6  C   UNL     1      46.356   6.282  12.469  0.00  0.00    +0.000 A 
ATOM      7  C   UNL     1      45.272   5.960  11.636  0.00  0.00    +0.000 A 
BRANCH   6   8
ATOM      8  C   UNL     1      47.155   7.506  12.275  0.00  0.00    +0.000 A 
ATOM      9  C   UNL     1      48.433   7.484  11.694  0.00  0.00    +0.000 A 
ATOM     10  C   UNL     1      49.168   8.660  11.540  0.00  0.00    +0.000 A 
ATOM     11  C   UNL     1      48.603   9.847  11.965  0.00  0.00    +0.000 A 
ATOM     12  N   UNL     1      47.381   9.930  12.525  0.00  0.00    +0.000 NA
ATOM     13  C   UNL     1      46.697   8.768  12.669  0.00  0.00    +0.000 A 
ENDBRANCH   6   8
ENDBRANCH   1   2
BRANCH   1  14
ATOM     14  O   UNL     1      43.623   3.099  10.364  0.00  0.00    +0.000 OA
BRANCH  14  18
ATOM     15  C   UNL     1      46.438   2.572   7.420  0.00  0.00    +0.000 A 
ATOM     16  C   UNL     1      45.862   3.833   7.510  0.00  0.00    +0.000 A 
ATOM     17  C   UNL     1      44.896   4.057   8.489  0.00  0.00    +0.000 A 
ATOM     18  C   UNL     1      44.537   3.025   9.351  0.00  0.00    +0.000 A 
ATOM     19  C   UNL     1      45.168   1.792   9.176  0.00  0.00    +0.000 A 
ATOM     20  N   UNL     1      46.106   1.531   8.232  0.00  0.00    +0.000 NA
BRANCH  15  22
ATOM     21  N   UNL     1      47.485   3.173   5.314  0.00  0.00    +0.000 N 
ATOM     22  C   UNL     1      47.492   2.324   6.386  0.00  0.00    +0.000 C 
ATOM     23  O   UNL     1      48.313   1.421   6.487  0.00  0.00    +0.000 OA
ATOM     24  H   UNL     1      48.172   3.056   4.584  0.00  0.00    +0.000 HD
ATOM     25  H   UNL     1      46.800   3.919   5.267  0.00  0.00    +0.000 HD
ENDBRANCH  15  22
ENDBRANCH  14  18
ENDBRANCH   1  14
TORSDOF 5
ENDMDL
MODEL 3
REMARK VINA RESULT:    -8.015      1.907      2.871
REMARK INTER + INTRA:         -11.150
REMARK INTER:                 -10.499
REMARK INTRA:                  -0.651
REMARK UNBOUND:                -0.792
REMARK  Name = 
REMARK  5 active torsions:
REMARK  status: ('A' for Active; 'I' for Inactive)
REMARK    1  A    between atoms: C_2  and  C_4
REMARK    2  A    between atoms: C_7  and  O_8
REMARK    3  A    between atoms: O_8  and  C_9
REMARK    4  A    between atoms: C_9  and  C_10
REMARK    5  A    between atoms: C_14  and  C_15
REMARK                            x       y       z     vdW  Elec       q    Type
REMARK                         _______ _______ _______ _____ _____    ______ ____
ROOT
ATOM      1  C   UNL     1      43.750   4.558  11.350  0.00  0.00    +0.000 C 
ENDROOT
BRANCH   1   2
ATOM      2  C   UNL     1      44.956   5.257  11.919  0.00  0.00    +0.000 A 
ATOM      3  C   UNL     1      45.410   6.443  11.357  0.00  0.00    +0.000 A 
ATOM      4  N   UNL     1      46.453   7.152  11.832  0.00  0.00    +0.000 NA
ATOM      5  C   UNL     1      47.075   6.660  12.931  0.00  0.00    +0.000 A 
ATOM      6  C   UNL     1      46.706   5.497  13.612  0.00  0.00    +0.000 A 
ATOM      7  C   UNL     1      45.612   4.802  13.071  0.00  0.00    +0.000 A 
BRANCH   6   8
ATOM      8  C   UNL     1      47.404   5.034  14.825  0.00  0.00    +0.000 A 
ATOM      9  C   UNL     1      47.177   3.766  15.384  0.00  0.00    +0.000 A 
ATOM     10  C   UNL     1      47.844   3.366  16.542  0.00  0.00    +0.000 A 
ATOM     11  C   UNL     1      48.739   4.245  17.120  0.00  0.00    +0.000 A 
ATOM     12  N   UNL     1      48.999   5.471  16.628  0.00  0.00    +0.000 NA
ATOM     13  C   UNL     1      48.328   5.833  15.507  0.00  0.00    +0.000 A 
ENDBRANCH   6   8
ENDBRANCH   1   2
BRANCH   1  14
ATOM     14  O   UNL     1      43.721   4.689   9.925  0.00  0.00    +0.000 OA
BRANCH  14  18
ATOM     15  C   UNL     1      46.188   2.034   7.992  0.00  0.00    +0.000 A 
ATOM     16  C   UNL     1      46.322   3.373   7.645  0.00  0.00    +0.000 A 
ATOM     17  C   UNL     1      45.501   4.310   8.270  0.00  0.00    +0.000 A 
ATOM     18  C   UNL     1      44.577   3.889   9.222  0.00  0.00    +0.000 A 
ATOM     19  C   UNL     1      44.512   2.522   9.496  0.00  0.00    +0.000 A 
ATOM     20  N   UNL     1      45.288   1.578   8.906  0.00  0.00    +0.000 NA
BRANCH  15  22
ATOM     21  N   UNL     1      46.824  -0.285   7.668  0.00  0.00    +0.000 N 
ATOM     22  C   UNL     1      47.078   1.020   7.345  0.00  0.00    +0.000 C 
ATOM     23  O   UNL     1      47.976   1.329   6.573  0.00  0.00    +0.000 OA
ATOM     24  H   UNL     1      47.390  -1.016   7.262  0.00  0.00    +0.000 HD
ATOM     25  H   UNL     1      46.063  -0.509   8.300  0.00  0.00    +0.000 HD
ENDBRANCH  15  22
ENDBRANCH  14  18
ENDBRANCH   1  14
TORSDOF 5
ENDMDL
MODEL 4
REMARK VINA RESULT:    -7.987      1.339      1.626
REMARK INTER + INTRA:         -11.114
REMARK INTER:                 -10.476
REMARK INTRA:                  -0.639
REMARK UNBOUND:                -0.792
REMARK  Name = 
REMARK  5 active torsions:
REMARK  status: ('A' for Active; 'I' for Inactive)
REMARK    1  A    between atoms: C_2  and  C_4
REMARK    2  A    between atoms: C_7  and  O_8
REMARK    3  A    between atoms: O_8  and  C_9
REMARK    4  A    between atoms: C_9  and  C_10
REMARK    5  A    between atoms: C_14  and  C_15
REMARK                            x       y       z     vdW  Elec       q    Type
REMARK                         _______ _______ _______ _____ _____    ______ ____
ROOT
ATOM      1  C   UNL     1      43.900   3.509  11.641  0.00  0.00    +0.000 C 
ENDROOT
BRANCH   1   2
ATOM      2  C   UNL     1      44.399   4.928  11.656  0.00  0.00    +0.000 A 
ATOM      3  C   UNL     1      43.540   5.977  11.357  0.00  0.00    +0.000 A 
ATOM      4  N   UNL     1      43.897   7.277  11.390  0.00  0.00    +0.000 NA
ATOM      5  C   UNL     1      45.175   7.550  11.748  0.00  0.00    +0.000 A 
ATOM      6  C   UNL     1      46.133   6.596  12.101  0.00  0.00    +0.000 A 
ATOM      7  C   UNL     1      45.703   5.260  12.048  0.00  0.00    +0.000 A 
BRANCH   6   8
ATOM      8  C   UNL     1      47.500   6.962  12.515  0.00  0.00    +0.000 A 
ATOM      9  C   UNL     1      48.359   7.707  11.692  0.00  0.00    +0.000 A 
ATOM     10  C   UNL     1      49.653   8.022  12.110  0.00  0.00    +0.000 A 
ATOM     11  C   UNL     1      50.063   7.591  13.356  0.00  0.00    +0.000 A 
ATOM     12  N   UNL     1      49.283   6.877  14.189  0.00  0.00    +0.000 NA
ATOM     13  C   UNL     1      48.035   6.579  13.750  0.00  0.00    +0.000 A 
ENDBRANCH   6   8
ENDBRANCH   1   2
BRANCH   1  14
ATOM     14  O   UNL     1      43.456   3.147  10.329  0.00  0.00    +0.000 OA
BRANCH  14  18
ATOM     15  C   UNL     1      46.419   2.531   7.552  0.00  0.00    +0.000 A 
ATOM     16  C   UNL     1      45.840   3.793   7.572  0.00  0.00    +0.000 A 
ATOM     17  C   UNL     1      44.824   4.046   8.493  0.00  0.00    +0.000 A 
ATOM     18  C   UNL     1      44.421   3.041   9.367  0.00  0.00    +0.000 A 
ATOM     19  C   UNL     1      45.059   1.804   9.263  0.00  0.00    +0.000 A 
ATOM     20  N   UNL     1      46.045   1.515   8.377  0.00  0.00    +0.000 NA
BRANCH  15  22
ATOM     21  N   UNL     1      47.466   2.937   5.400  0.00  0.00    +0.000 N 
ATOM     22  C   UNL     1      47.525   2.251   6.582  0.00  0.00    +0.000 C 
ATOM     23  O   UNL     1      48.428   1.461   6.824  0.00  0.00    +0.000 OA
ATOM     24  H   UNL     1      48.185   2.791   4.706  0.00  0.00    +0.000 HD
ATOM     25  H   UNL     1      46.712   3.595   5.236  0.00  0.00    +0.000 HD
ENDBRANCH  15  22
ENDBRANCH  14  18
ENDBRANCH   1  14
TORSDOF 5
ENDMDL
MODEL 5
REMARK VINA RESULT:    -7.738      2.728      3.452
REMARK INTER + INTRA:         -10.792
REMARK INTER:                 -10.034
REMARK INTRA:                  -0.758
REMARK UNBOUND:                -0.792
REMARK  Name = 
REMARK  5 active torsions:
REMARK  status: ('A' for Active; 'I' for Inactive)
REMARK    1  A    between atoms: C_2  and  C_4
REMARK    2  A    between atoms: C_7  and  O_8
REMARK    3  A    between atoms: O_8  and  C_9
REMARK    4  A    between atoms: C_9  and  C_10
REMARK    5  A    between atoms: C_14  and  C_15
REMARK                            x       y       z     vdW  Elec       q    Type
REMARK                         _______ _______ _______ _____ _____    ______ ____
ROOT
ATOM      1  C   UNL     1      43.822   3.895  11.751  0.00  0.00    +0.000 C 
ENDROOT
BRANCH   1   2
ATOM      2  C   UNL     1      44.691   5.089  12.040  0.00  0.00    +0.000 A 
ATOM      3  C   UNL     1      45.965   4.918  12.565  0.00  0.00    +0.000 A 
ATOM      4  N   UNL     1      46.822   5.930  12.812  0.00  0.00    +0.000 NA
ATOM      5  C   UNL     1      46.391   7.180  12.511  0.00  0.00    +0.000 A 
ATOM      6  C   UNL     1      45.148   7.491  11.954  0.00  0.00    +0.000 A 
ATOM      7  C   UNL     1      44.301   6.397  11.720  0.00  0.00    +0.000 A 
BRANCH   6   8
ATOM      8  C   UNL     1      44.754   8.872  11.618  0.00  0.00    +0.000 A 
ATOM      9  C   UNL     1      43.679   9.158  10.763  0.00  0.00    +0.000 A 
ATOM     10  C   UNL     1      43.343  10.477  10.455  0.00  0.00    +0.000 A 
ATOM     11  C   UNL     1      44.089  11.493  11.019  0.00  0.00    +0.000 A 
ATOM     12  N   UNL     1      45.128  11.279  11.848  0.00  0.00    +0.000 NA
ATOM     13  C   UNL     1      45.435   9.986  12.120  0.00  0.00    +0.000 A 
ENDBRANCH   6   8
ENDBRANCH   1   2
BRANCH   1  14
ATOM     14  O   UNL     1      43.460   3.861  10.367  0.00  0.00    +0.000 OA
BRANCH  14  18
ATOM     15  C   UNL     1      46.297   2.729   7.619  0.00  0.00    +0.000 A 
ATOM     16  C   UNL     1      45.862   1.749   8.503  0.00  0.00    +0.000 A 
ATOM     17  C   UNL     1      44.905   2.090   9.458  0.00  0.00    +0.000 A 
ATOM     18  C   UNL     1      44.407   3.388   9.502  0.00  0.00    +0.000 A 
ATOM     19  C   UNL     1      44.913   4.302   8.577  0.00  0.00    +0.000 A 
ATOM     20  N   UNL     1      45.848   4.014   7.637  0.00  0.00    +0.000 NA
BRANCH  15  22
ATOM     21  N   UNL     1      47.457   3.278   5.560  0.00  0.00    +0.000 N 
ATOM     22  C   UNL     1      47.308   2.373   6.575  0.00  0.00    +0.000 C 
ATOM     23  O   UNL     1      47.965   1.341   6.619  0.00  0.00    +0.000 OA
ATOM     24  H   UNL     1      48.126   3.094   4.826  0.00  0.00    +0.000 HD
ATOM     25  H   UNL     1      46.908   4.130   5.559  0.00  0.00    +0.000 HD
ENDBRANCH  15  22
ENDBRANCH  14  18
ENDBRANCH   1  14
TORSDOF 5
ENDMDL
MODEL 6
REMARK VINA RESULT:    -7.578      2.549      6.956
REMARK INTER + INTRA:         -10.585
REMARK INTER:                 -10.432
REMARK INTRA:                  -0.153
REMARK UNBOUND:                -0.792
REMARK  Name = 
REMARK  5 active torsions:
REMARK  status: ('A' for Active; 'I' for Inactive)
REMARK    1  A    between atoms: C_2  and  C_4
REMARK    2  A    between atoms: C_7  and  O_8
REMARK    3  A    between atoms: O_8  and  C_9
REMARK    4  A    between atoms: C_9  and  C_10
REMARK    5  A    between atoms: C_14  and  C_15
REMARK                            x       y       z     vdW  Elec       q    Type
REMARK                         _______ _______ _______ _____ _____    ______ ____
ROOT
ATOM      1  C   UNL     1      44.294   5.761  11.149  0.00  0.00    +0.000 C 
ENDROOT
BRANCH   1   2
ATOM      2  C   UNL     1      44.425   4.409  10.502  0.00  0.00    +0.000 A 
ATOM      3  C   UNL     1      43.634   3.350  10.924  0.00  0.00    +0.000 A 
ATOM      4  N   UNL     1      43.659   2.120  10.370  0.00  0.00    +0.000 NA
ATOM      5  C   UNL     1      44.511   1.938   9.332  0.00  0.00    +0.000 A 
ATOM      6  C   UNL     1      45.342   2.922   8.789  0.00  0.00    +0.000 A 
ATOM      7  C   UNL     1      45.271   4.180   9.408  0.00  0.00    +0.000 A 
BRANCH   6   8
ATOM      8  C   UNL     1      46.224   2.666   7.635  0.00  0.00    +0.000 A 
ATOM      9  C   UNL     1      46.283   3.530   6.530  0.00  0.00    +0.000 A 
ATOM     10  C   UNL     1      47.117   3.248   5.448  0.00  0.00    +0.000 A 
ATOM     11  C   UNL     1      47.889   2.104   5.495  0.00  0.00    +0.000 A 
ATOM     12  N   UNL     1      47.877   1.241   6.529  0.00  0.00    +0.000 NA
ATOM     13  C   UNL     1      47.048   1.538   7.561  0.00  0.00    +0.000 A 
ENDBRANCH   6   8
ENDBRANCH   1   2
BRANCH   1  14
ATOM     14  O   UNL     1      45.585   6.325  11.400  0.00  0.00    +0.000 OA
BRANCH  14  18
ATOM     15  C   UNL     1      47.197   4.952  14.920  0.00  0.00    +0.000 A 
ATOM     16  C   UNL     1      47.918   5.930  14.247  0.00  0.00    +0.000 A 
ATOM     17  C   UNL     1      47.413   6.421  13.043  0.00  0.00    +0.000 A 
ATOM     18  C   UNL     1      46.208   5.930  12.551  0.00  0.00    +0.000 A 
ATOM     19  C   UNL     1      45.563   4.943  13.297  0.00  0.00    +0.000 A 
ATOM     20  N   UNL     1      46.022   4.434  14.467  0.00  0.00    +0.000 NA
BRANCH  15  22
ATOM     21  N   UNL     1      47.159   4.979  17.347  0.00  0.00    +0.000 N 
ATOM     22  C   UNL     1      47.716   4.431  16.224  0.00  0.00    +0.000 C 
ATOM     23  O   UNL     1      48.582   3.568  16.290  0.00  0.00    +0.000 OA
ATOM     24  H   UNL     1      47.467   4.667  18.256  0.00  0.00    +0.000 HD
ATOM     25  H   UNL     1      46.434   5.682  17.258  0.00  0.00    +0.000 HD
ENDBRANCH  15  22
ENDBRANCH  14  18
ENDBRANCH   1  14
TORSDOF 5
ENDMDL
MODEL 7
REMARK VINA RESULT:    -7.327      2.499      6.934
REMARK INTER + INTRA:         -10.261
REMARK INTER:                  -9.767
REMARK INTRA:                  -0.494
REMARK UNBOUND:                -0.792
REMARK  Name = 
REMARK  5 active torsions:
REMARK  status: ('A' for Active; 'I' for Inactive)
REMARK    1  A    between atoms: C_2  and  C_4
REMARK    2  A    between atoms: C_7  and  O_8
REMARK    3  A    between atoms: O_8  and  C_9
REMARK    4  A    between atoms: C_9  and  C_10
REMARK    5  A    between atoms: C_14  and  C_15
REMARK                            x       y       z     vdW  Elec       q    Type
REMARK                         _______ _______ _______ _____ _____    ______ ____
ROOT
ATOM      1  C   UNL     1      44.111   6.540  11.480  0.00  0.00    +0.000 C 
ENDROOT
BRANCH   1   2
ATOM      2  C   UNL     1      44.122   5.101  11.039  0.00  0.00    +0.000 A 
ATOM      3  C   UNL     1      43.280   4.177  11.642  0.00  0.00    +0.000 A 
ATOM      4  N   UNL     1      43.197   2.881  11.278  0.00  0.00    +0.000 NA
ATOM      5  C   UNL     1      43.989   2.485  10.252  0.00  0.00    +0.000 A 
ATOM      6  C   UNL     1      44.860   3.314   9.540  0.00  0.00    +0.000 A 
ATOM      7  C   UNL     1      44.902   4.652   9.965  0.00  0.00    +0.000 A 
BRANCH   6   8
ATOM      8  C   UNL     1      45.670   2.827   8.409  0.00  0.00    +0.000 A 
ATOM      9  C   UNL     1      46.001   3.644   7.316  0.00  0.00    +0.000 A 
ATOM     10  C   UNL     1      46.757   3.145   6.255  0.00  0.00    +0.000 A 
ATOM     11  C   UNL     1      47.179   1.831   6.311  0.00  0.00    +0.000 A 
ATOM     12  N   UNL     1      46.895   1.002   7.333  0.00  0.00    +0.000 NA
ATOM     13  C   UNL     1      46.151   1.514   8.345  0.00  0.00    +0.000 A 
ENDBRANCH   6   8
ENDBRANCH   1   2
BRANCH   1  14
ATOM     14  O   UNL     1      45.354   7.173  11.159  0.00  0.00    +0.000 OA
BRANCH  14  18
ATOM     15  C   UNL     1      48.230   7.056  14.089  0.00  0.00    +0.000 A 
ATOM     16  C   UNL     1      47.432   8.192  14.048  0.00  0.00    +0.000 A 
ATOM     17  C   UNL     1      46.447   8.279  13.065  0.00  0.00    +0.000 A 
ATOM     18  C   UNL     1      46.282   7.235  12.160  0.00  0.00    +0.000 A 
ATOM     19  C   UNL     1      47.139   6.140  12.279  0.00  0.00    +0.000 A 
ATOM     20  N   UNL     1      48.114   6.019  13.215  0.00  0.00    +0.000 NA
BRANCH  15  22
ATOM     21  N   UNL     1      50.124   8.007  15.272  0.00  0.00    +0.000 N 
ATOM     22  C   UNL     1      49.278   6.939  15.152  0.00  0.00    +0.000 C 
ATOM     23  O   UNL     1      49.377   5.955  15.873  0.00  0.00    +0.000 OA
ATOM     24  H   UNL     1      50.852   7.987  15.972  0.00  0.00    +0.000 HD
ATOM     25  H   UNL     1      50.007   8.813  14.668  0.00  0.00    +0.000 HD
ENDBRANCH  15  22
ENDBRANCH  14  18
ENDBRANCH   1  14
TORSDOF 5
ENDMDL
MODEL 8
REMARK VINA RESULT:    -6.526      1.873      2.331
REMARK INTER + INTRA:          -9.226
REMARK INTER:                  -8.500
REMARK INTRA:                  -0.726
REMARK UNBOUND:                -0.792
REMARK  Name = 
REMARK  5 active torsions:
REMARK  status: ('A' for Active; 'I' for Inactive)
REMARK    1  A    between atoms: C_2  and  C_4
REMARK    2  A    between atoms: C_7  and  O_8
REMARK    3  A    between atoms: O_8  and  C_9
REMARK    4  A    between atoms: C_9  and  C_10
REMARK    5  A    between atoms: C_14  and  C_15
REMARK                            x       y       z     vdW  Elec       q    Type
REMARK                         _______ _______ _______ _____ _____    ______ ____
ROOT
ATOM      1  C   UNL     1      45.105   5.244  12.002  0.00  0.00    +0.000 C 
ENDROOT
BRANCH   1   2
ATOM      2  C   UNL     1      45.687   6.628  12.106  0.00  0.00    +0.000 A 
ATOM      3  C   UNL     1      44.926   7.673  12.613  0.00  0.00    +0.000 A 
ATOM      4  N   UNL     1      45.386   8.930  12.779  0.00  0.00    +0.000 NA
ATOM      5  C   UNL     1      46.675   9.159  12.429  0.00  0.00    +0.000 A 
ATOM      6  C   UNL     1      47.559   8.195  11.934  0.00  0.00    +0.000 A 
ATOM      7  C   UNL     1      47.023   6.906  11.784  0.00  0.00    +0.000 A 
BRANCH   6   8
ATOM      8  C   UNL     1      48.962   8.503  11.605  0.00  0.00    +0.000 A 
ATOM      9  C   UNL     1      49.424   9.819  11.445  0.00  0.00    +0.000 A 
ATOM     10  C   UNL     1      50.757  10.073  11.118  0.00  0.00    +0.000 A 
ATOM     11  C   UNL     1      51.611   8.998  10.964  0.00  0.00    +0.000 A 
ATOM     12  N   UNL     1      51.225   7.716  11.107  0.00  0.00    +0.000 NA
ATOM     13  C   UNL     1      49.922   7.502  11.417  0.00  0.00    +0.000 A 
ENDBRANCH   6   8
ENDBRANCH   1   2
BRANCH   1  14
ATOM     14  O   UNL     1      44.409   5.085  10.762  0.00  0.00    +0.000 OA
BRANCH  14  18
ATOM     15  C   UNL     1      46.160   2.510   8.083  0.00  0.00    +0.000 A 
ATOM     16  C   UNL     1      46.359   3.867   7.861  0.00  0.00    +0.000 A 
ATOM     17  C   UNL     1      45.777   4.779   8.740  0.00  0.00    +0.000 A 
ATOM     18  C   UNL     1      45.023   4.315   9.814  0.00  0.00    +0.000 A 
ATOM     19  C   UNL     1      44.874   2.934   9.947  0.00  0.00    +0.000 A 
ATOM     20  N   UNL     1      45.418   2.014   9.110  0.00  0.00    +0.000 NA
BRANCH  15  22
ATOM     21  N   UNL     1      46.790   0.220   7.587  0.00  0.00    +0.000 N 
ATOM     22  C   UNL     1      46.796   1.519   7.159  0.00  0.00    +0.000 C 
ATOM     23  O   UNL     1      47.290   1.841   6.086  0.00  0.00    +0.000 OA
ATOM     24  H   UNL     1      47.204  -0.496   7.006  0.00  0.00    +0.000 HD
ATOM     25  H   UNL     1      46.361  -0.017   8.474  0.00  0.00    +0.000 HD
ENDBRANCH  15  22
ENDBRANCH  14  18
ENDBRANCH   1  14
TORSDOF 5
ENDMDL
MODEL 9
REMARK VINA RESULT:    -6.267      4.120      8.352
REMARK INTER + INTRA:          -8.891
REMARK INTER:                  -8.323
REMARK INTRA:                  -0.568
REMARK UNBOUND:                -0.792
REMARK  Name = 
REMARK  5 active torsions:
REMARK  status: ('A' for Active; 'I' for Inactive)
REMARK    1  A    between atoms: C_2  and  C_4
REMARK    2  A    between atoms: C_7  and  O_8
REMARK    3  A    between atoms: O_8  and  C_9
REMARK    4  A    between atoms: C_9  and  C_10
REMARK    5  A    between atoms: C_14  and  C_15
REMARK                            x       y       z     vdW  Elec       q    Type
REMARK                         _______ _______ _______ _____ _____    ______ ____
ROOT
ATOM      1  C   UNL     1      48.295   7.274  13.940  0.00  0.00    +0.000 C 
ENDROOT
BRANCH   1   2
ATOM      2  C   UNL     1      47.066   7.250  13.072  0.00  0.00    +0.000 A 
ATOM      3  C   UNL     1      46.230   8.356  13.008  0.00  0.00    +0.000 A 
ATOM      4  N   UNL     1      45.135   8.431  12.225  0.00  0.00    +0.000 NA
ATOM      5  C   UNL     1      44.861   7.349  11.456  0.00  0.00    +0.000 A 
ATOM      6  C   UNL     1      45.631   6.184  11.401  0.00  0.00    +0.000 A 
ATOM      7  C   UNL     1      46.757   6.166  12.239  0.00  0.00    +0.000 A 
BRANCH   6   8
ATOM      8  C   UNL     1      45.295   5.054  10.516  0.00  0.00    +0.000 A 
ATOM      9  C   UNL     1      45.663   5.028   9.161  0.00  0.00    +0.000 A 
ATOM     10  C   UNL     1      45.315   3.949   8.347  0.00  0.00    +0.000 A 
ATOM     11  C   UNL     1      44.609   2.904   8.910  0.00  0.00    +0.000 A 
ATOM     12  N   UNL     1      44.232   2.873  10.202  0.00  0.00    +0.000 NA
ATOM     13  C   UNL     1      44.577   3.940  10.964  0.00  0.00    +0.000 A 
ENDBRANCH   6   8
ENDBRANCH   1   2
BRANCH   1  14
ATOM     14  O   UNL     1      48.567   5.970  14.462  0.00  0.00    +0.000 OA
BRANCH  14  18
ATOM     15  C   UNL     1      48.248   5.364  18.513  0.00  0.00    +0.000 A 
ATOM     16  C   UNL     1      49.125   6.359  18.101  0.00  0.00    +0.000 A 
ATOM     17  C   UNL     1      49.272   6.595  16.735  0.00  0.00    +0.000 A 
ATOM     18  C   UNL     1      48.539   5.842  15.823  0.00  0.00    +0.000 A 
ATOM     19  C   UNL     1      47.690   4.860  16.335  0.00  0.00    +0.000 A 
ATOM     20  N   UNL     1      47.524   4.594  17.655  0.00  0.00    +0.000 NA
BRANCH  15  22
ATOM     21  N   UNL     1      48.614   3.955  20.454  0.00  0.00    +0.000 N 
ATOM     22  C   UNL     1      48.064   5.114  19.977  0.00  0.00    +0.000 C 
ATOM     23  O   UNL     1      47.464   5.891  20.708  0.00  0.00    +0.000 OA
ATOM     24  H   UNL     1      48.524   3.731  21.435  0.00  0.00    +0.000 HD
ATOM     25  H   UNL     1      49.117   3.339  19.826  0.00  0.00    +0.000 HD
ENDBRANCH  15  22
ENDBRANCH  14  18
ENDBRANCH   1  14
TORSDOF 5
ENDMDL
