MODEL 1
REMARK VINA RESULT:    -8.428      0.000      0.000
REMARK INTER + INTRA:         -11.092
REMARK INTER:                 -10.645
REMARK INTRA:                  -0.448
REMARK UNBOUND:                -0.448
REMARK  Name = 
REMARK  5 active torsions:
REMARK  status: ('A' for Active; 'I' for Inactive)
REMARK    1  A    between atoms: N_1  and  C_2
REMARK    2  A    between atoms: C_2  and  C_3
REMARK    3  A    between atoms: C_7  and  C_8
REMARK    4  A    between atoms: C_8  and  N_9
REMARK    5  A    between atoms: C_13  and  C_14
REMARK                            x       y       z     vdW  Elec       q    Type
REMARK                         _______ _______ _______ _____ _____    ______ ____
ROOT
ATOM      1  N   UNL     1      43.780   4.910   9.643  0.00  0.00    +0.000 N 
ATOM      2  C   UNL     1      44.640   4.020   9.011  0.00  0.00    +0.000 A 
ATOM      3  N   UNL     1      44.693   2.742   9.415  0.00  0.00    +0.000 NA
ATOM      4  C   UNL     1      45.564   1.923   8.788  0.00  0.00    +0.000 A 
ATOM      5  C   UNL     1      46.375   2.326   7.757  0.00  0.00    +0.000 A 
ATOM      6  C   UNL     1      46.253   3.651   7.412  0.00  0.00    +0.000 A 
ATOM      7  N   UNL     1      45.401   4.512   8.020  0.00  0.00    +0.000 NA
ATOM      8  H   UNL     1      44.122   5.845   9.453  0.00  0.00    +0.000 HD
ENDROOT
BRANCH   5   9
ATOM      9  C   UNL     1      47.311   1.371   7.146  0.00  0.00    +0.000 C 
ATOM     10  N   UNL     1      48.432   1.862   6.540  0.00  0.00    +0.000 N 
ATOM     11  O   UNL     1      47.075   0.171   7.152  0.00  0.00    +0.000 OA
ATOM     12  H   UNL     1      48.559   2.834   6.292  0.00  0.00    +0.000 HD
ATOM     13  H   UNL     1      49.000   1.183   6.046  0.00  0.00    +0.000 HD
ENDBRANCH   5   9
BRANCH   1  14
ATOM     14  C   UNL     1      43.598   4.602  11.048  0.00  0.00    +0.000 C 
BRANCH  14  19
ATOM     15  C   UNL     1      46.305   5.221  13.683  0.00  0.00    +0.000 A 
ATOM     16  C   UNL     1      46.703   6.522  13.344  0.00  0.00    +0.000 A 
ATOM     17  C   UNL     1      46.070   7.213  12.312  0.00  0.00    +0.000 A 
ATOM     18  C   UNL     1      45.039   6.607  11.595  0.00  0.00    +0.000 A 
ATOM     19  C   UNL     1      44.634   5.300  11.900  0.00  0.00    +0.000 A 
ATOM     20  C   UNL     1      45.270   4.619  12.953  0.00  0.00    +0.000 A 
BRANCH  15  21
ATOM     21  C   UNL     1      47.003   4.478  14.794  0.00  0.00    +0.000 C 
BRANCH  21  22
ATOM     22  N   UNL     1      47.415   3.144  14.369  0.00  0.00    +0.000 NA
ATOM     23  H   UNL     1      46.597   2.627  14.053  0.00  0.00    +0.000 HD
ATOM     24  H   UNL     1      47.778   2.646  15.180  0.00  0.00    +0.000 HD
ENDBRANCH  21  22
ENDBRANCH  15  21
ENDBRANCH  14  19
ENDBRANCH   1  14
TORSDOF 5
ENDMDL
MODEL 2
REMARK VINA RESULT:    -7.761      2.875      6.235
REMARK INTER + INTRA:         -10.250
REMARK INTER:                  -9.936
REMARK INTRA:                  -0.314
REMARK UNBOUND:                -0.448
REMARK  Name = 
REMARK  5 active torsions:
REMARK  status: ('A' for Active; 'I' for Inactive)
REMARK    1  A    between atoms: N_1  and  C_2
REMARK    2  A    between atoms: C_2  and  C_3
REMARK    3  A    between atoms: C_7  and  C_8
REMARK    4  A    between atoms: C_8  and  N_9
REMARK    5  A    between atoms: C_13  and  C_14
REMARK                            x       y       z     vdW  Elec       q    Type
REMARK                         _______ _______ _______ _____ _____    ______ ____
ROOT
ATOM      1  N   UNL     1      44.388   2.622  11.519  0.00  0.00    +0.000 N 
ATOM      2  C   UNL     1      45.181   3.516  12.228  0.00  0.00    +0.000 A 
ATOM      3  N   UNL     1      44.957   4.835  12.124  0.00  0.00    +0.000 NA
ATOM      4  C   UNL     1      45.770   5.664  12.811  0.00  0.00    +0.000 A 
ATOM      5  C   UNL     1      46.792   5.228  13.617  0.00  0.00    +0.000 A 
ATOM      6  C   UNL     1      46.947   3.863  13.661  0.00  0.00    +0.000 A 
ATOM      7  N   UNL     1      46.162   2.992  12.981  0.00  0.00    +0.000 NA
ATOM      8  H   UNL     1      44.905   1.754  11.446  0.00  0.00    +0.000 HD
ENDROOT
BRANCH   5   9
ATOM      9  C   UNL     1      47.644   6.203  14.312  0.00  0.00    +0.000 C 
ATOM     10  N   UNL     1      47.389   7.532  14.128  0.00  0.00    +0.000 N 
ATOM     11  O   UNL     1      48.576   5.833  15.013  0.00  0.00    +0.000 OA
ATOM     12  H   UNL     1      46.805   7.897  13.388  0.00  0.00    +0.000 HD
ATOM     13  H   UNL     1      48.057   8.171  14.544  0.00  0.00    +0.000 HD
ENDBRANCH   5   9
BRANCH   1  14
ATOM     14  C   UNL     1      43.934   3.168  10.253  0.00  0.00    +0.000 C 
BRANCH  14  19
ATOM     15  C   UNL     1      46.540   1.994   7.707  0.00  0.00    +0.000 A 
ATOM     16  C   UNL     1      46.973   3.225   7.194  0.00  0.00    +0.000 A 
ATOM     17  C   UNL     1      46.471   4.423   7.701  0.00  0.00    +0.000 A 
ATOM     18  C   UNL     1      45.517   4.405   8.717  0.00  0.00    +0.000 A 
ATOM     19  C   UNL     1      45.051   3.189   9.235  0.00  0.00    +0.000 A 
ATOM     20  C   UNL     1      45.576   1.988   8.725  0.00  0.00    +0.000 A 
BRANCH  15  21
ATOM     21  C   UNL     1      47.081   0.704   7.145  0.00  0.00    +0.000 C 
BRANCH  21  22
ATOM     22  N   UNL     1      46.623  -0.448   7.913  0.00  0.00    +0.000 NA
ATOM     23  H   UNL     1      46.794  -1.297   7.378  0.00  0.00    +0.000 HD
ATOM     24  H   UNL     1      45.613  -0.377   8.029  0.00  0.00    +0.000 HD
ENDBRANCH  21  22
ENDBRANCH  15  21
ENDBRANCH  14  19
ENDBRANCH   1  14
TORSDOF 5
ENDMDL
MODEL 3
REMARK VINA RESULT:    -7.540      2.572      6.526
REMARK INTER + INTRA:          -9.971
REMARK INTER:                  -9.604
REMARK INTRA:                  -0.367
REMARK UNBOUND:                -0.448
REMARK  Name = 
REMARK  5 active torsions:
REMARK  status: ('A' for Active; 'I' for Inactive)
REMARK    1  A    between atoms: N_1  and  C_2
REMARK    2  A    between atoms: C_2  and  C_3
REMARK    3  A    between atoms: C_7  and  C_8
REMARK    4  A    between atoms: C_8  and  N_9
REMARK    5  A    between atoms: C_13  and  C_14
REMARK                            x       y       z     vdW  Elec       q    Type
REMARK                         _______ _______ _______ _____ _____    ______ ____
ROOT
ATOM      1  N   UNL     1      44.012   4.052  10.508  0.00  0.00    +0.000 N 
ATOM      2  C   UNL     1      45.003   4.610  11.307  0.00  0.00    +0.000 A 
ATOM      3  N   UNL     1      45.586   5.761  10.941  0.00  0.00    +0.000 NA
ATOM      4  C   UNL     1      46.562   6.249  11.736  0.00  0.00    +0.000 A 
ATOM      5  C   UNL     1      46.970   5.640  12.897  0.00  0.00    +0.000 A 
ATOM      6  C   UNL     1      46.317   4.467  13.191  0.00  0.00    +0.000 A 
ATOM      7  N   UNL     1      45.339   3.934  12.418  0.00  0.00    +0.000 NA
ATOM      8  H   UNL     1      43.953   3.069  10.745  0.00  0.00    +0.000 HD
ENDROOT
BRANCH   5   9
ATOM      9  C   UNL     1      48.056   6.230  13.691  0.00  0.00    +0.000 C 
ATOM     10  N   UNL     1      47.858   6.401  15.031  0.00  0.00    +0.000 N 
ATOM     11  O   UNL     1      49.099   6.587  13.159  0.00  0.00    +0.000 OA
ATOM     12  H   UNL     1      46.952   6.356  15.478  0.00  0.00    +0.000 HD
ATOM     13  H   UNL     1      48.589   6.901  15.526  0.00  0.00    +0.000 HD
ENDBRANCH   5   9
BRANCH   1  14
ATOM     14  C   UNL     1      44.216   4.329   9.099  0.00  0.00    +0.000 C 
BRANCH  14  19
ATOM     15  C   UNL     1      46.635   2.526   6.742  0.00  0.00    +0.000 A 
ATOM     16  C   UNL     1      46.680   1.258   7.338  0.00  0.00    +0.000 A 
ATOM     17  C   UNL     1      45.897   0.969   8.455  0.00  0.00    +0.000 A 
ATOM     18  C   UNL     1      45.071   1.950   9.001  0.00  0.00    +0.000 A 
ATOM     19  C   UNL     1      45.022   3.233   8.438  0.00  0.00    +0.000 A 
ATOM     20  C   UNL     1      45.804   3.508   7.303  0.00  0.00    +0.000 A 
BRANCH  15  21
ATOM     21  C   UNL     1      47.493   2.833   5.540  0.00  0.00    +0.000 C 
BRANCH  21  22
ATOM     22  N   UNL     1      48.546   1.838   5.367  0.00  0.00    +0.000 NA
ATOM     23  H   UNL     1      48.333   1.023   5.938  0.00  0.00    +0.000 HD
ATOM     24  H   UNL     1      49.417   2.226   5.728  0.00  0.00    +0.000 HD
ENDBRANCH  21  22
ENDBRANCH  15  21
ENDBRANCH  14  19
ENDBRANCH   1  14
TORSDOF 5
ENDMDL
MODEL 4
REMARK VINA RESULT:    -6.358      3.113      6.614
REMARK INTER + INTRA:          -8.478
REMARK INTER:                  -8.332
REMARK INTRA:                  -0.147
REMARK UNBOUND:                -0.448
REMARK  Name = 
REMARK  5 active torsions:
REMARK  status: ('A' for Active; 'I' for Inactive)
REMARK    1  A    between atoms: N_1  and  C_2
REMARK    2  A    between atoms: C_2  and  C_3
REMARK    3  A    between atoms: C_7  and  C_8
REMARK    4  A    between atoms: C_8  and  N_9
REMARK    5  A    between atoms: C_13  and  C_14
REMARK                            x       y       z     vdW  Elec       q    Type
REMARK                         _______ _______ _______ _____ _____    ______ ____
ROOT
ATOM      1  N   UNL     1      46.188   6.280  11.224  0.00  0.00    +0.000 N 
ATOM      2  C   UNL     1      46.614   5.806  12.459  0.00  0.00    +0.000 A 
ATOM      3  N   UNL     1      46.210   4.600  12.886  0.00  0.00    +0.000 NA
ATOM      4  C   UNL     1      46.630   4.195  14.104  0.00  0.00    +0.000 A 
ATOM      5  C   UNL     1      47.454   4.941  14.908  0.00  0.00    +0.000 A 
ATOM      6  C   UNL     1      47.815   6.162  14.389  0.00  0.00    +0.000 A 
ATOM      7  N   UNL     1      47.410   6.614  13.177  0.00  0.00    +0.000 NA
ATOM      8  H   UNL     1      46.295   7.288  11.236  0.00  0.00    +0.000 HD
ENDROOT
BRANCH   5   9
ATOM      9  C   UNL     1      47.844   4.431  16.230  0.00  0.00    +0.000 C 
ATOM     10  N   UNL     1      46.951   3.655  16.913  0.00  0.00    +0.000 N 
ATOM     11  O   UNL     1      48.927   4.721  16.719  0.00  0.00    +0.000 OA
ATOM     12  H   UNL     1      45.970   3.584  16.679  0.00  0.00    +0.000 HD
ATOM     13  H   UNL     1      47.216   3.406  17.860  0.00  0.00    +0.000 HD
ENDBRANCH   5   9
BRANCH   1  14
ATOM     14  C   UNL     1      44.858   5.813  10.880  0.00  0.00    +0.000 C 
BRANCH  14  19
ATOM     15  C   UNL     1      45.828   3.574   7.930  0.00  0.00    +0.000 A 
ATOM     16  C   UNL     1      45.211   2.372   8.304  0.00  0.00    +0.000 A 
ATOM     17  C   UNL     1      44.445   2.298   9.466  0.00  0.00    +0.000 A 
ATOM     18  C   UNL     1      44.299   3.421  10.279  0.00  0.00    +0.000 A 
ATOM     19  C   UNL     1      44.921   4.630   9.940  0.00  0.00    +0.000 A 
ATOM     20  C   UNL     1      45.678   4.697   8.757  0.00  0.00    +0.000 A 
BRANCH  15  21
ATOM     21  C   UNL     1      46.663   3.642   6.676  0.00  0.00    +0.000 C 
BRANCH  21  22
ATOM     22  N   UNL     1      47.937   2.952   6.844  0.00  0.00    +0.000 NA
ATOM     23  H   UNL     1      48.321   2.733   5.927  0.00  0.00    +0.000 HD
ATOM     24  H   UNL     1      47.762   2.062   7.306  0.00  0.00    +0.000 HD
ENDBRANCH  21  22
ENDBRANCH  15  21
ENDBRANCH  14  19
ENDBRANCH   1  14
TORSDOF 5
ENDMDL
MODEL 5
REMARK VINA RESULT:    -6.340      3.863      7.879
REMARK INTER + INTRA:          -8.455
REMARK INTER:                  -8.144
REMARK INTRA:                  -0.311
REMARK UNBOUND:                -0.448
REMARK  Name = 
REMARK  5 active torsions:
REMARK  status: ('A' for Active; 'I' for Inactive)
REMARK    1  A    between atoms: N_1  and  C_2
REMARK    2  A    between atoms: C_2  and  C_3
REMARK    3  A    between atoms: C_7  and  C_8
REMARK    4  A    between atoms: C_8  and  N_9
REMARK    5  A    between atoms: C_13  and  C_14
REMARK                            x       y       z     vdW  Elec       q    Type
REMARK                         _______ _______ _______ _____ _____    ______ ____
ROOT
ATOM      1  N   UNL     1      46.979   3.416  14.023  0.00  0.00    +0.000 N 
ATOM      2  C   UNL     1      47.494   3.550  15.307  0.00  0.00    +0.000 A 
ATOM      3  N   UNL     1      47.171   4.622  16.047  0.00  0.00    +0.000 NA
ATOM      4  C   UNL     1      47.717   4.720  17.277  0.00  0.00    +0.000 A 
ATOM      5  C   UNL     1      48.564   3.779  17.809  0.00  0.00    +0.000 A 
ATOM      6  C   UNL     1      48.838   2.718  16.979  0.00  0.00    +0.000 A 
ATOM      7  N   UNL     1      48.321   2.582  15.733  0.00  0.00    +0.000 NA
ATOM      8  H   UNL     1      47.582   2.774  13.523  0.00  0.00    +0.000 HD
ENDROOT
BRANCH   5   9
ATOM      9  C   UNL     1      49.131   3.978  19.150  0.00  0.00    +0.000 C 
ATOM     10  N   UNL     1      48.416   3.534  20.226  0.00  0.00    +0.000 N 
ATOM     11  O   UNL     1      50.200   4.554  19.299  0.00  0.00    +0.000 OA
ATOM     12  H   UNL     1      47.440   3.277  20.188  0.00  0.00    +0.000 HD
ATOM     13  H   UNL     1      48.793   3.777  21.136  0.00  0.00    +0.000 HD
ENDBRANCH   5   9
BRANCH   1  14
ATOM     14  C   UNL     1      46.778   4.696  13.370  0.00  0.00    +0.000 C 
BRANCH  14  19
ATOM     15  C   UNL     1      44.231   4.467  10.521  0.00  0.00    +0.000 A 
ATOM     16  C   UNL     1      43.030   4.564  11.239  0.00  0.00    +0.000 A 
ATOM     17  C   UNL     1      43.041   4.756  12.620  0.00  0.00    +0.000 A 
ATOM     18  C   UNL     1      44.253   4.838  13.304  0.00  0.00    +0.000 A 
ATOM     19  C   UNL     1      45.468   4.724  12.615  0.00  0.00    +0.000 A 
ATOM     20  C   UNL     1      45.445   4.545  11.220  0.00  0.00    +0.000 A 
BRANCH  15  21
ATOM     21  C   UNL     1      44.209   4.248   9.030  0.00  0.00    +0.000 C 
BRANCH  21  22
ATOM     22  N   UNL     1      45.415   4.769   8.395  0.00  0.00    +0.000 NA
ATOM     23  H   UNL     1      45.758   5.563   8.931  0.00  0.00    +0.000 HD
ATOM     24  H   UNL     1      45.165   5.127   7.474  0.00  0.00    +0.000 HD
ENDBRANCH  21  22
ENDBRANCH  15  21
ENDBRANCH  14  19
ENDBRANCH   1  14
TORSDOF 5
ENDMDL
MODEL 6
REMARK VINA RESULT:    -6.156      4.003      6.678
REMARK INTER + INTRA:          -8.223
REMARK INTER:                  -7.887
REMARK INTRA:                  -0.336
REMARK UNBOUND:                -0.448
REMARK  Name = 
REMARK  5 active torsions:
REMARK  status: ('A' for Active; 'I' for Inactive)
REMARK    1  A    between atoms: N_1  and  C_2
REMARK    2  A    between atoms: C_2  and  C_3
REMARK    3  A    between atoms: C_7  and  C_8
REMARK    4  A    between atoms: C_8  and  N_9
REMARK    5  A    between atoms: C_13  and  C_14
REMARK                            x       y       z     vdW  Elec       q    Type
REMARK                         _______ _______ _______ _____ _____    ______ ____
ROOT
ATOM      1  N   UNL     1      47.512   3.097  15.422  0.00  0.00    +0.000 N 
ATOM      2  C   UNL     1      47.041   3.887  14.380  0.00  0.00    +0.000 A 
ATOM      3  N   UNL     1      47.366   5.188  14.331  0.00  0.00    +0.000 NA
ATOM      4  C   UNL     1      46.862   5.920  13.314  0.00  0.00    +0.000 A 
ATOM      5  C   UNL     1      46.058   5.400  12.331  0.00  0.00    +0.000 A 
ATOM      6  C   UNL     1      45.778   4.061  12.465  0.00  0.00    +0.000 A 
ATOM      7  N   UNL     1      46.253   3.289  13.473  0.00  0.00    +0.000 NA
ATOM      8  H   UNL     1      46.907   2.287  15.482  0.00  0.00    +0.000 HD
ENDROOT
BRANCH   5   9
ATOM      9  C   UNL     1      45.535   6.276  11.273  0.00  0.00    +0.000 C 
ATOM     10  N   UNL     1      45.301   5.733  10.042  0.00  0.00    +0.000 N 
ATOM     11  O   UNL     1      45.345   7.466  11.482  0.00  0.00    +0.000 OA
ATOM     12  H   UNL     1      45.660   4.836   9.743  0.00  0.00    +0.000 HD
ATOM     13  H   UNL     1      45.036   6.388   9.314  0.00  0.00    +0.000 HD
ENDBRANCH   5   9
BRANCH   1  14
ATOM     14  C   UNL     1      47.660   3.840  16.659  0.00  0.00    +0.000 C 
BRANCH  14  19
ATOM     15  C   UNL     1      51.173   2.563  17.487  0.00  0.00    +0.000 A 
ATOM     16  C   UNL     1      51.797   3.757  17.876  0.00  0.00    +0.000 A 
ATOM     17  C   UNL     1      51.079   4.952  17.923  0.00  0.00    +0.000 A 
ATOM     18  C   UNL     1      49.732   4.971  17.567  0.00  0.00    +0.000 A 
ATOM     19  C   UNL     1      49.088   3.797  17.155  0.00  0.00    +0.000 A 
ATOM     20  C   UNL     1      49.818   2.595  17.126  0.00  0.00    +0.000 A 
BRANCH  15  21
ATOM     21  C   UNL     1      51.959   1.278  17.429  0.00  0.00    +0.000 C 
BRANCH  21  22
ATOM     22  N   UNL     1      51.315   0.221  18.200  0.00  0.00    +0.000 NA
ATOM     23  H   UNL     1      51.983  -0.530  18.361  0.00  0.00    +0.000 HD
ATOM     24  H   UNL     1      50.564  -0.175  17.637  0.00  0.00    +0.000 HD
ENDBRANCH  21  22
ENDBRANCH  15  21
ENDBRANCH  14  19
ENDBRANCH   1  14
TORSDOF 5
ENDMDL
MODEL 7
REMARK VINA RESULT:    -6.100      4.319      7.753
REMARK INTER + INTRA:          -8.153
REMARK INTER:                  -7.865
REMARK INTRA:                  -0.287
REMARK UNBOUND:                -0.448
REMARK  Name = 
REMARK  5 active torsions:
REMARK  status: ('A' for Active; 'I' for Inactive)
REMARK    1  A    between atoms: N_1  and  C_2
REMARK    2  A    between atoms: C_2  and  C_3
REMARK    3  A    between atoms: C_7  and  C_8
REMARK    4  A    between atoms: C_8  and  N_9
REMARK    5  A    between atoms: C_13  and  C_14
REMARK                            x       y       z     vdW  Elec       q    Type
REMARK                         _______ _______ _______ _____ _____    ______ ____
ROOT
ATOM      1  N   UNL     1      47.066   3.648  15.246  0.00  0.00    +0.000 N 
ATOM      2  C   UNL     1      48.217   3.461  16.003  0.00  0.00    +0.000 A 
ATOM      3  N   UNL     1      48.736   4.489  16.692  0.00  0.00    +0.000 NA
ATOM      4  C   UNL     1      49.869   4.265  17.390  0.00  0.00    +0.000 A 
ATOM      5  C   UNL     1      50.499   3.046  17.443  0.00  0.00    +0.000 A 
ATOM      6  C   UNL     1      49.896   2.054  16.706  0.00  0.00    +0.000 A 
ATOM      7  N   UNL     1      48.765   2.235  15.982  0.00  0.00    +0.000 NA
ATOM      8  H   UNL     1      47.036   2.905  14.558  0.00  0.00    +0.000 HD
ENDROOT
BRANCH   5   9
ATOM      9  C   UNL     1      51.743   2.897  18.211  0.00  0.00    +0.000 C 
ATOM     10  N   UNL     1      51.948   3.727  19.276  0.00  0.00    +0.000 N 
ATOM     11  O   UNL     1      52.585   2.071  17.887  0.00  0.00    +0.000 OA
ATOM     12  H   UNL     1      51.418   4.572  19.444  0.00  0.00    +0.000 HD
ATOM     13  H   UNL     1      52.858   3.660  19.719  0.00  0.00    +0.000 HD
ENDBRANCH   5   9
BRANCH   1  14
ATOM     14  C   UNL     1      46.973   4.989  14.700  0.00  0.00    +0.000 C 
BRANCH  14  19
ATOM     15  C   UNL     1      44.815   4.028  11.688  0.00  0.00    +0.000 A 
ATOM     16  C   UNL     1      45.136   5.063  10.799  0.00  0.00    +0.000 A 
ATOM     17  C   UNL     1      46.079   6.030  11.145  0.00  0.00    +0.000 A 
ATOM     18  C   UNL     1      46.702   5.984  12.391  0.00  0.00    +0.000 A 
ATOM     19  C   UNL     1      46.385   4.972  13.308  0.00  0.00    +0.000 A 
ATOM     20  C   UNL     1      45.443   3.993  12.941  0.00  0.00    +0.000 A 
BRANCH  15  21
ATOM     21  C   UNL     1      43.787   2.992  11.309  0.00  0.00    +0.000 C 
BRANCH  21  22
ATOM     22  N   UNL     1      43.483   2.105  12.427  0.00  0.00    +0.000 NA
ATOM     23  H   UNL     1      43.205   1.196  12.066  0.00  0.00    +0.000 HD
ATOM     24  H   UNL     1      42.677   2.479  12.924  0.00  0.00    +0.000 HD
ENDBRANCH  21  22
ENDBRANCH  15  21
ENDBRANCH  14  19
ENDBRANCH   1  14
TORSDOF 5
ENDMDL
MODEL 8
REMARK VINA RESULT:    -6.058      3.174      5.034
REMARK INTER + INTRA:          -8.099
REMARK INTER:                  -7.840
REMARK INTRA:                  -0.259
REMARK UNBOUND:                -0.448
REMARK  Name = 
REMARK  5 active torsions:
REMARK  status: ('A' for Active; 'I' for Inactive)
REMARK    1  A    between atoms: N_1  and  C_2
REMARK    2  A    between atoms: C_2  and  C_3
REMARK    3  A    between atoms: C_7  and  C_8
REMARK    4  A    between atoms: C_8  and  N_9
REMARK    5  A    between atoms: C_13  and  C_14
REMARK                            x       y       z     vdW  Elec       q    Type
REMARK                         _______ _______ _______ _____ _____    ______ ____
ROOT
ATOM      1  N   UNL     1      46.510   5.480  14.403  0.00  0.00    +0.000 N 
ATOM      2  C   UNL     1      45.979   4.973  13.223  0.00  0.00    +0.000 A 
ATOM      3  N   UNL     1      45.524   3.711  13.185  0.00  0.00    +0.000 NA
ATOM      4  C   UNL     1      45.042   3.256  12.009  0.00  0.00    +0.000 A 
ATOM      5  C   UNL     1      44.980   4.018  10.869  0.00  0.00    +0.000 A 
ATOM      6  C   UNL     1      45.468   5.295  11.003  0.00  0.00    +0.000 A 
ATOM      7  N   UNL     1      45.970   5.792  12.160  0.00  0.00    +0.000 NA
ATOM      8  H   UNL     1      47.092   6.271  14.155  0.00  0.00    +0.000 HD
ENDROOT
BRANCH   5   9
ATOM      9  C   UNL     1      44.460   3.433   9.625  0.00  0.00    +0.000 C 
ATOM     10  N   UNL     1      44.155   4.274   8.593  0.00  0.00    +0.000 N 
ATOM     11  O   UNL     1      44.275   2.227   9.528  0.00  0.00    +0.000 OA
ATOM     12  H   UNL     1      44.055   5.275   8.692  0.00  0.00    +0.000 HD
ATOM     13  H   UNL     1      43.708   3.845   7.791  0.00  0.00    +0.000 HD
ENDBRANCH   5   9
BRANCH   1  14
ATOM     14  C   UNL     1      47.172   4.462  15.196  0.00  0.00    +0.000 C 
BRANCH  14  19
ATOM     15  C   UNL     1      48.710   5.076  18.648  0.00  0.00    +0.000 A 
ATOM     16  C   UNL     1      49.636   6.084  18.343  0.00  0.00    +0.000 A 
ATOM     17  C   UNL     1      49.726   6.599  17.050  0.00  0.00    +0.000 A 
ATOM     18  C   UNL     1      48.902   6.102  16.042  0.00  0.00    +0.000 A 
ATOM     19  C   UNL     1      47.982   5.080  16.313  0.00  0.00    +0.000 A 
ATOM     20  C   UNL     1      47.890   4.579  17.624  0.00  0.00    +0.000 A 
BRANCH  15  21
ATOM     21  C   UNL     1      48.627   4.517  20.046  0.00  0.00    +0.000 C 
BRANCH  21  22
ATOM     22  N   UNL     1      48.328   3.090  20.035  0.00  0.00    +0.000 NA
ATOM     23  H   UNL     1      49.116   2.581  20.430  0.00  0.00    +0.000 HD
ATOM     24  H   UNL     1      48.243   2.787  19.066  0.00  0.00    +0.000 HD
ENDBRANCH  21  22
ENDBRANCH  15  21
ENDBRANCH  14  19
ENDBRANCH   1  14
TORSDOF 5
ENDMDL
MODEL 9
REMARK VINA RESULT:    -5.846      5.054      8.053
REMARK INTER + INTRA:          -7.831
REMARK INTER:                  -7.510
REMARK INTRA:                  -0.322
REMARK UNBOUND:                -0.448
REMARK  Name = 
REMARK  5 active torsions:
REMARK  status: ('A' for Active; 'I' for Inactive)
REMARK    1  A    between atoms: N_1  and  C_2
REMARK    2  A    between atoms: C_2  and  C_3
REMARK    3  A    between atoms: C_7  and  C_8
REMARK    4  A    between atoms: C_8  and  N_9
REMARK    5  A    between atoms: C_13  and  C_14
REMARK                            x       y       z     vdW  Elec       q    Type
REMARK                         _______ _______ _______ _____ _____    ______ ____
ROOT
ATOM      1  N   UNL     1      46.436   4.037  14.905  0.00  0.00    +0.000 N 
ATOM      2  C   UNL     1      47.254   4.161  16.022  0.00  0.00    +0.000 A 
ATOM      3  N   UNL     1      48.253   5.056  16.021  0.00  0.00    +0.000 NA
ATOM      4  C   UNL     1      49.036   5.120  17.119  0.00  0.00    +0.000 A 
ATOM      5  C   UNL     1      48.850   4.336  18.230  0.00  0.00    +0.000 A 
ATOM      6  C   UNL     1      47.803   3.450  18.140  0.00  0.00    +0.000 A 
ATOM      7  N   UNL     1      46.998   3.343  17.055  0.00  0.00    +0.000 NA
ATOM      8  H   UNL     1      46.000   3.124  14.952  0.00  0.00    +0.000 HD
ENDROOT
BRANCH   5   9
ATOM      9  C   UNL     1      49.764   4.457  19.374  0.00  0.00    +0.000 C 
ATOM     10  N   UNL     1      51.044   4.004  19.229  0.00  0.00    +0.000 N 
ATOM     11  O   UNL     1      49.380   4.924  20.438  0.00  0.00    +0.000 OA
ATOM     12  H   UNL     1      51.347   3.399  18.478  0.00  0.00    +0.000 HD
ATOM     13  H   UNL     1      51.614   4.014  20.069  0.00  0.00    +0.000 HD
ENDBRANCH   5   9
BRANCH   1  14
ATOM     14  C   UNL     1      47.143   4.312  13.668  0.00  0.00    +0.000 C 
BRANCH  14  19
ATOM     15  C   UNL     1      44.386   5.951  11.578  0.00  0.00    +0.000 A 
ATOM     16  C   UNL     1      44.907   7.245  11.431  0.00  0.00    +0.000 A 
ATOM     17  C   UNL     1      46.158   7.570  11.953  0.00  0.00    +0.000 A 
ATOM     18  C   UNL     1      46.898   6.611  12.643  0.00  0.00    +0.000 A 
ATOM     19  C   UNL     1      46.393   5.316  12.822  0.00  0.00    +0.000 A 
ATOM     20  C   UNL     1      45.137   4.995  12.278  0.00  0.00    +0.000 A 
BRANCH  15  21
ATOM     21  C   UNL     1      43.028   5.611  11.019  0.00  0.00    +0.000 C 
BRANCH  21  22
ATOM     22  N   UNL     1      41.962   6.270  11.765  0.00  0.00    +0.000 NA
ATOM     23  H   UNL     1      41.530   6.978  11.176  0.00  0.00    +0.000 HD
ATOM     24  H   UNL     1      42.379   6.764  12.553  0.00  0.00    +0.000 HD
ENDBRANCH  21  22
ENDBRANCH  15  21
ENDBRANCH  14  19
ENDBRANCH   1  14
TORSDOF 5
ENDMDL
