MODEL 1
REMARK VINA RESULT:    -6.827      0.000      0.000
REMARK INTER + INTRA:          -8.666
REMARK INTER:                  -8.423
REMARK INTRA:                  -0.242
REMARK UNBOUND:                -0.242
REMARK  Name = 
REMARK  7 active torsions:
REMARK  status: ('A' for Active; 'I' for Inactive)
REMARK    1  A    between atoms: C_1  and  C_2
REMARK    2  A    between atoms: C_2  and  C_3
REMARK    3  A    between atoms: C_2  and  C_4
REMARK    4  A    between atoms: C_2  and  C_5
REMARK    5  A    between atoms: N_8  and  C_9
REMARK    6  A    between atoms: C_9  and  C_10
REMARK    7  A    between atoms: C_15  and  C_16
REMARK                            x       y       z     vdW  Elec       q    Type
REMARK                         _______ _______ _______ _____ _____    ______ ____
ROOT
ATOM      1  C   UNL     1      46.722   4.769  13.741  0.00  0.00    +0.000 A 
ATOM      2  N   UNL     1      47.015   3.480  13.703  0.00  0.00    +0.000 NA
ATOM      3  N   UNL     1      46.075   2.843  12.937  0.00  0.00    +0.000 NA
ATOM      4  C   UNL     1      45.261   3.757  12.471  0.00  0.00    +0.000 A 
ATOM      5  C   UNL     1      44.069   3.703  11.666  0.00  0.00    +0.000 A 
ATOM      6  C   UNL     1      43.969   4.745  10.799  0.00  0.00    +0.000 A 
ATOM      7  C   UNL     1      44.167   6.086  11.408  0.00  0.00    +0.000 A 
ATOM      8  C   UNL     1      45.046   6.191  12.433  0.00  0.00    +0.000 A 
ATOM      9  N   UNL     1      45.672   5.022  12.888  0.00  0.00    +0.000 N 
ENDROOT
BRANCH   6  10
ATOM     10  C   UNL     1      44.712   4.412   9.523  0.00  0.00    +0.000 C 
ATOM     11  N   UNL     1      44.299   3.304   8.843  0.00  0.00    +0.000 N 
ATOM     12  O   UNL     1      45.657   5.061   9.090  0.00  0.00    +0.000 OA
ATOM     13  H   UNL     1      43.556   2.698   9.141  0.00  0.00    +0.000 HD
ATOM     14  H   UNL     1      44.767   3.117   7.969  0.00  0.00    +0.000 HD
ENDBRANCH   6  10
BRANCH   1  15
ATOM     15  C   UNL     1      47.429   5.768  14.567  0.00  0.00    +0.000 C 
BRANCH  15  19
ATOM     16  C   UNL     1      49.345   4.510  17.226  0.00  0.00    +0.000 A 
ATOM     17  C   UNL     1      48.115   3.899  17.577  0.00  0.00    +0.000 A 
ATOM     18  C   UNL     1      47.220   4.316  16.622  0.00  0.00    +0.000 A 
ATOM     19  N   UNL     1      47.918   5.131  15.779  0.00  0.00    +0.000 N 
ATOM     20  N   UNL     1      49.207   5.289  16.140  0.00  0.00    +0.000 NA
BRANCH  16  22
ATOM     21  C   UNL     1      51.751   5.322  17.261  0.00  0.00    +0.000 C 
ATOM     22  C   UNL     1      50.712   4.356  17.867  0.00  0.00    +0.000 C 
ATOM     23  C   UNL     1      51.235   2.918  17.685  0.00  0.00    +0.000 C 
ATOM     24  C   UNL     1      50.600   4.667  19.375  0.00  0.00    +0.000 C 
ENDBRANCH  16  22
ENDBRANCH  15  19
ENDBRANCH   1  15
TORSDOF 4
ENDMDL
MODEL 2
REMARK VINA RESULT:    -6.777      1.238      1.931
REMARK INTER + INTRA:          -8.604
REMARK INTER:                  -9.113
REMARK INTRA:                   0.509
REMARK UNBOUND:                -0.242
REMARK  Name = 
REMARK  7 active torsions:
REMARK  status: ('A' for Active; 'I' for Inactive)
REMARK    1  A    between atoms: C_1  and  C_2
REMARK    2  A    between atoms: C_2  and  C_3
REMARK    3  A    between atoms: C_2  and  C_4
REMARK    4  A    between atoms: C_2  and  C_5
REMARK    5  A    between atoms: N_8  and  C_9
REMARK    6  A    between atoms: C_9  and  C_10
REMARK    7  A    between atoms: C_15  and  C_16
REMARK                            x       y       z     vdW  Elec       q    Type
REMARK                         _______ _______ _______ _____ _____    ______ ____
ROOT
ATOM      1  C   UNL     1      46.803   5.082  13.383  0.00  0.00    +0.000 A 
ATOM      2  N   UNL     1      47.198   3.837  13.585  0.00  0.00    +0.000 NA
ATOM      3  N   UNL     1      46.203   2.992  13.169  0.00  0.00    +0.000 NA
ATOM      4  C   UNL     1      45.246   3.728  12.667  0.00  0.00    +0.000 A 
ATOM      5  C   UNL     1      43.944   3.428  12.129  0.00  0.00    +0.000 A 
ATOM      6  C   UNL     1      43.608   4.227  11.081  0.00  0.00    +0.000 A 
ATOM      7  C   UNL     1      43.785   5.682  11.324  0.00  0.00    +0.000 A 
ATOM      8  C   UNL     1      44.812   6.070  12.118  0.00  0.00    +0.000 A 
ATOM      9  N   UNL     1      45.606   5.074  12.703  0.00  0.00    +0.000 N 
ENDROOT
BRANCH   6  10
ATOM     10  C   UNL     1      44.153   3.633   9.799  0.00  0.00    +0.000 C 
ATOM     11  N   UNL     1      44.170   4.446   8.704  0.00  0.00    +0.000 N 
ATOM     12  O   UNL     1      44.552   2.480   9.694  0.00  0.00    +0.000 OA
ATOM     13  H   UNL     1      43.834   5.392   8.693  0.00  0.00    +0.000 HD
ATOM     14  H   UNL     1      44.579   4.058   7.868  0.00  0.00    +0.000 HD
ENDBRANCH   6  10
BRANCH   1  15
ATOM     15  C   UNL     1      47.546   6.282  13.817  0.00  0.00    +0.000 C 
BRANCH  15  19
ATOM     16  C   UNL     1      48.740   4.910  16.819  0.00  0.00    +0.000 A 
ATOM     17  C   UNL     1      49.432   6.146  16.891  0.00  0.00    +0.000 A 
ATOM     18  C   UNL     1      49.084   6.821  15.745  0.00  0.00    +0.000 A 
ATOM     19  N   UNL     1      48.241   5.994  15.061  0.00  0.00    +0.000 N 
ATOM     20  N   UNL     1      48.037   4.813  15.679  0.00  0.00    +0.000 NA
BRANCH  16  22
ATOM     21  C   UNL     1      47.399   2.933  17.679  0.00  0.00    +0.000 C 
ATOM     22  C   UNL     1      48.674   3.786  17.837  0.00  0.00    +0.000 C 
ATOM     23  C   UNL     1      48.694   4.353  19.270  0.00  0.00    +0.000 C 
ATOM     24  C   UNL     1      49.893   2.858  17.643  0.00  0.00    +0.000 C 
ENDBRANCH  16  22
ENDBRANCH  15  19
ENDBRANCH   1  15
TORSDOF 4
ENDMDL
MODEL 3
REMARK VINA RESULT:    -6.724      3.016      4.872
REMARK INTER + INTRA:          -8.539
REMARK INTER:                  -7.875
REMARK INTRA:                  -0.665
REMARK UNBOUND:                -0.242
REMARK  Name = 
REMARK  7 active torsions:
REMARK  status: ('A' for Active; 'I' for Inactive)
REMARK    1  A    between atoms: C_1  and  C_2
REMARK    2  A    between atoms: C_2  and  C_3
REMARK    3  A    between atoms: C_2  and  C_4
REMARK    4  A    between atoms: C_2  and  C_5
REMARK    5  A    between atoms: N_8  and  C_9
REMARK    6  A    between atoms: C_9  and  C_10
REMARK    7  A    between atoms: C_15  and  C_16
REMARK                            x       y       z     vdW  Elec       q    Type
REMARK                         _______ _______ _______ _____ _____    ______ ____
ROOT
ATOM      1  C   UNL     1      46.992   5.079  13.828  0.00  0.00    +0.000 A 
ATOM      2  N   UNL     1      47.334   3.802  13.833  0.00  0.00    +0.000 NA
ATOM      3  N   UNL     1      46.325   3.079  13.254  0.00  0.00    +0.000 NA
ATOM      4  C   UNL     1      45.414   3.928  12.850  0.00  0.00    +0.000 A 
ATOM      5  C   UNL     1      44.124   3.776  12.229  0.00  0.00    +0.000 A 
ATOM      6  C   UNL     1      43.857   4.749  11.318  0.00  0.00    +0.000 A 
ATOM      7  C   UNL     1      44.078   6.135  11.802  0.00  0.00    +0.000 A 
ATOM      8  C   UNL     1      45.088   6.345  12.681  0.00  0.00    +0.000 A 
ATOM      9  N   UNL     1      45.822   5.233  13.119  0.00  0.00    +0.000 N 
ENDROOT
BRANCH   6  10
ATOM     10  C   UNL     1      44.428   4.350   9.973  0.00  0.00    +0.000 C 
ATOM     11  N   UNL     1      45.242   5.256   9.358  0.00  0.00    +0.000 N 
ATOM     12  O   UNL     1      44.186   3.287   9.415  0.00  0.00    +0.000 OA
ATOM     13  H   UNL     1      45.467   6.161   9.729  0.00  0.00    +0.000 HD
ATOM     14  H   UNL     1      45.655   4.962   8.486  0.00  0.00    +0.000 HD
ENDBRANCH   6  10
BRANCH   1  15
ATOM     15  C   UNL     1      47.762   6.159  14.476  0.00  0.00    +0.000 C 
BRANCH  15  19
ATOM     16  C   UNL     1      48.416   8.928  12.420  0.00  0.00    +0.000 A 
ATOM     17  C   UNL     1      49.133   7.964  11.668  0.00  0.00    +0.000 A 
ATOM     18  C   UNL     1      48.996   6.788  12.365  0.00  0.00    +0.000 A 
ATOM     19  N   UNL     1      48.241   7.085  13.462  0.00  0.00    +0.000 N 
ATOM     20  N   UNL     1      47.898   8.387  13.535  0.00  0.00    +0.000 NA
BRANCH  16  22
ATOM     21  C   UNL     1      46.653  10.662  11.843  0.00  0.00    +0.000 C 
ATOM     22  C   UNL     1      48.148  10.388  12.103  0.00  0.00    +0.000 C 
ATOM     23  C   UNL     1      48.937  10.823  10.853  0.00  0.00    +0.000 C 
ATOM     24  C   UNL     1      48.587  11.253  13.304  0.00  0.00    +0.000 C 
ENDBRANCH  16  22
ENDBRANCH  15  19
ENDBRANCH   1  15
TORSDOF 4
ENDMDL
MODEL 4
REMARK VINA RESULT:    -6.567      2.055      2.674
REMARK INTER + INTRA:          -8.345
REMARK INTER:                  -7.734
REMARK INTRA:                  -0.610
REMARK UNBOUND:                -0.242
REMARK  Name = 
REMARK  7 active torsions:
REMARK  status: ('A' for Active; 'I' for Inactive)
REMARK    1  A    between atoms: C_1  and  C_2
REMARK    2  A    between atoms: C_2  and  C_3
REMARK    3  A    between atoms: C_2  and  C_4
REMARK    4  A    between atoms: C_2  and  C_5
REMARK    5  A    between atoms: N_8  and  C_9
REMARK    6  A    between atoms: C_9  and  C_10
REMARK    7  A    between atoms: C_15  and  C_16
REMARK                            x       y       z     vdW  Elec       q    Type
REMARK                         _______ _______ _______ _____ _____    ______ ____
ROOT
ATOM      1  C   UNL     1      47.324   5.711  13.151  0.00  0.00    +0.000 A 
ATOM      2  N   UNL     1      47.336   4.541  13.766  0.00  0.00    +0.000 NA
ATOM      3  N   UNL     1      46.048   4.085  13.860  0.00  0.00    +0.000 NA
ATOM      4  C   UNL     1      45.279   4.951  13.250  0.00  0.00    +0.000 A 
ATOM      5  C   UNL     1      43.855   5.050  13.062  0.00  0.00    +0.000 A 
ATOM      6  C   UNL     1      43.516   5.551  11.845  0.00  0.00    +0.000 A 
ATOM      7  C   UNL     1      44.213   6.808  11.470  0.00  0.00    +0.000 A 
ATOM      8  C   UNL     1      45.489   6.974  11.895  0.00  0.00    +0.000 A 
ATOM      9  N   UNL     1      46.049   5.976  12.705  0.00  0.00    +0.000 N 
ENDROOT
BRANCH   6  10
ATOM     10  C   UNL     1      43.459   4.425  10.835  0.00  0.00    +0.000 C 
ATOM     11  N   UNL     1      43.894   4.708   9.573  0.00  0.00    +0.000 N 
ATOM     12  O   UNL     1      43.033   3.303  11.083  0.00  0.00    +0.000 OA
ATOM     13  H   UNL     1      44.228   5.606   9.276  0.00  0.00    +0.000 HD
ATOM     14  H   UNL     1      43.897   3.939   8.920  0.00  0.00    +0.000 HD
ENDBRANCH   6  10
BRANCH   1  15
ATOM     15  C   UNL     1      48.505   6.579  12.970  0.00  0.00    +0.000 C 
BRANCH  15  19
ATOM     16  C   UNL     1      49.709   7.423  16.158  0.00  0.00    +0.000 A 
ATOM     17  C   UNL     1      48.852   8.539  15.980  0.00  0.00    +0.000 A 
ATOM     18  C   UNL     1      48.299   8.374  14.734  0.00  0.00    +0.000 A 
ATOM     19  N   UNL     1      48.829   7.220  14.235  0.00  0.00    +0.000 N 
ATOM     20  N   UNL     1      49.712   6.636  15.069  0.00  0.00    +0.000 NA
BRANCH  16  22
ATOM     21  C   UNL     1      49.638   6.568  18.548  0.00  0.00    +0.000 C 
ATOM     22  C   UNL     1      50.527   7.024  17.372  0.00  0.00    +0.000 C 
ATOM     23  C   UNL     1      51.387   8.207  17.857  0.00  0.00    +0.000 C 
ATOM     24  C   UNL     1      51.452   5.847  16.992  0.00  0.00    +0.000 C 
ENDBRANCH  16  22
ENDBRANCH  15  19
ENDBRANCH   1  15
TORSDOF 4
ENDMDL
MODEL 5
REMARK VINA RESULT:    -6.434      3.681      5.269
REMARK INTER + INTRA:          -8.180
REMARK INTER:                  -7.931
REMARK INTRA:                  -0.249
REMARK UNBOUND:                -0.242
REMARK  Name = 
REMARK  7 active torsions:
REMARK  status: ('A' for Active; 'I' for Inactive)
REMARK    1  A    between atoms: C_1  and  C_2
REMARK    2  A    between atoms: C_2  and  C_3
REMARK    3  A    between atoms: C_2  and  C_4
REMARK    4  A    between atoms: C_2  and  C_5
REMARK    5  A    between atoms: N_8  and  C_9
REMARK    6  A    between atoms: C_9  and  C_10
REMARK    7  A    between atoms: C_15  and  C_16
REMARK                            x       y       z     vdW  Elec       q    Type
REMARK                         _______ _______ _______ _____ _____    ______ ____
ROOT
ATOM      1  C   UNL     1      46.024   5.094  12.804  0.00  0.00    +0.000 A 
ATOM      2  N   UNL     1      45.371   4.217  13.547  0.00  0.00    +0.000 NA
ATOM      3  N   UNL     1      44.400   3.632  12.777  0.00  0.00    +0.000 NA
ATOM      4  C   UNL     1      44.515   4.114  11.566  0.00  0.00    +0.000 A 
ATOM      5  C   UNL     1      43.765   3.929  10.351  0.00  0.00    +0.000 A 
ATOM      6  C   UNL     1      44.548   3.932   9.240  0.00  0.00    +0.000 A 
ATOM      7  C   UNL     1      45.488   5.077   9.141  0.00  0.00    +0.000 A 
ATOM      8  C   UNL     1      46.011   5.567  10.291  0.00  0.00    +0.000 A 
ATOM      9  N   UNL     1      45.590   4.998  11.501  0.00  0.00    +0.000 N 
ENDROOT
BRANCH   6  10
ATOM     10  C   UNL     1      45.078   2.535   8.994  0.00  0.00    +0.000 C 
ATOM     11  N   UNL     1      44.353   1.502   9.512  0.00  0.00    +0.000 N 
ATOM     12  O   UNL     1      46.112   2.292   8.384  0.00  0.00    +0.000 OA
ATOM     13  H   UNL     1      43.513   1.612  10.051  0.00  0.00    +0.000 HD
ATOM     14  H   UNL     1      44.687   0.574   9.303  0.00  0.00    +0.000 HD
ENDBRANCH   6  10
BRANCH   1  15
ATOM     15  C   UNL     1      47.061   6.017  13.308  0.00  0.00    +0.000 C 
BRANCH  15  19
ATOM     16  C   UNL     1      47.111   9.372  12.277  0.00  0.00    +0.000 A 
ATOM     17  C   UNL     1      45.715   9.267  12.502  0.00  0.00    +0.000 A 
ATOM     18  C   UNL     1      45.511   7.969  12.904  0.00  0.00    +0.000 A 
ATOM     19  N   UNL     1      46.739   7.373  12.895  0.00  0.00    +0.000 N 
ATOM     20  N   UNL     1      47.727   8.197  12.490  0.00  0.00    +0.000 NA
BRANCH  16  22
ATOM     21  C   UNL     1      49.201  10.208  11.102  0.00  0.00    +0.000 C 
ATOM     22  C   UNL     1      47.933  10.589  11.894  0.00  0.00    +0.000 C 
ATOM     23  C   UNL     1      48.373  11.361  13.153  0.00  0.00    +0.000 C 
ATOM     24  C   UNL     1      47.078  11.516  11.004  0.00  0.00    +0.000 C 
ENDBRANCH  16  22
ENDBRANCH  15  19
ENDBRANCH   1  15
TORSDOF 4
ENDMDL
MODEL 6
REMARK VINA RESULT:    -6.309      2.504      7.228
REMARK INTER + INTRA:          -8.026
REMARK INTER:                  -8.245
REMARK INTRA:                   0.219
REMARK UNBOUND:                -0.242
REMARK  Name = 
REMARK  7 active torsions:
REMARK  status: ('A' for Active; 'I' for Inactive)
REMARK    1  A    between atoms: C_1  and  C_2
REMARK    2  A    between atoms: C_2  and  C_3
REMARK    3  A    between atoms: C_2  and  C_4
REMARK    4  A    between atoms: C_2  and  C_5
REMARK    5  A    between atoms: N_8  and  C_9
REMARK    6  A    between atoms: C_9  and  C_10
REMARK    7  A    between atoms: C_15  and  C_16
REMARK                            x       y       z     vdW  Elec       q    Type
REMARK                         _______ _______ _______ _____ _____    ______ ____
ROOT
ATOM      1  C   UNL     1      48.295   6.222  15.156  0.00  0.00    +0.000 A 
ATOM      2  N   UNL     1      49.552   6.626  15.084  0.00  0.00    +0.000 NA
ATOM      3  N   UNL     1      50.255   6.043  16.104  0.00  0.00    +0.000 NA
ATOM      4  C   UNL     1      49.436   5.247  16.744  0.00  0.00    +0.000 A 
ATOM      5  C   UNL     1      49.571   4.419  17.913  0.00  0.00    +0.000 A 
ATOM      6  C   UNL     1      48.874   3.255  17.820  0.00  0.00    +0.000 A 
ATOM      7  C   UNL     1      47.455   3.408  17.411  0.00  0.00    +0.000 A 
ATOM      8  C   UNL     1      47.150   4.403  16.544  0.00  0.00    +0.000 A 
ATOM      9  N   UNL     1      48.183   5.259  16.134  0.00  0.00    +0.000 N 
ENDROOT
BRANCH   6  10
ATOM     10  C   UNL     1      49.724   2.214  17.121  0.00  0.00    +0.000 C 
ATOM     11  N   UNL     1      50.839   1.788  17.780  0.00  0.00    +0.000 N 
ATOM     12  O   UNL     1      49.475   1.761  16.011  0.00  0.00    +0.000 OA
ATOM     13  H   UNL     1      51.135   2.129  18.676  0.00  0.00    +0.000 HD
ATOM     14  H   UNL     1      51.372   1.060  17.329  0.00  0.00    +0.000 HD
ENDBRANCH   6  10
BRANCH   1  15
ATOM     15  C   UNL     1      47.199   6.727  14.306  0.00  0.00    +0.000 C 
BRANCH  15  19
ATOM     16  C   UNL     1      45.106   4.562  12.502  0.00  0.00    +0.000 A 
ATOM     17  C   UNL     1      46.156   3.643  12.750  0.00  0.00    +0.000 A 
ATOM     18  C   UNL     1      47.100   4.354  13.451  0.00  0.00    +0.000 A 
ATOM     19  N   UNL     1      46.601   5.617  13.582  0.00  0.00    +0.000 N 
ATOM     20  N   UNL     1      45.401   5.779  12.989  0.00  0.00    +0.000 NA
BRANCH  16  22
ATOM     21  C   UNL     1      43.781   4.696  10.340  0.00  0.00    +0.000 C 
ATOM     22  C   UNL     1      43.761   4.329  11.837  0.00  0.00    +0.000 C 
ATOM     23  C   UNL     1      42.667   5.173  12.520  0.00  0.00    +0.000 C 
ATOM     24  C   UNL     1      43.394   2.834  11.955  0.00  0.00    +0.000 C 
ENDBRANCH  16  22
ENDBRANCH  15  19
ENDBRANCH   1  15
TORSDOF 4
ENDMDL
MODEL 7
REMARK VINA RESULT:    -6.275      2.576      3.425
REMARK INTER + INTRA:          -7.985
REMARK INTER:                  -7.392
REMARK INTRA:                  -0.592
REMARK UNBOUND:                -0.242
REMARK  Name = 
REMARK  7 active torsions:
REMARK  status: ('A' for Active; 'I' for Inactive)
REMARK    1  A    between atoms: C_1  and  C_2
REMARK    2  A    between atoms: C_2  and  C_3
REMARK    3  A    between atoms: C_2  and  C_4
REMARK    4  A    between atoms: C_2  and  C_5
REMARK    5  A    between atoms: N_8  and  C_9
REMARK    6  A    between atoms: C_9  and  C_10
REMARK    7  A    between atoms: C_15  and  C_16
REMARK                            x       y       z     vdW  Elec       q    Type
REMARK                         _______ _______ _______ _____ _____    ______ ____
ROOT
ATOM      1  C   UNL     1      46.174   5.802  13.018  0.00  0.00    +0.000 A 
ATOM      2  N   UNL     1      46.870   4.788  13.503  0.00  0.00    +0.000 NA
ATOM      3  N   UNL     1      46.215   3.625  13.195  0.00  0.00    +0.000 NA
ATOM      4  C   UNL     1      45.167   3.941  12.478  0.00  0.00    +0.000 A 
ATOM      5  C   UNL     1      44.086   3.175  11.914  0.00  0.00    +0.000 A 
ATOM      6  C   UNL     1      43.685   3.640  10.701  0.00  0.00    +0.000 A 
ATOM      7  C   UNL     1      43.415   5.100  10.650  0.00  0.00    +0.000 A 
ATOM      8  C   UNL     1      44.176   5.911  11.424  0.00  0.00    +0.000 A 
ATOM      9  N   UNL     1      45.130   5.317  12.263  0.00  0.00    +0.000 N 
ENDROOT
BRANCH   6  10
ATOM     10  C   UNL     1      44.542   3.022   9.616  0.00  0.00    +0.000 C 
ATOM     11  N   UNL     1      44.494   1.665   9.494  0.00  0.00    +0.000 N 
ATOM     12  O   UNL     1      45.273   3.664   8.873  0.00  0.00    +0.000 OA
ATOM     13  H   UNL     1      43.948   1.060  10.080  0.00  0.00    +0.000 HD
ATOM     14  H   UNL     1      45.030   1.266   8.738  0.00  0.00    +0.000 HD
ENDBRANCH   6  10
BRANCH   1  15
ATOM     15  C   UNL     1      46.488   7.226  13.250  0.00  0.00    +0.000 C 
BRANCH  15  19
ATOM     16  C   UNL     1      49.911   7.865  13.691  0.00  0.00    +0.000 A 
ATOM     17  C   UNL     1      49.915   7.798  12.275  0.00  0.00    +0.000 A 
ATOM     18  C   UNL     1      48.615   7.524  11.924  0.00  0.00    +0.000 A 
ATOM     19  N   UNL     1      47.918   7.435  13.094  0.00  0.00    +0.000 N 
ATOM     20  N   UNL     1      48.688   7.610  14.186  0.00  0.00    +0.000 NA
BRANCH  16  22
ATOM     21  C   UNL     1      52.394   8.352  13.906  0.00  0.00    +0.000 C 
ATOM     22  C   UNL     1      51.044   8.214  14.639  0.00  0.00    +0.000 C 
ATOM     23  C   UNL     1      51.198   7.127  15.720  0.00  0.00    +0.000 C 
ATOM     24  C   UNL     1      50.734   9.565  15.320  0.00  0.00    +0.000 C 
ENDBRANCH  16  22
ENDBRANCH  15  19
ENDBRANCH   1  15
TORSDOF 4
ENDMDL
MODEL 8
REMARK VINA RESULT:    -6.011      1.679      2.474
REMARK INTER + INTRA:          -7.659
REMARK INTER:                  -7.290
REMARK INTRA:                  -0.369
REMARK UNBOUND:                -0.242
REMARK  Name = 
REMARK  7 active torsions:
REMARK  status: ('A' for Active; 'I' for Inactive)
REMARK    1  A    between atoms: C_1  and  C_2
REMARK    2  A    between atoms: C_2  and  C_3
REMARK    3  A    between atoms: C_2  and  C_4
REMARK    4  A    between atoms: C_2  and  C_5
REMARK    5  A    between atoms: N_8  and  C_9
REMARK    6  A    between atoms: C_9  and  C_10
REMARK    7  A    between atoms: C_15  and  C_16
REMARK                            x       y       z     vdW  Elec       q    Type
REMARK                         _______ _______ _______ _____ _____    ______ ____
ROOT
ATOM      1  C   UNL     1      47.156   4.799  14.508  0.00  0.00    +0.000 A 
ATOM      2  N   UNL     1      47.791   5.956  14.598  0.00  0.00    +0.000 NA
ATOM      3  N   UNL     1      47.632   6.632  13.418  0.00  0.00    +0.000 NA
ATOM      4  C   UNL     1      46.856   5.909  12.651  0.00  0.00    +0.000 A 
ATOM      5  C   UNL     1      46.380   6.060  11.301  0.00  0.00    +0.000 A 
ATOM      6  C   UNL     1      45.106   5.614  11.136  0.00  0.00    +0.000 A 
ATOM      7  C   UNL     1      44.849   4.250  11.665  0.00  0.00    +0.000 A 
ATOM      8  C   UNL     1      45.520   3.866  12.778  0.00  0.00    +0.000 A 
ATOM      9  N   UNL     1      46.453   4.758  13.325  0.00  0.00    +0.000 N 
ENDROOT
BRANCH   6  10
ATOM     10  C   UNL     1      44.135   6.722  11.485  0.00  0.00    +0.000 C 
ATOM     11  N   UNL     1      42.912   6.343  11.955  0.00  0.00    +0.000 N 
ATOM     12  O   UNL     1      44.380   7.915  11.351  0.00  0.00    +0.000 OA
ATOM     13  H   UNL     1      42.617   5.390  12.066  0.00  0.00    +0.000 HD
ATOM     14  H   UNL     1      42.290   7.087  12.230  0.00  0.00    +0.000 HD
ENDBRANCH   6  10
BRANCH   1  15
ATOM     15  C   UNL     1      47.197   3.735  15.531  0.00  0.00    +0.000 C 
BRANCH  15  19
ATOM     16  C   UNL     1      49.715   4.495  17.855  0.00  0.00    +0.000 A 
ATOM     17  C   UNL     1      48.609   4.919  18.633  0.00  0.00    +0.000 A 
ATOM     18  C   UNL     1      47.507   4.705  17.841  0.00  0.00    +0.000 A 
ATOM     19  N   UNL     1      47.980   4.191  16.669  0.00  0.00    +0.000 N 
ATOM     20  N   UNL     1      49.322   4.079  16.639  0.00  0.00    +0.000 NA
BRANCH  16  22
ATOM     21  C   UNL     1      51.785   3.027  17.957  0.00  0.00    +0.000 C 
ATOM     22  C   UNL     1      51.184   4.421  18.233  0.00  0.00    +0.000 C 
ATOM     23  C   UNL     1      51.373   4.733  19.730  0.00  0.00    +0.000 C 
ATOM     24  C   UNL     1      51.972   5.452  17.397  0.00  0.00    +0.000 C 
ENDBRANCH  16  22
ENDBRANCH  15  19
ENDBRANCH   1  15
TORSDOF 4
ENDMDL
MODEL 9
REMARK VINA RESULT:    -5.664      2.824      7.603
REMARK INTER + INTRA:          -7.231
REMARK INTER:                  -7.250
REMARK INTRA:                   0.019
REMARK UNBOUND:                -0.242
REMARK  Name = 
REMARK  7 active torsions:
REMARK  status: ('A' for Active; 'I' for Inactive)
REMARK    1  A    between atoms: C_1  and  C_2
REMARK    2  A    between atoms: C_2  and  C_3
REMARK    3  A    between atoms: C_2  and  C_4
REMARK    4  A    between atoms: C_2  and  C_5
REMARK    5  A    between atoms: N_8  and  C_9
REMARK    6  A    between atoms: C_9  and  C_10
REMARK    7  A    between atoms: C_15  and  C_16
REMARK                            x       y       z     vdW  Elec       q    Type
REMARK                         _______ _______ _______ _____ _____    ______ ____
ROOT
ATOM      1  C   UNL     1      47.649   5.666  14.836  0.00  0.00    +0.000 A 
ATOM      2  N   UNL     1      47.097   4.477  14.663  0.00  0.00    +0.000 NA
ATOM      3  N   UNL     1      47.642   3.608  15.571  0.00  0.00    +0.000 NA
ATOM      4  C   UNL     1      48.470   4.290  16.321  0.00  0.00    +0.000 A 
ATOM      5  C   UNL     1      49.363   3.930  17.392  0.00  0.00    +0.000 A 
ATOM      6  C   UNL     1      49.438   4.881  18.360  0.00  0.00    +0.000 A 
ATOM      7  C   UNL     1      49.694   6.258  17.865  0.00  0.00    +0.000 A 
ATOM      8  C   UNL     1      49.165   6.608  16.668  0.00  0.00    +0.000 A 
ATOM      9  N   UNL     1      48.458   5.633  15.949  0.00  0.00    +0.000 N 
ENDROOT
BRANCH   6  10
ATOM     10  C   UNL     1      48.325   4.666  19.364  0.00  0.00    +0.000 C 
ATOM     11  N   UNL     1      48.450   3.596  20.201  0.00  0.00    +0.000 N 
ATOM     12  O   UNL     1      47.332   5.378  19.449  0.00  0.00    +0.000 OA
ATOM     13  H   UNL     1      49.213   2.944  20.179  0.00  0.00    +0.000 HD
ATOM     14  H   UNL     1      47.729   3.488  20.898  0.00  0.00    +0.000 HD
ENDBRANCH   6  10
BRANCH   1  15
ATOM     15  C   UNL     1      47.415   6.836  13.968  0.00  0.00    +0.000 C 
BRANCH  15  19
ATOM     16  C   UNL     1      45.032   5.511  11.757  0.00  0.00    +0.000 A 
ATOM     17  C   UNL     1      45.960   5.957  10.784  0.00  0.00    +0.000 A 
ATOM     18  C   UNL     1      46.979   6.540  11.498  0.00  0.00    +0.000 A 
ATOM     19  N   UNL     1      46.630   6.430  12.813  0.00  0.00    +0.000 N 
ATOM     20  N   UNL     1      45.435   5.833  12.998  0.00  0.00    +0.000 NA
BRANCH  16  22
ATOM     21  C   UNL     1      43.563   3.644  12.655  0.00  0.00    +0.000 C 
ATOM     22  C   UNL     1      43.747   4.724  11.570  0.00  0.00    +0.000 C 
ATOM     23  C   UNL     1      43.736   4.026  10.196  0.00  0.00    +0.000 C 
ATOM     24  C   UNL     1      42.546   5.692  11.655  0.00  0.00    +0.000 C 
ENDBRANCH  16  22
ENDBRANCH  15  19
ENDBRANCH   1  15
TORSDOF 4
ENDMDL
