MODEL 1
REMARK VINA RESULT:    -7.617      0.000      0.000
REMARK INTER + INTRA:         -10.988
REMARK INTER:                 -10.066
REMARK INTRA:                  -0.923
REMARK UNBOUND:                -0.923
REMARK  Name = 
REMARK  9 active torsions:
REMARK  status: ('A' for Active; 'I' for Inactive)
REMARK    1  A    between atoms: C_1  and  O_2
REMARK    2  A    between atoms: O_2  and  C_3
REMARK    3  A    between atoms: C_6  and  C_7
REMARK    4  A    between atoms: C_7  and  C_8
REMARK    5  A    between atoms: C_7  and  N_9
REMARK    6  A    between atoms: N_9  and  C_10
REMARK    7  A    between atoms: C_13  and  C_14
REMARK    8  A    between atoms: C_14  and  O_16
REMARK    9  A    between atoms: C_18  and  C_19
REMARK                            x       y       z     vdW  Elec       q    Type
REMARK                         _______ _______ _______ _____ _____    ______ ____
ROOT
ATOM      1  N   UNL     1      43.628   4.465   9.945  0.00  0.00    +0.000 N 
ATOM      2  H   UNL     1      43.927   5.409   9.721  0.00  0.00    +0.000 HD
ENDROOT
BRANCH   1   3
ATOM      3  C   UNL     1      44.526   3.568   9.336  0.00  0.00    +0.000 A 
ATOM      4  N   UNL     1      44.226   2.252   9.300  0.00  0.00    +0.000 NA
ATOM      5  C   UNL     1      45.056   1.397   8.647  0.00  0.00    +0.000 A 
ATOM      6  C   UNL     1      46.229   1.787   8.035  0.00  0.00    +0.000 A 
ATOM      7  C   UNL     1      46.540   3.141   8.048  0.00  0.00    +0.000 A 
ATOM      8  C   UNL     1      45.696   4.050   8.717  0.00  0.00    +0.000 A 
ATOM      9  C   UNL     1      46.063   5.507   8.674  0.00  0.00    +0.000 C 
BRANCH   6  10
ATOM     10  C   UNL     1      47.060   0.760   7.369  0.00  0.00    +0.000 C 
ATOM     11  O   UNL     1      47.904   1.034   6.534  0.00  0.00    +0.000 OA
BRANCH  10  12
ATOM     12  O   UNL     1      46.768  -0.506   7.737  0.00  0.00    +0.000 OA
ATOM     13  H   UNL     1      47.064  -0.772   8.627  0.00  0.00    +0.000 HD
ENDBRANCH  10  12
ENDBRANCH   6  10
ENDBRANCH   1   3
BRANCH   1  14
ATOM     14  C   UNL     1      43.430   4.332  11.403  0.00  0.00    +0.000 C 
ATOM     15  C   UNL     1      42.440   5.364  11.963  0.00  0.00    +0.000 C 
BRANCH  14  19
ATOM     16  C   UNL     1      46.871   4.754  13.892  0.00  0.00    +0.000 A 
ATOM     17  C   UNL     1      46.389   5.903  13.285  0.00  0.00    +0.000 A 
ATOM     18  C   UNL     1      45.306   5.795  12.411  0.00  0.00    +0.000 A 
ATOM     19  C   UNL     1      44.740   4.539  12.158  0.00  0.00    +0.000 A 
ATOM     20  C   UNL     1      45.335   3.446  12.792  0.00  0.00    +0.000 A 
ATOM     21  N   UNL     1      46.381   3.520  13.644  0.00  0.00    +0.000 NA
BRANCH  16  23
ATOM     22  C   UNL     1      47.557   4.402  16.098  0.00  0.00    +0.000 C 
ATOM     23  O   UNL     1      47.889   4.915  14.809  0.00  0.00    +0.000 OA
ENDBRANCH  16  23
ENDBRANCH  14  19
ENDBRANCH   1  14
TORSDOF 6
ENDMDL
MODEL 2
REMARK VINA RESULT:    -7.472      1.461      1.997
REMARK INTER + INTRA:         -10.797
REMARK INTER:                 -10.709
REMARK INTRA:                  -0.088
REMARK UNBOUND:                -0.923
REMARK  Name = 
REMARK  9 active torsions:
REMARK  status: ('A' for Active; 'I' for Inactive)
REMARK    1  A    between atoms: C_1  and  O_2
REMARK    2  A    between atoms: O_2  and  C_3
REMARK    3  A    between atoms: C_6  and  C_7
REMARK    4  A    between atoms: C_7  and  C_8
REMARK    5  A    between atoms: C_7  and  N_9
REMARK    6  A    between atoms: N_9  and  C_10
REMARK    7  A    between atoms: C_13  and  C_14
REMARK    8  A    between atoms: C_14  and  O_16
REMARK    9  A    between atoms: C_18  and  C_19
REMARK                            x       y       z     vdW  Elec       q    Type
REMARK                         _______ _______ _______ _____ _____    ______ ____
ROOT
ATOM      1  N   UNL     1      44.118   5.103   9.638  0.00  0.00    +0.000 N 
ATOM      2  H   UNL     1      44.497   5.984   9.301  0.00  0.00    +0.000 HD
ENDROOT
BRANCH   1   3
ATOM      3  C   UNL     1      44.839   4.058   9.029  0.00  0.00    +0.000 A 
ATOM      4  N   UNL     1      45.726   4.346   8.054  0.00  0.00    +0.000 NA
ATOM      5  C   UNL     1      46.474   3.347   7.517  0.00  0.00    +0.000 A 
ATOM      6  C   UNL     1      46.361   2.023   7.887  0.00  0.00    +0.000 A 
ATOM      7  C   UNL     1      45.464   1.715   8.902  0.00  0.00    +0.000 A 
ATOM      8  C   UNL     1      44.675   2.732   9.476  0.00  0.00    +0.000 A 
ATOM      9  C   UNL     1      43.745   2.350  10.593  0.00  0.00    +0.000 C 
BRANCH   6  10
ATOM     10  C   UNL     1      47.219   1.021   7.218  0.00  0.00    +0.000 C 
ATOM     11  O   UNL     1      47.983   1.306   6.312  0.00  0.00    +0.000 OA
BRANCH  10  12
ATOM     12  O   UNL     1      47.048  -0.239   7.670  0.00  0.00    +0.000 OA
ATOM     13  H   UNL     1      46.171  -0.445   8.041  0.00  0.00    +0.000 HD
ENDBRANCH  10  12
ENDBRANCH   6  10
ENDBRANCH   1   3
BRANCH   1  14
ATOM     14  C   UNL     1      44.063   5.111  11.114  0.00  0.00    +0.000 C 
ATOM     15  C   UNL     1      43.112   6.183  11.666  0.00  0.00    +0.000 C 
BRANCH  14  19
ATOM     16  C   UNL     1      47.679   6.012  13.195  0.00  0.00    +0.000 A 
ATOM     17  C   UNL     1      47.367   6.806  12.102  0.00  0.00    +0.000 A 
ATOM     18  C   UNL     1      46.228   6.501  11.356  0.00  0.00    +0.000 A 
ATOM     19  C   UNL     1      45.435   5.403  11.715  0.00  0.00    +0.000 A 
ATOM     20  C   UNL     1      45.869   4.650  12.808  0.00  0.00    +0.000 A 
ATOM     21  N   UNL     1      46.965   4.922  13.550  0.00  0.00    +0.000 NA
BRANCH  16  23
ATOM     22  C   UNL     1      49.484   7.486  13.377  0.00  0.00    +0.000 C 
ATOM     23  O   UNL     1      48.766   6.396  13.952  0.00  0.00    +0.000 OA
ENDBRANCH  16  23
ENDBRANCH  14  19
ENDBRANCH   1  14
TORSDOF 6
ENDMDL
MODEL 3
REMARK VINA RESULT:    -6.948      2.412      3.264
REMARK INTER + INTRA:         -10.104
REMARK INTER:                  -9.696
REMARK INTRA:                  -0.408
REMARK UNBOUND:                -0.923
REMARK  Name = 
REMARK  9 active torsions:
REMARK  status: ('A' for Active; 'I' for Inactive)
REMARK    1  A    between atoms: C_1  and  O_2
REMARK    2  A    between atoms: O_2  and  C_3
REMARK    3  A    between atoms: C_6  and  C_7
REMARK    4  A    between atoms: C_7  and  C_8
REMARK    5  A    between atoms: C_7  and  N_9
REMARK    6  A    between atoms: N_9  and  C_10
REMARK    7  A    between atoms: C_13  and  C_14
REMARK    8  A    between atoms: C_14  and  O_16
REMARK    9  A    between atoms: C_18  and  C_19
REMARK                            x       y       z     vdW  Elec       q    Type
REMARK                         _______ _______ _______ _____ _____    ______ ____
ROOT
ATOM      1  N   UNL     1      44.264   5.172  10.018  0.00  0.00    +0.000 N 
ATOM      2  H   UNL     1      44.346   6.117   9.652  0.00  0.00    +0.000 HD
ENDROOT
BRANCH   1   3
ATOM      3  C   UNL     1      45.028   4.320   9.198  0.00  0.00    +0.000 A 
ATOM      4  N   UNL     1      45.897   4.856   8.315  0.00  0.00    +0.000 NA
ATOM      5  C   UNL     1      46.688   4.034   7.577  0.00  0.00    +0.000 A 
ATOM      6  C   UNL     1      46.636   2.657   7.645  0.00  0.00    +0.000 A 
ATOM      7  C   UNL     1      45.758   2.094   8.562  0.00  0.00    +0.000 A 
ATOM      8  C   UNL     1      44.927   2.922   9.341  0.00  0.00    +0.000 A 
ATOM      9  C   UNL     1      44.019   2.262  10.341  0.00  0.00    +0.000 C 
BRANCH   6  10
ATOM     10  C   UNL     1      47.536   1.867   6.777  0.00  0.00    +0.000 C 
ATOM     11  O   UNL     1      47.312   0.708   6.474  0.00  0.00    +0.000 OA
BRANCH  10  12
ATOM     12  O   UNL     1      48.647   2.529   6.389  0.00  0.00    +0.000 OA
ATOM     13  H   UNL     1      48.509   3.267   5.766  0.00  0.00    +0.000 HD
ENDBRANCH  10  12
ENDBRANCH   6  10
ENDBRANCH   1   3
BRANCH   1  14
ATOM     14  C   UNL     1      44.566   5.164  11.464  0.00  0.00    +0.000 C 
ATOM     15  C   UNL     1      43.307   5.291  12.334  0.00  0.00    +0.000 C 
BRANCH  14  19
ATOM     16  C   UNL     1      47.019   8.598  12.099  0.00  0.00    +0.000 A 
ATOM     17  C   UNL     1      47.630   7.359  12.214  0.00  0.00    +0.000 A 
ATOM     18  C   UNL     1      46.847   6.211  12.079  0.00  0.00    +0.000 A 
ATOM     19  C   UNL     1      45.471   6.332  11.844  0.00  0.00    +0.000 A 
ATOM     20  C   UNL     1      44.959   7.630  11.789  0.00  0.00    +0.000 A 
ATOM     21  N   UNL     1      45.691   8.758  11.913  0.00  0.00    +0.000 NA
BRANCH  16  23
ATOM     22  C   UNL     1      49.095   9.497  11.509  0.00  0.00    +0.000 C 
ATOM     23  O   UNL     1      47.842   9.704  12.158  0.00  0.00    +0.000 OA
ENDBRANCH  16  23
ENDBRANCH  14  19
ENDBRANCH   1  14
TORSDOF 6
ENDMDL
MODEL 4
REMARK VINA RESULT:    -6.606      2.015      6.576
REMARK INTER + INTRA:          -9.653
REMARK INTER:                  -9.371
REMARK INTRA:                  -0.282
REMARK UNBOUND:                -0.923
REMARK  Name = 
REMARK  9 active torsions:
REMARK  status: ('A' for Active; 'I' for Inactive)
REMARK    1  A    between atoms: C_1  and  O_2
REMARK    2  A    between atoms: O_2  and  C_3
REMARK    3  A    between atoms: C_6  and  C_7
REMARK    4  A    between atoms: C_7  and  C_8
REMARK    5  A    between atoms: C_7  and  N_9
REMARK    6  A    between atoms: N_9  and  C_10
REMARK    7  A    between atoms: C_13  and  C_14
REMARK    8  A    between atoms: C_14  and  O_16
REMARK    9  A    between atoms: C_18  and  C_19
REMARK                            x       y       z     vdW  Elec       q    Type
REMARK                         _______ _______ _______ _____ _____    ______ ____
ROOT
ATOM      1  N   UNL     1      43.884   4.894   9.961  0.00  0.00    +0.000 N 
ATOM      2  H   UNL     1      42.919   5.162  10.134  0.00  0.00    +0.000 HD
ENDROOT
BRANCH   1   3
ATOM      3  C   UNL     1      44.698   5.584  10.880  0.00  0.00    +0.000 A 
ATOM      4  N   UNL     1      45.939   5.962  10.511  0.00  0.00    +0.000 NA
ATOM      5  C   UNL     1      46.697   6.692  11.371  0.00  0.00    +0.000 A 
ATOM      6  C   UNL     1      46.286   7.049  12.639  0.00  0.00    +0.000 A 
ATOM      7  C   UNL     1      45.003   6.681  13.024  0.00  0.00    +0.000 A 
ATOM      8  C   UNL     1      44.196   5.925  12.152  0.00  0.00    +0.000 A 
ATOM      9  C   UNL     1      42.805   5.581  12.606  0.00  0.00    +0.000 C 
BRANCH   6  10
ATOM     10  C   UNL     1      47.207   7.831  13.491  0.00  0.00    +0.000 C 
ATOM     11  O   UNL     1      47.651   8.917  13.162  0.00  0.00    +0.000 OA
BRANCH  10  12
ATOM     12  O   UNL     1      47.546   7.215  14.644  0.00  0.00    +0.000 OA
ATOM     13  H   UNL     1      47.246   7.647  15.464  0.00  0.00    +0.000 HD
ENDBRANCH  10  12
ENDBRANCH   6  10
ENDBRANCH   1   3
BRANCH   1  14
ATOM     14  C   UNL     1      44.000   3.422   9.932  0.00  0.00    +0.000 C 
ATOM     15  C   UNL     1      44.546   2.844  11.246  0.00  0.00    +0.000 C 
BRANCH  14  19
ATOM     16  C   UNL     1      46.974   2.048   7.197  0.00  0.00    +0.000 A 
ATOM     17  C   UNL     1      46.557   3.363   7.065  0.00  0.00    +0.000 A 
ATOM     18  C   UNL     1      45.539   3.830   7.896  0.00  0.00    +0.000 A 
ATOM     19  C   UNL     1      44.955   2.967   8.832  0.00  0.00    +0.000 A 
ATOM     20  C   UNL     1      45.426   1.652   8.847  0.00  0.00    +0.000 A 
ATOM     21  N   UNL     1      46.411   1.172   8.057  0.00  0.00    +0.000 NA
BRANCH  16  23
ATOM     22  C   UNL     1      48.054   2.293   5.139  0.00  0.00    +0.000 C 
ATOM     23  O   UNL     1      48.037   1.650   6.412  0.00  0.00    +0.000 OA
ENDBRANCH  16  23
ENDBRANCH  14  19
ENDBRANCH   1  14
TORSDOF 6
ENDMDL
MODEL 5
REMARK VINA RESULT:    -6.497      2.762      6.847
REMARK INTER + INTRA:          -9.508
REMARK INTER:                  -8.881
REMARK INTRA:                  -0.627
REMARK UNBOUND:                -0.923
REMARK  Name = 
REMARK  9 active torsions:
REMARK  status: ('A' for Active; 'I' for Inactive)
REMARK    1  A    between atoms: C_1  and  O_2
REMARK    2  A    between atoms: O_2  and  C_3
REMARK    3  A    between atoms: C_6  and  C_7
REMARK    4  A    between atoms: C_7  and  C_8
REMARK    5  A    between atoms: C_7  and  N_9
REMARK    6  A    between atoms: N_9  and  C_10
REMARK    7  A    between atoms: C_13  and  C_14
REMARK    8  A    between atoms: C_14  and  O_16
REMARK    9  A    between atoms: C_18  and  C_19
REMARK                            x       y       z     vdW  Elec       q    Type
REMARK                         _______ _______ _______ _____ _____    ______ ____
ROOT
ATOM      1  N   UNL     1      45.152   4.306  11.748  0.00  0.00    +0.000 N 
ATOM      2  H   UNL     1      46.078   3.933  11.560  0.00  0.00    +0.000 HD
ENDROOT
BRANCH   1   3
ATOM      3  C   UNL     1      45.257   5.707  11.836  0.00  0.00    +0.000 A 
ATOM      4  N   UNL     1      44.334   6.480  11.226  0.00  0.00    +0.000 NA
ATOM      5  C   UNL     1      44.393   7.830  11.373  0.00  0.00    +0.000 A 
ATOM      6  C   UNL     1      45.376   8.479  12.090  0.00  0.00    +0.000 A 
ATOM      7  C   UNL     1      46.321   7.694  12.738  0.00  0.00    +0.000 A 
ATOM      8  C   UNL     1      46.283   6.292  12.604  0.00  0.00    +0.000 A 
ATOM      9  C   UNL     1      47.310   5.489  13.352  0.00  0.00    +0.000 C 
BRANCH   6  10
ATOM     10  C   UNL     1      45.345   9.956  12.164  0.00  0.00    +0.000 C 
ATOM     11  O   UNL     1      46.330  10.648  11.972  0.00  0.00    +0.000 OA
BRANCH  10  12
ATOM     12  O   UNL     1      44.142  10.465  12.506  0.00  0.00    +0.000 OA
ATOM     13  H   UNL     1      44.074  10.837  13.404  0.00  0.00    +0.000 HD
ENDBRANCH  10  12
ENDBRANCH   6  10
ENDBRANCH   1   3
BRANCH   1  14
ATOM     14  C   UNL     1      44.183   3.764  10.773  0.00  0.00    +0.000 C 
ATOM     15  C   UNL     1      43.384   2.576  11.329  0.00  0.00    +0.000 C 
BRANCH  14  19
ATOM     16  C   UNL     1      46.485   2.176   7.549  0.00  0.00    +0.000 A 
ATOM     17  C   UNL     1      46.272   3.546   7.555  0.00  0.00    +0.000 A 
ATOM     18  C   UNL     1      45.468   4.094   8.555  0.00  0.00    +0.000 A 
ATOM     19  C   UNL     1      44.890   3.258   9.519  0.00  0.00    +0.000 A 
ATOM     20  C   UNL     1      45.138   1.890   9.389  0.00  0.00    +0.000 A 
ATOM     21  N   UNL     1      45.913   1.331   8.433  0.00  0.00    +0.000 NA
BRANCH  16  23
ATOM     22  C   UNL     1      47.470   2.547   5.462  0.00  0.00    +0.000 C 
ATOM     23  O   UNL     1      47.349   1.685   6.592  0.00  0.00    +0.000 OA
ENDBRANCH  16  23
ENDBRANCH  14  19
ENDBRANCH   1  14
TORSDOF 6
ENDMDL
MODEL 6
REMARK VINA RESULT:    -6.254      1.314      6.160
REMARK INTER + INTRA:          -9.187
REMARK INTER:                  -9.827
REMARK INTRA:                   0.640
REMARK UNBOUND:                -0.923
REMARK  Name = 
REMARK  9 active torsions:
REMARK  status: ('A' for Active; 'I' for Inactive)
REMARK    1  A    between atoms: C_1  and  O_2
REMARK    2  A    between atoms: O_2  and  C_3
REMARK    3  A    between atoms: C_6  and  C_7
REMARK    4  A    between atoms: C_7  and  C_8
REMARK    5  A    between atoms: C_7  and  N_9
REMARK    6  A    between atoms: N_9  and  C_10
REMARK    7  A    between atoms: C_13  and  C_14
REMARK    8  A    between atoms: C_14  and  O_16
REMARK    9  A    between atoms: C_18  and  C_19
REMARK                            x       y       z     vdW  Elec       q    Type
REMARK                         _______ _______ _______ _____ _____    ______ ____
ROOT
ATOM      1  N   UNL     1      44.618   5.314  10.562  0.00  0.00    +0.000 N 
ATOM      2  H   UNL     1      43.960   6.072  10.720  0.00  0.00    +0.000 HD
ENDROOT
BRANCH   1   3
ATOM      3  C   UNL     1      45.297   5.069  11.772  0.00  0.00    +0.000 A 
ATOM      4  N   UNL     1      45.564   3.797  12.135  0.00  0.00    +0.000 NA
ATOM      5  C   UNL     1      46.283   3.564  13.264  0.00  0.00    +0.000 A 
ATOM      6  C   UNL     1      46.739   4.561  14.101  0.00  0.00    +0.000 A 
ATOM      7  C   UNL     1      46.486   5.876  13.728  0.00  0.00    +0.000 A 
ATOM      8  C   UNL     1      45.743   6.146  12.562  0.00  0.00    +0.000 A 
ATOM      9  C   UNL     1      45.526   7.586  12.189  0.00  0.00    +0.000 C 
BRANCH   6  10
ATOM     10  C   UNL     1      47.498   4.183  15.312  0.00  0.00    +0.000 C 
ATOM     11  O   UNL     1      47.778   4.978  16.192  0.00  0.00    +0.000 OA
BRANCH  10  12
ATOM     12  O   UNL     1      47.891   2.891  15.333  0.00  0.00    +0.000 OA
ATOM     13  H   UNL     1      48.731   2.707  15.792  0.00  0.00    +0.000 HD
ENDBRANCH  10  12
ENDBRANCH   6  10
ENDBRANCH   1   3
BRANCH   1  14
ATOM     14  C   UNL     1      43.927   4.169   9.936  0.00  0.00    +0.000 C 
ATOM     15  C   UNL     1      43.478   3.115  10.959  0.00  0.00    +0.000 C 
BRANCH  14  19
ATOM     16  C   UNL     1      46.739   2.030   7.541  0.00  0.00    +0.000 A 
ATOM     17  C   UNL     1      46.583   3.381   7.273  0.00  0.00    +0.000 A 
ATOM     18  C   UNL     1      45.625   4.100   7.989  0.00  0.00    +0.000 A 
ATOM     19  C   UNL     1      44.840   3.448   8.948  0.00  0.00    +0.000 A 
ATOM     20  C   UNL     1      45.054   2.076   9.103  0.00  0.00    +0.000 A 
ATOM     21  N   UNL     1      45.975   1.355   8.427  0.00  0.00    +0.000 NA
BRANCH  16  23
ATOM     22  C   UNL     1      48.164   2.061   5.690  0.00  0.00    +0.000 C 
ATOM     23  O   UNL     1      47.750   1.376   6.870  0.00  0.00    +0.000 OA
ENDBRANCH  16  23
ENDBRANCH  14  19
ENDBRANCH   1  14
TORSDOF 6
ENDMDL
MODEL 7
REMARK VINA RESULT:    -6.188      2.459      6.205
REMARK INTER + INTRA:          -9.101
REMARK INTER:                  -8.259
REMARK INTRA:                  -0.842
REMARK UNBOUND:                -0.923
REMARK  Name = 
REMARK  9 active torsions:
REMARK  status: ('A' for Active; 'I' for Inactive)
REMARK    1  A    between atoms: C_1  and  O_2
REMARK    2  A    between atoms: O_2  and  C_3
REMARK    3  A    between atoms: C_6  and  C_7
REMARK    4  A    between atoms: C_7  and  C_8
REMARK    5  A    between atoms: C_7  and  N_9
REMARK    6  A    between atoms: N_9  and  C_10
REMARK    7  A    between atoms: C_13  and  C_14
REMARK    8  A    between atoms: C_14  and  O_16
REMARK    9  A    between atoms: C_18  and  C_19
REMARK                            x       y       z     vdW  Elec       q    Type
REMARK                         _______ _______ _______ _____ _____    ______ ____
ROOT
ATOM      1  N   UNL     1      44.562   5.739  12.704  0.00  0.00    +0.000 N 
ATOM      2  H   UNL     1      44.652   4.786  13.045  0.00  0.00    +0.000 HD
ENDROOT
BRANCH   1   3
ATOM      3  C   UNL     1      45.851   6.299  12.631  0.00  0.00    +0.000 A 
ATOM      4  N   UNL     1      46.000   7.559  12.171  0.00  0.00    +0.000 NA
ATOM      5  C   UNL     1      47.235   8.126  12.169  0.00  0.00    +0.000 A 
ATOM      6  C   UNL     1      48.378   7.473  12.584  0.00  0.00    +0.000 A 
ATOM      7  C   UNL     1      48.235   6.182  13.077  0.00  0.00    +0.000 A 
ATOM      8  C   UNL     1      46.966   5.570  13.091  0.00  0.00    +0.000 A 
ATOM      9  C   UNL     1      46.863   4.185  13.664  0.00  0.00    +0.000 C 
BRANCH   6  10
ATOM     10  C   UNL     1      49.670   8.190  12.520  0.00  0.00    +0.000 C 
ATOM     11  O   UNL     1      49.774   9.384  12.737  0.00  0.00    +0.000 OA
BRANCH  10  12
ATOM     12  O   UNL     1      50.713   7.412  12.158  0.00  0.00    +0.000 OA
ATOM     13  H   UNL     1      51.074   7.570  11.267  0.00  0.00    +0.000 HD
ENDBRANCH  10  12
ENDBRANCH   6  10
ENDBRANCH   1   3
BRANCH   1  14
ATOM     14  C   UNL     1      43.749   5.758  11.471  0.00  0.00    +0.000 C 
ATOM     15  C   UNL     1      42.253   5.545  11.744  0.00  0.00    +0.000 C 
BRANCH  14  19
ATOM     16  C   UNL     1      45.162   2.463   9.156  0.00  0.00    +0.000 A 
ATOM     17  C   UNL     1      45.544   3.730   8.745  0.00  0.00    +0.000 A 
ATOM     18  C   UNL     1      45.048   4.837   9.436  0.00  0.00    +0.000 A 
ATOM     19  C   UNL     1      44.174   4.647  10.514  0.00  0.00    +0.000 A 
ATOM     20  C   UNL     1      43.825   3.328  10.811  0.00  0.00    +0.000 A 
ATOM     21  N   UNL     1      44.290   2.239  10.162  0.00  0.00    +0.000 NA
BRANCH  16  23
ATOM     22  C   UNL     1      46.753   1.796   7.579  0.00  0.00    +0.000 C 
ATOM     23  O   UNL     1      45.738   1.396   8.497  0.00  0.00    +0.000 OA
ENDBRANCH  16  23
ENDBRANCH  14  19
ENDBRANCH   1  14
TORSDOF 6
ENDMDL
MODEL 8
REMARK VINA RESULT:    -5.922      3.313      5.795
REMARK INTER + INTRA:          -8.749
REMARK INTER:                  -8.159
REMARK INTRA:                  -0.591
REMARK UNBOUND:                -0.923
REMARK  Name = 
REMARK  9 active torsions:
REMARK  status: ('A' for Active; 'I' for Inactive)
REMARK    1  A    between atoms: C_1  and  O_2
REMARK    2  A    between atoms: O_2  and  C_3
REMARK    3  A    between atoms: C_6  and  C_7
REMARK    4  A    between atoms: C_7  and  C_8
REMARK    5  A    between atoms: C_7  and  N_9
REMARK    6  A    between atoms: N_9  and  C_10
REMARK    7  A    between atoms: C_13  and  C_14
REMARK    8  A    between atoms: C_14  and  O_16
REMARK    9  A    between atoms: C_18  and  C_19
REMARK                            x       y       z     vdW  Elec       q    Type
REMARK                         _______ _______ _______ _____ _____    ______ ____
ROOT
ATOM      1  N   UNL     1      47.524   5.246  15.351  0.00  0.00    +0.000 N 
ATOM      2  H   UNL     1      48.494   5.446  15.122  0.00  0.00    +0.000 HD
ENDROOT
BRANCH   1   3
ATOM      3  C   UNL     1      46.861   4.891  14.161  0.00  0.00    +0.000 A 
ATOM      4  N   UNL     1      46.429   3.623  13.997  0.00  0.00    +0.000 NA
ATOM      5  C   UNL     1      45.724   3.298  12.882  0.00  0.00    +0.000 A 
ATOM      6  C   UNL     1      45.444   4.189  11.866  0.00  0.00    +0.000 A 
ATOM      7  C   UNL     1      45.868   5.502  12.031  0.00  0.00    +0.000 A 
ATOM      8  C   UNL     1      46.600   5.867  13.178  0.00  0.00    +0.000 A 
ATOM      9  C   UNL     1      47.005   7.307  13.322  0.00  0.00    +0.000 C 
BRANCH   6  10
ATOM     10  C   UNL     1      44.682   3.713  10.692  0.00  0.00    +0.000 C 
ATOM     11  O   UNL     1      43.798   4.369  10.168  0.00  0.00    +0.000 OA
BRANCH  10  12
ATOM     12  O   UNL     1      45.023   2.473  10.281  0.00  0.00    +0.000 OA
ATOM     13  H   UNL     1      45.288   1.848  10.980  0.00  0.00    +0.000 HD
ENDBRANCH  10  12
ENDBRANCH   6  10
ENDBRANCH   1   3
BRANCH   1  14
ATOM     14  C   UNL     1      47.459   4.285  16.470  0.00  0.00    +0.000 C 
ATOM     15  C   UNL     1      47.085   4.951  17.803  0.00  0.00    +0.000 C 
BRANCH  14  19
ATOM     16  C   UNL     1      51.000   2.066  17.337  0.00  0.00    +0.000 A 
ATOM     17  C   UNL     1      50.955   3.377  17.783  0.00  0.00    +0.000 A 
ATOM     18  C   UNL     1      49.842   4.156  17.461  0.00  0.00    +0.000 A 
ATOM     19  C   UNL     1      48.808   3.606  16.693  0.00  0.00    +0.000 A 
ATOM     20  C   UNL     1      48.981   2.289  16.263  0.00  0.00    +0.000 A 
ATOM     21  N   UNL     1      50.044   1.510  16.561  0.00  0.00    +0.000 NA
BRANCH  16  23
ATOM     22  C   UNL     1      53.187   2.102  18.159  0.00  0.00    +0.000 C 
ATOM     23  O   UNL     1      52.078   1.307  17.745  0.00  0.00    +0.000 OA
ENDBRANCH  16  23
ENDBRANCH  14  19
ENDBRANCH   1  14
TORSDOF 6
ENDMDL
MODEL 9
REMARK VINA RESULT:    -5.816      3.410      6.944
REMARK INTER + INTRA:          -8.608
REMARK INTER:                  -8.226
REMARK INTRA:                  -0.382
REMARK UNBOUND:                -0.923
REMARK  Name = 
REMARK  9 active torsions:
REMARK  status: ('A' for Active; 'I' for Inactive)
REMARK    1  A    between atoms: C_1  and  O_2
REMARK    2  A    between atoms: O_2  and  C_3
REMARK    3  A    between atoms: C_6  and  C_7
REMARK    4  A    between atoms: C_7  and  C_8
REMARK    5  A    between atoms: C_7  and  N_9
REMARK    6  A    between atoms: N_9  and  C_10
REMARK    7  A    between atoms: C_13  and  C_14
REMARK    8  A    between atoms: C_14  and  O_16
REMARK    9  A    between atoms: C_18  and  C_19
REMARK                            x       y       z     vdW  Elec       q    Type
REMARK                         _______ _______ _______ _____ _____    ______ ____
ROOT
ATOM      1  N   UNL     1      48.161   6.840  12.722  0.00  0.00    +0.000 N 
ATOM      2  H   UNL     1      48.987   7.428  12.787  0.00  0.00    +0.000 HD
ENDROOT
BRANCH   1   3
ATOM      3  C   UNL     1      48.002   6.174  13.952  0.00  0.00    +0.000 A 
ATOM      4  N   UNL     1      47.267   5.043  14.003  0.00  0.00    +0.000 NA
ATOM      5  C   UNL     1      47.175   4.361  15.174  0.00  0.00    +0.000 A 
ATOM      6  C   UNL     1      47.768   4.774  16.350  0.00  0.00    +0.000 A 
ATOM      7  C   UNL     1      48.543   5.926  16.306  0.00  0.00    +0.000 A 
ATOM      8  C   UNL     1      48.656   6.653  15.105  0.00  0.00    +0.000 A 
ATOM      9  C   UNL     1      49.532   7.874  15.105  0.00  0.00    +0.000 C 
BRANCH   6  10
ATOM     10  C   UNL     1      47.582   3.954  17.567  0.00  0.00    +0.000 C 
ATOM     11  O   UNL     1      48.345   4.000  18.516  0.00  0.00    +0.000 OA
BRANCH  10  12
ATOM     12  O   UNL     1      46.520   3.122  17.512  0.00  0.00    +0.000 OA
ATOM     13  H   UNL     1      45.645   3.548  17.456  0.00  0.00    +0.000 HD
ENDBRANCH  10  12
ENDBRANCH   6  10
ENDBRANCH   1   3
BRANCH   1  14
ATOM     14  C   UNL     1      47.014   7.633  12.233  0.00  0.00    +0.000 C 
ATOM     15  C   UNL     1      46.415   8.539  13.319  0.00  0.00    +0.000 C 
BRANCH  14  19
ATOM     16  C   UNL     1      43.903   4.866  11.295  0.00  0.00    +0.000 A 
ATOM     17  C   UNL     1      44.975   4.929  10.418  0.00  0.00    +0.000 A 
ATOM     18  C   UNL     1      45.980   5.868  10.655  0.00  0.00    +0.000 A 
ATOM     19  C   UNL     1      45.882   6.728  11.756  0.00  0.00    +0.000 A 
ATOM     20  C   UNL     1      44.737   6.604  12.546  0.00  0.00    +0.000 A 
ATOM     21  N   UNL     1      43.750   5.703  12.343  0.00  0.00    +0.000 NA
BRANCH  16  23
ATOM     22  C   UNL     1      43.294   2.655  11.743  0.00  0.00    +0.000 C 
ATOM     23  O   UNL     1      42.974   3.872  11.071  0.00  0.00    +0.000 OA
ENDBRANCH  16  23
ENDBRANCH  14  19
ENDBRANCH   1  14
TORSDOF 6
ENDMDL
