MODEL 1
REMARK VINA RESULT:    -8.775      0.000      0.000
REMARK INTER + INTRA:         -11.572
REMARK INTER:                 -10.827
REMARK INTRA:                  -0.745
REMARK UNBOUND:                -0.745
REMARK  Name = 
REMARK  4 active torsions:
REMARK  status: ('A' for Active; 'I' for Inactive)
REMARK    1  A    between atoms: C_2  and  C_4
REMARK    2  A    between atoms: C_7  and  C_8
REMARK    3  A    between atoms: C_8  and  N_9
REMARK    4  A    between atoms: C_14  and  C_15
REMARK                            x       y       z     vdW  Elec       q    Type
REMARK                         _______ _______ _______ _____ _____    ______ ____
ROOT
ATOM      1  N   UNL     1      44.134   4.677  11.576  0.00  0.00    +0.000 N 
ATOM      2  C   UNL     1      45.194   5.461  11.993  0.00  0.00    +0.000 A 
ATOM      3  C   UNL     1      45.509   6.685  11.418  0.00  0.00    +0.000 A 
ATOM      4  C   UNL     1      46.555   7.438  11.936  0.00  0.00    +0.000 A 
ATOM      5  C   UNL     1      47.243   6.965  13.043  0.00  0.00    +0.000 A 
ATOM      6  C   UNL     1      46.865   5.747  13.603  0.00  0.00    +0.000 A 
ATOM      7  N   UNL     1      45.868   4.993  13.067  0.00  0.00    +0.000 NA
ATOM      8  H   UNL     1      44.227   3.759  12.001  0.00  0.00    +0.000 HD
ENDROOT
BRANCH   6   9
ATOM      9  C   UNL     1      47.507   5.210  14.818  0.00  0.00    +0.000 A 
ATOM     10  C   UNL     1      47.179   3.954  15.356  0.00  0.00    +0.000 A 
ATOM     11  C   UNL     1      47.794   3.493  16.521  0.00  0.00    +0.000 A 
ATOM     12  C   UNL     1      48.735   4.301  17.127  0.00  0.00    +0.000 A 
ATOM     13  N   UNL     1      49.102   5.506  16.648  0.00  0.00    +0.000 NA
ATOM     14  C   UNL     1      48.487   5.922  15.507  0.00  0.00    +0.000 A 
ENDBRANCH   6   9
BRANCH   1  15
ATOM     15  C   UNL     1      43.702   4.696  10.192  0.00  0.00    +0.000 C 
BRANCH  15  19
ATOM     16  C   UNL     1      46.426   2.365   7.756  0.00  0.00    +0.000 A 
ATOM     17  C   UNL     1      46.405   3.758   7.630  0.00  0.00    +0.000 A 
ATOM     18  C   UNL     1      45.523   4.517   8.408  0.00  0.00    +0.000 A 
ATOM     19  C   UNL     1      44.632   3.898   9.299  0.00  0.00    +0.000 A 
ATOM     20  C   UNL     1      44.671   2.500   9.423  0.00  0.00    +0.000 A 
ATOM     21  C   UNL     1      45.553   1.739   8.651  0.00  0.00    +0.000 A 
BRANCH  16  23
ATOM     22  N   UNL     1      48.488   2.093   6.485  0.00  0.00    +0.000 N 
ATOM     23  C   UNL     1      47.341   1.514   6.952  0.00  0.00    +0.000 C 
ATOM     24  O   UNL     1      47.105   0.330   6.746  0.00  0.00    +0.000 OA
ATOM     25  H   UNL     1      49.149   1.474   6.033  0.00  0.00    +0.000 HD
ATOM     26  H   UNL     1      48.834   2.972   6.839  0.00  0.00    +0.000 HD
ENDBRANCH  16  23
ENDBRANCH  15  19
ENDBRANCH   1  15
TORSDOF 4
ENDMDL
MODEL 2
REMARK VINA RESULT:    -8.723      0.695      1.449
REMARK INTER + INTRA:         -11.508
REMARK INTER:                 -10.823
REMARK INTRA:                  -0.685
REMARK UNBOUND:                -0.745
REMARK  Name = 
REMARK  4 active torsions:
REMARK  status: ('A' for Active; 'I' for Inactive)
REMARK    1  A    between atoms: C_2  and  C_4
REMARK    2  A    between atoms: C_7  and  C_8
REMARK    3  A    between atoms: C_8  and  N_9
REMARK    4  A    between atoms: C_14  and  C_15
REMARK                            x       y       z     vdW  Elec       q    Type
REMARK                         _______ _______ _______ _____ _____    ______ ____
ROOT
ATOM      1  N   UNL     1      44.162   4.766  11.650  0.00  0.00    +0.000 N 
ATOM      2  C   UNL     1      45.329   5.387  12.053  0.00  0.00    +0.000 A 
ATOM      3  C   UNL     1      45.868   6.492  11.407  0.00  0.00    +0.000 A 
ATOM      4  C   UNL     1      47.014   7.092  11.913  0.00  0.00    +0.000 A 
ATOM      5  C   UNL     1      47.578   6.594  13.078  0.00  0.00    +0.000 A 
ATOM      6  C   UNL     1      46.979   5.505  13.707  0.00  0.00    +0.000 A 
ATOM      7  N   UNL     1      45.881   4.894  13.184  0.00  0.00    +0.000 NA
ATOM      8  H   UNL     1      44.082   3.881  12.142  0.00  0.00    +0.000 HD
ENDROOT
BRANCH   6   9
ATOM      9  C   UNL     1      47.484   4.960  14.981  0.00  0.00    +0.000 A 
ATOM     10  C   UNL     1      48.304   5.700  15.850  0.00  0.00    +0.000 A 
ATOM     11  C   UNL     1      48.780   5.138  17.035  0.00  0.00    +0.000 A 
ATOM     12  C   UNL     1      48.420   3.839  17.333  0.00  0.00    +0.000 A 
ATOM     13  N   UNL     1      47.624   3.087  16.547  0.00  0.00    +0.000 NA
ATOM     14  C   UNL     1      47.172   3.668  15.402  0.00  0.00    +0.000 A 
ENDBRANCH   6   9
BRANCH   1  15
ATOM     15  C   UNL     1      43.778   4.753  10.252  0.00  0.00    +0.000 C 
BRANCH  15  19
ATOM     16  C   UNL     1      46.436   2.431   7.735  0.00  0.00    +0.000 A 
ATOM     17  C   UNL     1      45.648   1.783   8.691  0.00  0.00    +0.000 A 
ATOM     18  C   UNL     1      44.793   2.526   9.513  0.00  0.00    +0.000 A 
ATOM     19  C   UNL     1      44.732   3.925   9.412  0.00  0.00    +0.000 A 
ATOM     20  C   UNL     1      45.521   4.562   8.441  0.00  0.00    +0.000 A 
ATOM     21  C   UNL     1      46.374   3.823   7.617  0.00  0.00    +0.000 A 
BRANCH  16  23
ATOM     22  N   UNL     1      48.489   2.341   6.424  0.00  0.00    +0.000 N 
ATOM     23  C   UNL     1      47.362   1.688   6.842  0.00  0.00    +0.000 C 
ATOM     24  O   UNL     1      47.153   0.525   6.521  0.00  0.00    +0.000 OA
ATOM     25  H   UNL     1      49.160   1.787   5.907  0.00  0.00    +0.000 HD
ATOM     26  H   UNL     1      48.817   3.189   6.861  0.00  0.00    +0.000 HD
ENDBRANCH  16  23
ENDBRANCH  15  19
ENDBRANCH   1  15
TORSDOF 4
ENDMDL
MODEL 3
REMARK VINA RESULT:    -8.287      0.829      1.350
REMARK INTER + INTRA:         -10.970
REMARK INTER:                 -10.233
REMARK INTRA:                  -0.737
REMARK UNBOUND:                -0.745
REMARK  Name = 
REMARK  4 active torsions:
REMARK  status: ('A' for Active; 'I' for Inactive)
REMARK    1  A    between atoms: C_2  and  C_4
REMARK    2  A    between atoms: C_7  and  C_8
REMARK    3  A    between atoms: C_8  and  N_9
REMARK    4  A    between atoms: C_14  and  C_15
REMARK                            x       y       z     vdW  Elec       q    Type
REMARK                         _______ _______ _______ _____ _____    ______ ____
ROOT
ATOM      1  N   UNL     1      44.424   4.695  11.739  0.00  0.00    +0.000 N 
ATOM      2  C   UNL     1      45.215   5.793  12.022  0.00  0.00    +0.000 A 
ATOM      3  C   UNL     1      45.015   7.043  11.450  0.00  0.00    +0.000 A 
ATOM      4  C   UNL     1      45.819   8.110  11.833  0.00  0.00    +0.000 A 
ATOM      5  C   UNL     1      46.784   7.910  12.810  0.00  0.00    +0.000 A 
ATOM      6  C   UNL     1      46.919   6.645  13.377  0.00  0.00    +0.000 A 
ATOM      7  N   UNL     1      46.159   5.594  12.967  0.00  0.00    +0.000 NA
ATOM      8  H   UNL     1      44.878   3.867  12.113  0.00  0.00    +0.000 HD
ENDROOT
BRANCH   6   9
ATOM      9  C   UNL     1      47.879   6.372  14.463  0.00  0.00    +0.000 A 
ATOM     10  C   UNL     1      48.993   7.192  14.714  0.00  0.00    +0.000 A 
ATOM     11  C   UNL     1      49.890   6.883  15.738  0.00  0.00    +0.000 A 
ATOM     12  C   UNL     1      49.652   5.757  16.498  0.00  0.00    +0.000 A 
ATOM     13  N   UNL     1      48.593   4.943  16.314  0.00  0.00    +0.000 NA
ATOM     14  C   UNL     1      47.734   5.276  15.312  0.00  0.00    +0.000 A 
ENDBRANCH   6   9
BRANCH   1  15
ATOM     15  C   UNL     1      43.806   4.546  10.436  0.00  0.00    +0.000 C 
BRANCH  15  19
ATOM     16  C   UNL     1      46.498   2.483   7.737  0.00  0.00    +0.000 A 
ATOM     17  C   UNL     1      46.431   3.880   7.712  0.00  0.00    +0.000 A 
ATOM     18  C   UNL     1      45.558   4.553   8.575  0.00  0.00    +0.000 A 
ATOM     19  C   UNL     1      44.723   3.844   9.453  0.00  0.00    +0.000 A 
ATOM     20  C   UNL     1      44.808   2.443   9.474  0.00  0.00    +0.000 A 
ATOM     21  C   UNL     1      45.680   1.767   8.617  0.00  0.00    +0.000 A 
BRANCH  16  23
ATOM     22  N   UNL     1      48.489   2.383   6.333  0.00  0.00    +0.000 N 
ATOM     23  C   UNL     1      47.405   1.721   6.839  0.00  0.00    +0.000 C 
ATOM     24  O   UNL     1      47.219   0.536   6.591  0.00  0.00    +0.000 OA
ATOM     25  H   UNL     1      49.152   1.822   5.813  0.00  0.00    +0.000 HD
ATOM     26  H   UNL     1      48.809   3.263   6.708  0.00  0.00    +0.000 HD
ENDBRANCH  16  23
ENDBRANCH  15  19
ENDBRANCH   1  15
TORSDOF 4
ENDMDL
MODEL 4
REMARK VINA RESULT:    -7.733      3.013      7.654
REMARK INTER + INTRA:         -10.286
REMARK INTER:                  -9.688
REMARK INTRA:                  -0.599
REMARK UNBOUND:                -0.745
REMARK  Name = 
REMARK  4 active torsions:
REMARK  status: ('A' for Active; 'I' for Inactive)
REMARK    1  A    between atoms: C_2  and  C_4
REMARK    2  A    between atoms: C_7  and  C_8
REMARK    3  A    between atoms: C_8  and  N_9
REMARK    4  A    between atoms: C_14  and  C_15
REMARK                            x       y       z     vdW  Elec       q    Type
REMARK                         _______ _______ _______ _____ _____    ______ ____
ROOT
ATOM      1  N   UNL     1      44.680   6.168  10.561  0.00  0.00    +0.000 N 
ATOM      2  C   UNL     1      44.655   4.808  10.316  0.00  0.00    +0.000 A 
ATOM      3  C   UNL     1      43.842   3.923  11.012  0.00  0.00    +0.000 A 
ATOM      4  C   UNL     1      43.834   2.578  10.663  0.00  0.00    +0.000 A 
ATOM      5  C   UNL     1      44.615   2.153   9.598  0.00  0.00    +0.000 A 
ATOM      6  C   UNL     1      45.385   3.087   8.911  0.00  0.00    +0.000 A 
ATOM      7  N   UNL     1      45.423   4.395   9.284  0.00  0.00    +0.000 NA
ATOM      8  H   UNL     1      45.480   6.567  10.079  0.00  0.00    +0.000 HD
ENDROOT
BRANCH   6   9
ATOM      9  C   UNL     1      46.192   2.722   7.731  0.00  0.00    +0.000 A 
ATOM     10  C   UNL     1      46.298   3.550   6.600  0.00  0.00    +0.000 A 
ATOM     11  C   UNL     1      47.052   3.155   5.495  0.00  0.00    +0.000 A 
ATOM     12  C   UNL     1      47.694   1.935   5.543  0.00  0.00    +0.000 A 
ATOM     13  N   UNL     1      47.641   1.107   6.605  0.00  0.00    +0.000 NA
ATOM     14  C   UNL     1      46.902   1.524   7.669  0.00  0.00    +0.000 A 
ENDBRANCH   6   9
BRANCH   1  15
ATOM     15  C   UNL     1      44.418   6.683  11.891  0.00  0.00    +0.000 C 
BRANCH  15  19
ATOM     16  C   UNL     1      48.096   6.904  14.174  0.00  0.00    +0.000 A 
ATOM     17  C   UNL     1      47.430   5.680  14.054  0.00  0.00    +0.000 A 
ATOM     18  C   UNL     1      46.237   5.602  13.325  0.00  0.00    +0.000 A 
ATOM     19  C   UNL     1      45.679   6.746  12.730  0.00  0.00    +0.000 A 
ATOM     20  C   UNL     1      46.365   7.965  12.850  0.00  0.00    +0.000 A 
ATOM     21  C   UNL     1      47.557   8.046  13.575  0.00  0.00    +0.000 A 
BRANCH  16  23
ATOM     22  N   UNL     1      50.472   7.443  14.250  0.00  0.00    +0.000 N 
ATOM     23  C   UNL     1      49.362   7.040  14.940  0.00  0.00    +0.000 C 
ATOM     24  O   UNL     1      49.410   6.843  16.148  0.00  0.00    +0.000 OA
ATOM     25  H   UNL     1      51.298   7.635  14.804  0.00  0.00    +0.000 HD
ATOM     26  H   UNL     1      50.419   7.852  13.329  0.00  0.00    +0.000 HD
ENDBRANCH  16  23
ENDBRANCH  15  19
ENDBRANCH   1  15
TORSDOF 4
ENDMDL
MODEL 5
REMARK VINA RESULT:    -6.689      2.497      3.395
REMARK INTER + INTRA:          -8.998
REMARK INTER:                  -8.336
REMARK INTRA:                  -0.663
REMARK UNBOUND:                -0.745
REMARK  Name = 
REMARK  4 active torsions:
REMARK  status: ('A' for Active; 'I' for Inactive)
REMARK    1  A    between atoms: C_2  and  C_4
REMARK    2  A    between atoms: C_7  and  C_8
REMARK    3  A    between atoms: C_8  and  N_9
REMARK    4  A    between atoms: C_14  and  C_15
REMARK                            x       y       z     vdW  Elec       q    Type
REMARK                         _______ _______ _______ _____ _____    ______ ____
ROOT
ATOM      1  N   UNL     1      45.586   6.298  10.535  0.00  0.00    +0.000 N 
ATOM      2  C   UNL     1      46.226   6.262  11.759  0.00  0.00    +0.000 A 
ATOM      3  C   UNL     1      46.466   5.087  12.459  0.00  0.00    +0.000 A 
ATOM      4  C   UNL     1      47.168   5.132  13.657  0.00  0.00    +0.000 A 
ATOM      5  C   UNL     1      47.648   6.351  14.111  0.00  0.00    +0.000 A 
ATOM      6  C   UNL     1      47.411   7.495  13.354  0.00  0.00    +0.000 A 
ATOM      7  N   UNL     1      46.685   7.452  12.204  0.00  0.00    +0.000 NA
ATOM      8  H   UNL     1      45.353   7.264  10.323  0.00  0.00    +0.000 HD
ENDROOT
BRANCH   6   9
ATOM      9  C   UNL     1      47.943   8.816  13.741  0.00  0.00    +0.000 A 
ATOM     10  C   UNL     1      48.539   9.056  14.990  0.00  0.00    +0.000 A 
ATOM     11  C   UNL     1      49.008  10.327  15.325  0.00  0.00    +0.000 A 
ATOM     12  C   UNL     1      48.875  11.339  14.396  0.00  0.00    +0.000 A 
ATOM     13  N   UNL     1      48.328  11.163  13.177  0.00  0.00    +0.000 NA
ATOM     14  C   UNL     1      47.886   9.911  12.880  0.00  0.00    +0.000 A 
ENDBRANCH   6   9
BRANCH   1  15
ATOM     15  C   UNL     1      44.577   5.312  10.199  0.00  0.00    +0.000 C 
BRANCH  15  19
ATOM     16  C   UNL     1      46.266   2.057   7.887  0.00  0.00    +0.000 A 
ATOM     17  C   UNL     1      46.566   3.379   7.542  0.00  0.00    +0.000 A 
ATOM     18  C   UNL     1      46.019   4.436   8.279  0.00  0.00    +0.000 A 
ATOM     19  C   UNL     1      45.144   4.191   9.350  0.00  0.00    +0.000 A 
ATOM     20  C   UNL     1      44.860   2.860   9.692  0.00  0.00    +0.000 A 
ATOM     21  C   UNL     1      45.407   1.802   8.961  0.00  0.00    +0.000 A 
BRANCH  16  23
ATOM     22  N   UNL     1      46.665  -0.340   7.691  0.00  0.00    +0.000 N 
ATOM     23  C   UNL     1      46.818   0.900   7.136  0.00  0.00    +0.000 C 
ATOM     24  O   UNL     1      47.352   1.038   6.042  0.00  0.00    +0.000 OA
ATOM     25  H   UNL     1      46.949  -1.124   7.118  0.00  0.00    +0.000 HD
ATOM     26  H   UNL     1      46.022  -0.519   8.448  0.00  0.00    +0.000 HD
ENDBRANCH  16  23
ENDBRANCH  15  19
ENDBRANCH   1  15
TORSDOF 4
ENDMDL
MODEL 6
REMARK VINA RESULT:    -6.397      3.777      8.449
REMARK INTER + INTRA:          -8.638
REMARK INTER:                  -7.983
REMARK INTRA:                  -0.655
REMARK UNBOUND:                -0.745
REMARK  Name = 
REMARK  4 active torsions:
REMARK  status: ('A' for Active; 'I' for Inactive)
REMARK    1  A    between atoms: C_2  and  C_4
REMARK    2  A    between atoms: C_7  and  C_8
REMARK    3  A    between atoms: C_8  and  N_9
REMARK    4  A    between atoms: C_14  and  C_15
REMARK                            x       y       z     vdW  Elec       q    Type
REMARK                         _______ _______ _______ _____ _____    ______ ____
ROOT
ATOM      1  N   UNL     1      47.378   3.308  15.891  0.00  0.00    +0.000 N 
ATOM      2  C   UNL     1      47.239   4.353  14.998  0.00  0.00    +0.000 A 
ATOM      3  C   UNL     1      47.950   5.542  15.099  0.00  0.00    +0.000 A 
ATOM      4  C   UNL     1      47.795   6.520  14.125  0.00  0.00    +0.000 A 
ATOM      5  C   UNL     1      46.955   6.272  13.049  0.00  0.00    +0.000 A 
ATOM      6  C   UNL     1      46.292   5.050  12.977  0.00  0.00    +0.000 A 
ATOM      7  N   UNL     1      46.414   4.113  13.955  0.00  0.00    +0.000 NA
ATOM      8  H   UNL     1      46.625   2.645  15.731  0.00  0.00    +0.000 HD
ENDROOT
BRANCH   6   9
ATOM      9  C   UNL     1      45.432   4.691  11.833  0.00  0.00    +0.000 A 
ATOM     10  C   UNL     1      45.639   5.203  10.540  0.00  0.00    +0.000 A 
ATOM     11  C   UNL     1      44.787   4.855   9.491  0.00  0.00    +0.000 A 
ATOM     12  C   UNL     1      43.742   3.994   9.754  0.00  0.00    +0.000 A 
ATOM     13  N   UNL     1      43.505   3.459  10.969  0.00  0.00    +0.000 NA
ATOM     14  C   UNL     1      44.358   3.814  11.969  0.00  0.00    +0.000 A 
ENDBRANCH   6   9
BRANCH   1  15
ATOM     15  C   UNL     1      47.716   3.561  17.278  0.00  0.00    +0.000 C 
BRANCH  15  19
ATOM     16  C   UNL     1      51.925   2.842  18.024  0.00  0.00    +0.000 A 
ATOM     17  C   UNL     1      51.169   1.880  17.347  0.00  0.00    +0.000 A 
ATOM     18  C   UNL     1      49.807   2.101  17.109  0.00  0.00    +0.000 A 
ATOM     19  C   UNL     1      49.176   3.270  17.566  0.00  0.00    +0.000 A 
ATOM     20  C   UNL     1      49.950   4.231  18.234  0.00  0.00    +0.000 A 
ATOM     21  C   UNL     1      51.310   4.016  18.471  0.00  0.00    +0.000 A 
BRANCH  16  23
ATOM     22  N   UNL     1      54.244   3.526  17.714  0.00  0.00    +0.000 N 
ATOM     23  C   UNL     1      53.372   2.654  18.304  0.00  0.00    +0.000 C 
ATOM     24  O   UNL     1      53.773   1.782  19.065  0.00  0.00    +0.000 OA
ATOM     25  H   UNL     1      55.213   3.452  18.000  0.00  0.00    +0.000 HD
ATOM     26  H   UNL     1      53.943   4.393  17.294  0.00  0.00    +0.000 HD
ENDBRANCH  16  23
ENDBRANCH  15  19
ENDBRANCH   1  15
TORSDOF 4
ENDMDL
MODEL 7
REMARK VINA RESULT:    -6.098      3.410      8.096
REMARK INTER + INTRA:          -8.270
REMARK INTER:                  -7.717
REMARK INTRA:                  -0.553
REMARK UNBOUND:                -0.745
REMARK  Name = 
REMARK  4 active torsions:
REMARK  status: ('A' for Active; 'I' for Inactive)
REMARK    1  A    between atoms: C_2  and  C_4
REMARK    2  A    between atoms: C_7  and  C_8
REMARK    3  A    between atoms: C_8  and  N_9
REMARK    4  A    between atoms: C_14  and  C_15
REMARK                            x       y       z     vdW  Elec       q    Type
REMARK                         _______ _______ _______ _____ _____    ______ ____
ROOT
ATOM      1  N   UNL     1      48.691   7.268  13.045  0.00  0.00    +0.000 N 
ATOM      2  C   UNL     1      47.376   7.334  12.623  0.00  0.00    +0.000 A 
ATOM      3  C   UNL     1      46.564   8.441  12.831  0.00  0.00    +0.000 A 
ATOM      4  C   UNL     1      45.271   8.449  12.322  0.00  0.00    +0.000 A 
ATOM      5  C   UNL     1      44.830   7.360  11.584  0.00  0.00    +0.000 A 
ATOM      6  C   UNL     1      45.696   6.290  11.376  0.00  0.00    +0.000 A 
ATOM      7  N   UNL     1      46.946   6.268  11.912  0.00  0.00    +0.000 NA
ATOM      8  H   UNL     1      49.008   6.306  12.961  0.00  0.00    +0.000 HD
ENDROOT
BRANCH   6   9
ATOM      9  C   UNL     1      45.321   5.127  10.550  0.00  0.00    +0.000 A 
ATOM     10  C   UNL     1      45.649   5.027   9.187  0.00  0.00    +0.000 A 
ATOM     11  C   UNL     1      45.253   3.919   8.437  0.00  0.00    +0.000 A 
ATOM     12  C   UNL     1      44.536   2.924   9.069  0.00  0.00    +0.000 A 
ATOM     13  N   UNL     1      44.206   2.957  10.375  0.00  0.00    +0.000 NA
ATOM     14  C   UNL     1      44.613   4.049  11.080  0.00  0.00    +0.000 A 
ENDBRANCH   6   9
BRANCH   1  15
ATOM     15  C   UNL     1      49.121   7.977  14.235  0.00  0.00    +0.000 C 
BRANCH  15  19
ATOM     16  C   UNL     1      50.187   5.197  17.385  0.00  0.00    +0.000 A 
ATOM     17  C   UNL     1      48.876   5.219  16.897  0.00  0.00    +0.000 A 
ATOM     18  C   UNL     1      48.522   6.120  15.885  0.00  0.00    +0.000 A 
ATOM     19  C   UNL     1      49.460   7.027  15.366  0.00  0.00    +0.000 A 
ATOM     20  C   UNL     1      50.774   6.986  15.858  0.00  0.00    +0.000 A 
ATOM     21  C   UNL     1      51.133   6.086  16.866  0.00  0.00    +0.000 A 
BRANCH  16  23
ATOM     22  N   UNL     1      49.764   4.099  19.520  0.00  0.00    +0.000 N 
ATOM     23  C   UNL     1      50.612   4.264  18.460  0.00  0.00    +0.000 C 
ATOM     24  O   UNL     1      51.658   3.631  18.388  0.00  0.00    +0.000 OA
ATOM     25  H   UNL     1      50.017   3.382  20.188  0.00  0.00    +0.000 HD
ATOM     26  H   UNL     1      48.801   4.399  19.495  0.00  0.00    +0.000 HD
ENDBRANCH  16  23
ENDBRANCH  15  19
ENDBRANCH   1  15
TORSDOF 4
ENDMDL
MODEL 8
REMARK VINA RESULT:    -5.860      2.865      5.221
REMARK INTER + INTRA:          -7.976
REMARK INTER:                  -7.470
REMARK INTRA:                  -0.506
REMARK UNBOUND:                -0.745
REMARK  Name = 
REMARK  4 active torsions:
REMARK  status: ('A' for Active; 'I' for Inactive)
REMARK    1  A    between atoms: C_2  and  C_4
REMARK    2  A    between atoms: C_7  and  C_8
REMARK    3  A    between atoms: C_8  and  N_9
REMARK    4  A    between atoms: C_14  and  C_15
REMARK                            x       y       z     vdW  Elec       q    Type
REMARK                         _______ _______ _______ _____ _____    ______ ____
ROOT
ATOM      1  N   UNL     1      48.056   5.989  14.902  0.00  0.00    +0.000 N 
ATOM      2  C   UNL     1      48.908   6.459  15.884  0.00  0.00    +0.000 A 
ATOM      3  C   UNL     1      48.842   7.747  16.398  0.00  0.00    +0.000 A 
ATOM      4  C   UNL     1      49.699   8.121  17.426  0.00  0.00    +0.000 A 
ATOM      5  C   UNL     1      50.580   7.183  17.943  0.00  0.00    +0.000 A 
ATOM      6  C   UNL     1      50.582   5.895  17.416  0.00  0.00    +0.000 A 
ATOM      7  N   UNL     1      49.772   5.546  16.380  0.00  0.00    +0.000 NA
ATOM      8  H   UNL     1      48.420   5.107  14.555  0.00  0.00    +0.000 HD
ENDROOT
BRANCH   6   9
ATOM      9  C   UNL     1      51.446   4.828  17.956  0.00  0.00    +0.000 A 
ATOM     10  C   UNL     1      52.340   5.042  19.019  0.00  0.00    +0.000 A 
ATOM     11  C   UNL     1      53.157   4.011  19.484  0.00  0.00    +0.000 A 
ATOM     12  C   UNL     1      53.061   2.776  18.875  0.00  0.00    +0.000 A 
ATOM     13  N   UNL     1      52.212   2.508  17.863  0.00  0.00    +0.000 NA
ATOM     14  C   UNL     1      51.425   3.534  17.438  0.00  0.00    +0.000 A 
ENDBRANCH   6   9
BRANCH   1  15
ATOM     15  C   UNL     1      47.513   6.889  13.903  0.00  0.00    +0.000 C 
BRANCH  15  19
ATOM     16  C   UNL     1      45.071   4.692  11.075  0.00  0.00    +0.000 A 
ATOM     17  C   UNL     1      45.759   5.834  10.653  0.00  0.00    +0.000 A 
ATOM     18  C   UNL     1      46.543   6.553  11.563  0.00  0.00    +0.000 A 
ATOM     19  C   UNL     1      46.631   6.161  12.908  0.00  0.00    +0.000 A 
ATOM     20  C   UNL     1      45.943   5.007  13.315  0.00  0.00    +0.000 A 
ATOM     21  C   UNL     1      45.161   4.284  12.410  0.00  0.00    +0.000 A 
BRANCH  16  23
ATOM     22  N   UNL     1      44.058   4.374   8.881  0.00  0.00    +0.000 N 
ATOM     23  C   UNL     1      44.222   3.895  10.151  0.00  0.00    +0.000 C 
ATOM     24  O   UNL     1      43.721   2.831  10.493  0.00  0.00    +0.000 OA
ATOM     25  H   UNL     1      43.568   3.767   8.235  0.00  0.00    +0.000 HD
ATOM     26  H   UNL     1      44.647   5.096   8.494  0.00  0.00    +0.000 HD
ENDBRANCH  16  23
ENDBRANCH  15  19
ENDBRANCH   1  15
TORSDOF 4
ENDMDL
MODEL 9
REMARK VINA RESULT:    -5.790      4.862      6.285
REMARK INTER + INTRA:          -7.889
REMARK INTER:                  -7.361
REMARK INTRA:                  -0.528
REMARK UNBOUND:                -0.745
REMARK  Name = 
REMARK  4 active torsions:
REMARK  status: ('A' for Active; 'I' for Inactive)
REMARK    1  A    between atoms: C_2  and  C_4
REMARK    2  A    between atoms: C_7  and  C_8
REMARK    3  A    between atoms: C_8  and  N_9
REMARK    4  A    between atoms: C_14  and  C_15
REMARK                            x       y       z     vdW  Elec       q    Type
REMARK                         _______ _______ _______ _____ _____    ______ ____
ROOT
ATOM      1  N   UNL     1      48.841   6.947  12.873  0.00  0.00    +0.000 N 
ATOM      2  C   UNL     1      49.584   7.862  12.151  0.00  0.00    +0.000 A 
ATOM      3  C   UNL     1      49.350   9.231  12.186  0.00  0.00    +0.000 A 
ATOM      4  C   UNL     1      50.181  10.088  11.477  0.00  0.00    +0.000 A 
ATOM      5  C   UNL     1      51.254   9.560  10.775  0.00  0.00    +0.000 A 
ATOM      6  C   UNL     1      51.466   8.184  10.800  0.00  0.00    +0.000 A 
ATOM      7  N   UNL     1      50.624   7.344  11.461  0.00  0.00    +0.000 NA
ATOM      8  H   UNL     1      49.064   6.015  12.535  0.00  0.00    +0.000 HD
ENDROOT
BRANCH   6   9
ATOM      9  C   UNL     1      52.620   7.555  10.130  0.00  0.00    +0.000 A 
ATOM     10  C   UNL     1      52.537   6.994   8.844  0.00  0.00    +0.000 A 
ATOM     11  C   UNL     1      53.647   6.388   8.256  0.00  0.00    +0.000 A 
ATOM     12  C   UNL     1      54.830   6.359   8.968  0.00  0.00    +0.000 A 
ATOM     13  N   UNL     1      54.973   6.894  10.197  0.00  0.00    +0.000 NA
ATOM     14  C   UNL     1      53.872   7.483  10.738  0.00  0.00    +0.000 A 
ENDBRANCH   6   9
BRANCH   1  15
ATOM     15  C   UNL     1      47.444   7.198  13.168  0.00  0.00    +0.000 C 
BRANCH  15  19
ATOM     16  C   UNL     1      44.970   4.097  11.420  0.00  0.00    +0.000 A 
ATOM     17  C   UNL     1      45.184   5.288  10.719  0.00  0.00    +0.000 A 
ATOM     18  C   UNL     1      45.975   6.297  11.280  0.00  0.00    +0.000 A 
ATOM     19  C   UNL     1      46.540   6.145  12.556  0.00  0.00    +0.000 A 
ATOM     20  C   UNL     1      46.326   4.940  13.244  0.00  0.00    +0.000 A 
ATOM     21  C   UNL     1      45.540   3.929  12.686  0.00  0.00    +0.000 A 
BRANCH  16  23
ATOM     22  N   UNL     1      44.696   2.207   9.906  0.00  0.00    +0.000 N 
ATOM     23  C   UNL     1      44.136   2.997  10.871  0.00  0.00    +0.000 C 
ATOM     24  O   UNL     1      43.007   2.774  11.290  0.00  0.00    +0.000 OA
ATOM     25  H   UNL     1      44.156   1.399   9.621  0.00  0.00    +0.000 HD
ATOM     26  H   UNL     1      45.687   2.199   9.720  0.00  0.00    +0.000 HD
ENDBRANCH  16  23
ENDBRANCH  15  19
ENDBRANCH   1  15
TORSDOF 4
ENDMDL
