MODEL 1
REMARK VINA RESULT:    -8.013      0.000      0.000
REMARK INTER + INTRA:         -10.470
REMARK INTER:                 -10.121
REMARK INTRA:                  -0.348
REMARK UNBOUND:                -0.348
REMARK  Name = 
REMARK  6 active torsions:
REMARK  status: ('A' for Active; 'I' for Inactive)
REMARK    1  A    between atoms: C_1  and  C_2
REMARK    2  A    between atoms: C_2  and  N_3
REMARK    3  A    between atoms: C_2  and  C_4
REMARK    4  A    between atoms: C_7  and  C_8
REMARK    5  A    between atoms: C_8  and  N_9
REMARK    6  A    between atoms: C_14  and  C_15
REMARK                            x       y       z     vdW  Elec       q    Type
REMARK                         _______ _______ _______ _____ _____    ______ ____
ROOT
ATOM      1  N   UNL     1      44.921   4.948  11.829  0.00  0.00    +0.000 N 
ATOM      2  C   UNL     1      44.820   4.024  12.844  0.00  0.00    +0.000 A 
ATOM      3  C   UNL     1      45.924   4.162  13.654  0.00  0.00    +0.000 A 
ATOM      4  C   UNL     1      46.692   5.233  13.145  0.00  0.00    +0.000 A 
ATOM      5  N   UNL     1      47.871   5.717  13.606  0.00  0.00    +0.000 NA
ATOM      6  C   UNL     1      48.351   6.779  12.905  0.00  0.00    +0.000 A 
ATOM      7  C   UNL     1      47.718   7.394  11.831  0.00  0.00    +0.000 A 
ATOM      8  C   UNL     1      46.505   6.885  11.371  0.00  0.00    +0.000 A 
ATOM      9  C   UNL     1      46.016   5.757  12.041  0.00  0.00    +0.000 A 
ENDROOT
BRANCH   6  10
ATOM     10  C   UNL     1      49.698   7.287  13.335  0.00  0.00    +0.000 C 
ATOM     11  N   UNL     1      50.544   7.657  12.328  0.00  0.00    +0.000 N 
ATOM     12  O   UNL     1      50.025   7.381  14.514  0.00  0.00    +0.000 OA
ATOM     13  H   UNL     1      50.233   7.595  11.364  0.00  0.00    +0.000 HD
ATOM     14  H   UNL     1      51.452   8.039  12.551  0.00  0.00    +0.000 HD
ENDBRANCH   6  10
BRANCH   1  15
ATOM     15  C   UNL     1      43.993   5.026  10.713  0.00  0.00    +0.000 C 
BRANCH  15  19
ATOM     16  C   UNL     1      46.390   2.334   8.142  0.00  0.00    +0.000 C 
ATOM     17  C   UNL     1      45.137   1.798   8.860  0.00  0.00    +0.000 C 
ATOM     18  C   UNL     1      44.661   2.724   9.976  0.00  0.00    +0.000 C 
ATOM     19  C   UNL     1      44.384   4.155   9.493  0.00  0.00    +0.000 C 
ATOM     20  C   UNL     1      45.607   4.697   8.735  0.00  0.00    +0.000 C 
ATOM     21  C   UNL     1      46.090   3.756   7.626  0.00  0.00    +0.000 C 
BRANCH  16  23
ATOM     22  C   UNL     1      46.824  -0.103   7.430  0.00  0.00    +0.000 C 
ATOM     23  C   UNL     1      46.852   1.371   7.008  0.00  0.00    +0.000 C 
BRANCH  23  24
ATOM     24  N   UNL     1      48.221   1.644   6.562  0.00  0.00    +0.000 NA
ATOM     25  H   UNL     1      48.264   1.658   5.544  0.00  0.00    +0.000 HD
ATOM     26  H   UNL     1      48.856   0.912   6.873  0.00  0.00    +0.000 HD
ENDBRANCH  23  24
ENDBRANCH  16  23
ENDBRANCH  15  19
ENDBRANCH   1  15
TORSDOF 5
ENDMDL
MODEL 2
REMARK VINA RESULT:    -7.969      2.067      2.699
REMARK INTER + INTRA:         -10.414
REMARK INTER:                  -9.942
REMARK INTRA:                  -0.472
REMARK UNBOUND:                -0.348
REMARK  Name = 
REMARK  6 active torsions:
REMARK  status: ('A' for Active; 'I' for Inactive)
REMARK    1  A    between atoms: C_1  and  C_2
REMARK    2  A    between atoms: C_2  and  N_3
REMARK    3  A    between atoms: C_2  and  C_4
REMARK    4  A    between atoms: C_7  and  C_8
REMARK    5  A    between atoms: C_8  and  N_9
REMARK    6  A    between atoms: C_14  and  C_15
REMARK                            x       y       z     vdW  Elec       q    Type
REMARK                         _______ _______ _______ _____ _____    ______ ____
ROOT
ATOM      1  N   UNL     1      44.454   5.353  11.256  0.00  0.00    +0.000 N 
ATOM      2  C   UNL     1      44.569   6.724  11.291  0.00  0.00    +0.000 A 
ATOM      3  C   UNL     1      45.382   7.053  12.351  0.00  0.00    +0.000 A 
ATOM      4  C   UNL     1      45.814   5.846  12.945  0.00  0.00    +0.000 A 
ATOM      5  N   UNL     1      46.613   5.679  14.027  0.00  0.00    +0.000 NA
ATOM      6  C   UNL     1      46.865   4.380  14.340  0.00  0.00    +0.000 A 
ATOM      7  C   UNL     1      46.415   3.273  13.628  0.00  0.00    +0.000 A 
ATOM      8  C   UNL     1      45.596   3.463  12.516  0.00  0.00    +0.000 A 
ATOM      9  C   UNL     1      45.277   4.790  12.206  0.00  0.00    +0.000 A 
ENDROOT
BRANCH   6  10
ATOM     10  C   UNL     1      47.676   4.156  15.585  0.00  0.00    +0.000 C 
ATOM     11  N   UNL     1      47.684   5.185  16.484  0.00  0.00    +0.000 N 
ATOM     12  O   UNL     1      48.287   3.114  15.798  0.00  0.00    +0.000 OA
ATOM     13  H   UNL     1      47.144   6.022  16.292  0.00  0.00    +0.000 HD
ATOM     14  H   UNL     1      48.183   5.084  17.356  0.00  0.00    +0.000 HD
ENDBRANCH   6  10
BRANCH   1  15
ATOM     15  C   UNL     1      43.580   4.640  10.339  0.00  0.00    +0.000 C 
BRANCH  15  19
ATOM     16  C   UNL     1      46.723   2.567   8.012  0.00  0.00    +0.000 C 
ATOM     17  C   UNL     1      45.410   1.837   8.350  0.00  0.00    +0.000 C 
ATOM     18  C   UNL     1      44.619   2.537   9.453  0.00  0.00    +0.000 C 
ATOM     19  C   UNL     1      44.303   4.005   9.126  0.00  0.00    +0.000 C 
ATOM     20  C   UNL     1      45.595   4.744   8.742  0.00  0.00    +0.000 C 
ATOM     21  C   UNL     1      46.393   4.029   7.647  0.00  0.00    +0.000 C 
BRANCH  16  23
ATOM     22  C   UNL     1      47.351   2.502   5.514  0.00  0.00    +0.000 C 
ATOM     23  C   UNL     1      47.508   1.832   6.884  0.00  0.00    +0.000 C 
BRANCH  23  24
ATOM     24  N   UNL     1      47.077   0.442   6.714  0.00  0.00    +0.000 NA
ATOM     25  H   UNL     1      46.190   0.407   6.212  0.00  0.00    +0.000 HD
ATOM     26  H   UNL     1      46.922  -0.002   7.616  0.00  0.00    +0.000 HD
ENDBRANCH  23  24
ENDBRANCH  16  23
ENDBRANCH  15  19
ENDBRANCH   1  15
TORSDOF 5
ENDMDL
MODEL 3
REMARK VINA RESULT:    -7.625      2.776      6.645
REMARK INTER + INTRA:          -9.979
REMARK INTER:                  -9.464
REMARK INTRA:                  -0.516
REMARK UNBOUND:                -0.348
REMARK  Name = 
REMARK  6 active torsions:
REMARK  status: ('A' for Active; 'I' for Inactive)
REMARK    1  A    between atoms: C_1  and  C_2
REMARK    2  A    between atoms: C_2  and  N_3
REMARK    3  A    between atoms: C_2  and  C_4
REMARK    4  A    between atoms: C_7  and  C_8
REMARK    5  A    between atoms: C_8  and  N_9
REMARK    6  A    between atoms: C_14  and  C_15
REMARK                            x       y       z     vdW  Elec       q    Type
REMARK                         _______ _______ _______ _____ _____    ______ ____
ROOT
ATOM      1  N   UNL     1      43.944   4.152  10.530  0.00  0.00    +0.000 N 
ATOM      2  C   UNL     1      43.545   2.938  11.040  0.00  0.00    +0.000 A 
ATOM      3  C   UNL     1      44.139   1.948  10.291  0.00  0.00    +0.000 A 
ATOM      4  C   UNL     1      44.962   2.579   9.331  0.00  0.00    +0.000 A 
ATOM      5  N   UNL     1      45.724   2.005   8.369  0.00  0.00    +0.000 NA
ATOM      6  C   UNL     1      46.424   2.889   7.609  0.00  0.00    +0.000 A 
ATOM      7  C   UNL     1      46.440   4.269   7.781  0.00  0.00    +0.000 A 
ATOM      8  C   UNL     1      45.653   4.843   8.777  0.00  0.00    +0.000 A 
ATOM      9  C   UNL     1      44.879   3.957   9.537  0.00  0.00    +0.000 A 
ENDROOT
BRANCH   6  10
ATOM     10  C   UNL     1      47.213   2.295   6.477  0.00  0.00    +0.000 C 
ATOM     11  N   UNL     1      47.260   3.036   5.330  0.00  0.00    +0.000 N 
ATOM     12  O   UNL     1      47.792   1.218   6.569  0.00  0.00    +0.000 OA
ATOM     13  H   UNL     1      46.794   3.937   5.296  0.00  0.00    +0.000 HD
ATOM     14  H   UNL     1      47.802   2.708   4.543  0.00  0.00    +0.000 HD
ENDBRANCH   6  10
BRANCH   1  15
ATOM     15  C   UNL     1      43.429   5.431  10.992  0.00  0.00    +0.000 C 
BRANCH  15  19
ATOM     16  C   UNL     1      47.000   7.329  12.790  0.00  0.00    +0.000 C 
ATOM     17  C   UNL     1      45.797   8.195  12.372  0.00  0.00    +0.000 C 
ATOM     18  C   UNL     1      44.838   7.455  11.444  0.00  0.00    +0.000 C 
ATOM     19  C   UNL     1      44.319   6.138  12.042  0.00  0.00    +0.000 C 
ATOM     20  C   UNL     1      45.503   5.274  12.508  0.00  0.00    +0.000 C 
ATOM     21  C   UNL     1      46.471   6.027  13.426  0.00  0.00    +0.000 C 
BRANCH  16  23
ATOM     22  C   UNL     1      48.914   7.188  14.509  0.00  0.00    +0.000 C 
ATOM     23  C   UNL     1      47.962   8.109  13.737  0.00  0.00    +0.000 C 
BRANCH  23  24
ATOM     24  N   UNL     1      47.243   8.894  14.744  0.00  0.00    +0.000 NA
ATOM     25  H   UNL     1      47.141   9.859  14.433  0.00  0.00    +0.000 HD
ATOM     26  H   UNL     1      47.761   8.922  15.620  0.00  0.00    +0.000 HD
ENDBRANCH  23  24
ENDBRANCH  16  23
ENDBRANCH  15  19
ENDBRANCH   1  15
TORSDOF 5
ENDMDL
MODEL 4
REMARK VINA RESULT:    -6.836      1.465      2.032
REMARK INTER + INTRA:          -8.983
REMARK INTER:                  -8.558
REMARK INTRA:                  -0.424
REMARK UNBOUND:                -0.348
REMARK  Name = 
REMARK  6 active torsions:
REMARK  status: ('A' for Active; 'I' for Inactive)
REMARK    1  A    between atoms: C_1  and  C_2
REMARK    2  A    between atoms: C_2  and  N_3
REMARK    3  A    between atoms: C_2  and  C_4
REMARK    4  A    between atoms: C_7  and  C_8
REMARK    5  A    between atoms: C_8  and  N_9
REMARK    6  A    between atoms: C_14  and  C_15
REMARK                            x       y       z     vdW  Elec       q    Type
REMARK                         _______ _______ _______ _____ _____    ______ ____
ROOT
ATOM      1  N   UNL     1      44.501   6.223  11.647  0.00  0.00    +0.000 N 
ATOM      2  C   UNL     1      44.161   7.497  11.253  0.00  0.00    +0.000 A 
ATOM      3  C   UNL     1      45.023   8.375  11.869  0.00  0.00    +0.000 A 
ATOM      4  C   UNL     1      45.943   7.610  12.619  0.00  0.00    +0.000 A 
ATOM      5  N   UNL     1      46.960   8.047  13.402  0.00  0.00    +0.000 NA
ATOM      6  C   UNL     1      47.687   7.053  13.980  0.00  0.00    +0.000 A 
ATOM      7  C   UNL     1      47.490   5.690  13.788  0.00  0.00    +0.000 A 
ATOM      8  C   UNL     1      46.442   5.258  12.978  0.00  0.00    +0.000 A 
ATOM      9  C   UNL     1      45.643   6.261  12.416  0.00  0.00    +0.000 A 
ENDROOT
BRANCH   6  10
ATOM     10  C   UNL     1      48.768   7.500  14.922  0.00  0.00    +0.000 C 
ATOM     11  N   UNL     1      49.254   6.543  15.767  0.00  0.00    +0.000 N 
ATOM     12  O   UNL     1      49.203   8.647  14.934  0.00  0.00    +0.000 OA
ATOM     13  H   UNL     1      48.893   5.596  15.713  0.00  0.00    +0.000 HD
ATOM     14  H   UNL     1      50.006   6.770  16.403  0.00  0.00    +0.000 HD
ENDBRANCH   6  10
BRANCH   1  15
ATOM     15  C   UNL     1      43.741   5.037  11.289  0.00  0.00    +0.000 C 
BRANCH  15  19
ATOM     16  C   UNL     1      46.178   2.794   8.353  0.00  0.00    +0.000 C 
ATOM     17  C   UNL     1      44.893   2.167   8.924  0.00  0.00    +0.000 C 
ATOM     18  C   UNL     1      44.395   2.889  10.174  0.00  0.00    +0.000 C 
ATOM     19  C   UNL     1      44.158   4.390   9.946  0.00  0.00    +0.000 C 
ATOM     20  C   UNL     1      45.415   5.030   9.334  0.00  0.00    +0.000 C 
ATOM     21  C   UNL     1      45.919   4.292   8.090  0.00  0.00    +0.000 C 
BRANCH  16  23
ATOM     22  C   UNL     1      47.050   0.582   7.362  0.00  0.00    +0.000 C 
ATOM     23  C   UNL     1      46.662   2.038   7.079  0.00  0.00    +0.000 C 
BRANCH  23  24
ATOM     24  N   UNL     1      47.837   2.665   6.466  0.00  0.00    +0.000 NA
ATOM     25  H   UNL     1      48.532   1.958   6.231  0.00  0.00    +0.000 HD
ATOM     26  H   UNL     1      48.283   3.310   7.114  0.00  0.00    +0.000 HD
ENDBRANCH  23  24
ENDBRANCH  16  23
ENDBRANCH  15  19
ENDBRANCH   1  15
TORSDOF 5
ENDMDL
MODEL 5
REMARK VINA RESULT:    -6.528      2.874      4.327
REMARK INTER + INTRA:          -8.594
REMARK INTER:                  -7.959
REMARK INTRA:                  -0.635
REMARK UNBOUND:                -0.348
REMARK  Name = 
REMARK  6 active torsions:
REMARK  status: ('A' for Active; 'I' for Inactive)
REMARK    1  A    between atoms: C_1  and  C_2
REMARK    2  A    between atoms: C_2  and  N_3
REMARK    3  A    between atoms: C_2  and  C_4
REMARK    4  A    between atoms: C_7  and  C_8
REMARK    5  A    between atoms: C_8  and  N_9
REMARK    6  A    between atoms: C_14  and  C_15
REMARK                            x       y       z     vdW  Elec       q    Type
REMARK                         _______ _______ _______ _____ _____    ______ ____
ROOT
ATOM      1  N   UNL     1      47.165   6.500  13.947  0.00  0.00    +0.000 N 
ATOM      2  C   UNL     1      48.088   7.516  13.850  0.00  0.00    +0.000 A 
ATOM      3  C   UNL     1      49.021   7.336  14.846  0.00  0.00    +0.000 A 
ATOM      4  C   UNL     1      48.683   6.150  15.535  0.00  0.00    +0.000 A 
ATOM      5  N   UNL     1      49.305   5.589  16.600  0.00  0.00    +0.000 NA
ATOM      6  C   UNL     1      48.745   4.424  17.025  0.00  0.00    +0.000 A 
ATOM      7  C   UNL     1      47.659   3.786  16.435  0.00  0.00    +0.000 A 
ATOM      8  C   UNL     1      47.032   4.376  15.339  0.00  0.00    +0.000 A 
ATOM      9  C   UNL     1      47.556   5.603  14.917  0.00  0.00    +0.000 A 
ENDROOT
BRANCH   6  10
ATOM     10  C   UNL     1      49.356   3.819  18.256  0.00  0.00    +0.000 C 
ATOM     11  N   UNL     1      48.475   3.400  19.213  0.00  0.00    +0.000 N 
ATOM     12  O   UNL     1      50.567   3.692  18.399  0.00  0.00    +0.000 OA
ATOM     13  H   UNL     1      47.478   3.492  19.052  0.00  0.00    +0.000 HD
ATOM     14  H   UNL     1      48.821   2.953  20.051  0.00  0.00    +0.000 HD
ENDBRANCH   6  10
BRANCH   1  15
ATOM     15  C   UNL     1      45.964   6.420  13.131  0.00  0.00    +0.000 C 
BRANCH  15  19
ATOM     16  C   UNL     1      44.711   4.035   9.619  0.00  0.00    +0.000 C 
ATOM     17  C   UNL     1      45.744   5.166   9.452  0.00  0.00    +0.000 C 
ATOM     18  C   UNL     1      45.775   6.111  10.650  0.00  0.00    +0.000 C 
ATOM     19  C   UNL     1      46.038   5.388  11.980  0.00  0.00    +0.000 C 
ATOM     20  C   UNL     1      45.046   4.226  12.148  0.00  0.00    +0.000 C 
ATOM     21  C   UNL     1      45.007   3.290  10.936  0.00  0.00    +0.000 C 
BRANCH  16  23
ATOM     22  C   UNL     1      45.287   1.702   8.691  0.00  0.00    +0.000 C 
ATOM     23  C   UNL     1      44.701   3.086   8.383  0.00  0.00    +0.000 C 
BRANCH  23  24
ATOM     24  N   UNL     1      45.476   3.619   7.259  0.00  0.00    +0.000 NA
ATOM     25  H   UNL     1      44.864   3.807   6.467  0.00  0.00    +0.000 HD
ATOM     26  H   UNL     1      46.167   2.944   6.943  0.00  0.00    +0.000 HD
ENDBRANCH  23  24
ENDBRANCH  16  23
ENDBRANCH  15  19
ENDBRANCH   1  15
TORSDOF 5
ENDMDL
MODEL 6
REMARK VINA RESULT:    -6.126      3.629      5.939
REMARK INTER + INTRA:          -8.085
REMARK INTER:                  -7.522
REMARK INTRA:                  -0.564
REMARK UNBOUND:                -0.348
REMARK  Name = 
REMARK  6 active torsions:
REMARK  status: ('A' for Active; 'I' for Inactive)
REMARK    1  A    between atoms: C_1  and  C_2
REMARK    2  A    between atoms: C_2  and  N_3
REMARK    3  A    between atoms: C_2  and  C_4
REMARK    4  A    between atoms: C_7  and  C_8
REMARK    5  A    between atoms: C_8  and  N_9
REMARK    6  A    between atoms: C_14  and  C_15
REMARK                            x       y       z     vdW  Elec       q    Type
REMARK                         _______ _______ _______ _____ _____    ______ ____
ROOT
ATOM      1  N   UNL     1      48.716   6.932  14.774  0.00  0.00    +0.000 N 
ATOM      2  C   UNL     1      49.173   8.203  15.036  0.00  0.00    +0.000 A 
ATOM      3  C   UNL     1      49.209   8.367  16.402  0.00  0.00    +0.000 A 
ATOM      4  C   UNL     1      48.811   7.144  16.986  0.00  0.00    +0.000 A 
ATOM      5  N   UNL     1      48.679   6.843  18.301  0.00  0.00    +0.000 NA
ATOM      6  C   UNL     1      48.296   5.561  18.545  0.00  0.00    +0.000 A 
ATOM      7  C   UNL     1      48.088   4.581  17.581  0.00  0.00    +0.000 A 
ATOM      8  C   UNL     1      48.230   4.907  16.234  0.00  0.00    +0.000 A 
ATOM      9  C   UNL     1      48.569   6.236  15.954  0.00  0.00    +0.000 A 
ENDROOT
BRANCH   6  10
ATOM     10  C   UNL     1      48.057   5.217  19.987  0.00  0.00    +0.000 C 
ATOM     11  N   UNL     1      48.589   4.031  20.412  0.00  0.00    +0.000 N 
ATOM     12  O   UNL     1      47.435   5.950  20.749  0.00  0.00    +0.000 OA
ATOM     13  H   UNL     1      49.122   3.461  19.765  0.00  0.00    +0.000 HD
ATOM     14  H   UNL     1      48.492   3.757  21.380  0.00  0.00    +0.000 HD
ENDBRANCH   6  10
BRANCH   1  15
ATOM     15  C   UNL     1      48.437   6.434  13.437  0.00  0.00    +0.000 C 
BRANCH  15  19
ATOM     16  C   UNL     1      44.783   4.951  11.426  0.00  0.00    +0.000 C 
ATOM     17  C   UNL     1      45.168   4.412  12.816  0.00  0.00    +0.000 C 
ATOM     18  C   UNL     1      46.615   4.730  13.187  0.00  0.00    +0.000 C 
ATOM     19  C   UNL     1      46.933   6.232  13.130  0.00  0.00    +0.000 C 
ATOM     20  C   UNL     1      46.516   6.803  11.765  0.00  0.00    +0.000 C 
ATOM     21  C   UNL     1      45.069   6.466  11.391  0.00  0.00    +0.000 C 
BRANCH  16  23
ATOM     22  C   UNL     1      42.301   5.563  11.741  0.00  0.00    +0.000 C 
ATOM     23  C   UNL     1      43.303   4.613  11.074  0.00  0.00    +0.000 C 
BRANCH  23  24
ATOM     24  N   UNL     1      42.923   3.260  11.487  0.00  0.00    +0.000 NA
ATOM     25  H   UNL     1      42.818   2.658  10.672  0.00  0.00    +0.000 HD
ATOM     26  H   UNL     1      42.025   3.266  11.965  0.00  0.00    +0.000 HD
ENDBRANCH  23  24
ENDBRANCH  16  23
ENDBRANCH  15  19
ENDBRANCH   1  15
TORSDOF 5
ENDMDL
MODEL 7
REMARK VINA RESULT:    -6.119      3.398      6.876
REMARK INTER + INTRA:          -8.078
REMARK INTER:                  -7.492
REMARK INTRA:                  -0.586
REMARK UNBOUND:                -0.348
REMARK  Name = 
REMARK  6 active torsions:
REMARK  status: ('A' for Active; 'I' for Inactive)
REMARK    1  A    between atoms: C_1  and  C_2
REMARK    2  A    between atoms: C_2  and  N_3
REMARK    3  A    between atoms: C_2  and  C_4
REMARK    4  A    between atoms: C_7  and  C_8
REMARK    5  A    between atoms: C_8  and  N_9
REMARK    6  A    between atoms: C_14  and  C_15
REMARK                            x       y       z     vdW  Elec       q    Type
REMARK                         _______ _______ _______ _____ _____    ______ ____
ROOT
ATOM      1  N   UNL     1      46.157   7.861  12.881  0.00  0.00    +0.000 N 
ATOM      2  C   UNL     1      45.366   8.708  12.140  0.00  0.00    +0.000 A 
ATOM      3  C   UNL     1      44.510   7.938  11.387  0.00  0.00    +0.000 A 
ATOM      4  C   UNL     1      44.754   6.586  11.718  0.00  0.00    +0.000 A 
ATOM      5  N   UNL     1      44.162   5.476  11.214  0.00  0.00    +0.000 NA
ATOM      6  C   UNL     1      44.605   4.311  11.758  0.00  0.00    +0.000 A 
ATOM      7  C   UNL     1      45.544   4.198  12.777  0.00  0.00    +0.000 A 
ATOM      8  C   UNL     1      46.142   5.350  13.286  0.00  0.00    +0.000 A 
ATOM      9  C   UNL     1      45.743   6.559  12.704  0.00  0.00    +0.000 A 
ENDROOT
BRANCH   6  10
ATOM     10  C   UNL     1      44.033   3.056  11.163  0.00  0.00    +0.000 C 
ATOM     11  N   UNL     1      44.751   2.501  10.141  0.00  0.00    +0.000 N 
ATOM     12  O   UNL     1      42.995   2.545  11.568  0.00  0.00    +0.000 OA
ATOM     13  H   UNL     1      45.622   2.931   9.848  0.00  0.00    +0.000 HD
ATOM     14  H   UNL     1      44.438   1.637   9.720  0.00  0.00    +0.000 HD
ENDBRANCH   6  10
BRANCH   1  15
ATOM     15  C   UNL     1      47.262   8.309  13.714  0.00  0.00    +0.000 C 
BRANCH  15  19
ATOM     16  C   UNL     1      51.316   8.595  11.960  0.00  0.00    +0.000 C 
ATOM     17  C   UNL     1      51.147   8.387  13.477  0.00  0.00    +0.000 C 
ATOM     18  C   UNL     1      49.729   8.688  13.954  0.00  0.00    +0.000 C 
ATOM     19  C   UNL     1      48.660   7.867  13.217  0.00  0.00    +0.000 C 
ATOM     20  C   UNL     1      48.836   8.024  11.698  0.00  0.00    +0.000 C 
ATOM     21  C   UNL     1      50.265   7.737  11.227  0.00  0.00    +0.000 C 
BRANCH  16  23
ATOM     22  C   UNL     1      52.824   7.327  10.301  0.00  0.00    +0.000 C 
ATOM     23  C   UNL     1      52.772   8.280  11.501  0.00  0.00    +0.000 C 
BRANCH  23  24
ATOM     24  N   UNL     1      53.571   7.655  12.557  0.00  0.00    +0.000 NA
ATOM     25  H   UNL     1      53.610   6.646  12.420  0.00  0.00    +0.000 HD
ATOM     26  H   UNL     1      53.150   7.811  13.471  0.00  0.00    +0.000 HD
ENDBRANCH  23  24
ENDBRANCH  16  23
ENDBRANCH  15  19
ENDBRANCH   1  15
TORSDOF 5
ENDMDL
MODEL 8
REMARK VINA RESULT:    -6.117      4.274      8.490
REMARK INTER + INTRA:          -8.075
REMARK INTER:                  -7.525
REMARK INTRA:                  -0.550
REMARK UNBOUND:                -0.348
REMARK  Name = 
REMARK  6 active torsions:
REMARK  status: ('A' for Active; 'I' for Inactive)
REMARK    1  A    between atoms: C_1  and  C_2
REMARK    2  A    between atoms: C_2  and  N_3
REMARK    3  A    between atoms: C_2  and  C_4
REMARK    4  A    between atoms: C_7  and  C_8
REMARK    5  A    between atoms: C_8  and  N_9
REMARK    6  A    between atoms: C_14  and  C_15
REMARK                            x       y       z     vdW  Elec       q    Type
REMARK                         _______ _______ _______ _____ _____    ______ ____
ROOT
ATOM      1  N   UNL     1      47.582   6.946  13.882  0.00  0.00    +0.000 N 
ATOM      2  C   UNL     1      47.195   8.236  13.598  0.00  0.00    +0.000 A 
ATOM      3  C   UNL     1      46.125   8.177  12.735  0.00  0.00    +0.000 A 
ATOM      4  C   UNL     1      45.822   6.813  12.528  0.00  0.00    +0.000 A 
ATOM      5  N   UNL     1      44.859   6.274  11.741  0.00  0.00    +0.000 NA
ATOM      6  C   UNL     1      44.807   4.915  11.772  0.00  0.00    +0.000 A 
ATOM      7  C   UNL     1      45.607   4.092  12.557  0.00  0.00    +0.000 A 
ATOM      8  C   UNL     1      46.591   4.662  13.363  0.00  0.00    +0.000 A 
ATOM      9  C   UNL     1      46.702   6.057  13.306  0.00  0.00    +0.000 A 
ENDROOT
BRANCH   6  10
ATOM     10  C   UNL     1      43.809   4.281  10.847  0.00  0.00    +0.000 C 
ATOM     11  N   UNL     1      43.863   4.688   9.543  0.00  0.00    +0.000 N 
ATOM     12  O   UNL     1      42.999   3.440  11.222  0.00  0.00    +0.000 OA
ATOM     13  H   UNL     1      44.563   5.364   9.258  0.00  0.00    +0.000 HD
ATOM     14  H   UNL     1      43.241   4.274   8.863  0.00  0.00    +0.000 HD
ENDBRANCH   6  10
BRANCH   1  15
ATOM     15  C   UNL     1      48.755   6.611  14.673  0.00  0.00    +0.000 C 
BRANCH  15  19
ATOM     16  C   UNL     1      49.290   5.254  18.852  0.00  0.00    +0.000 C 
ATOM     17  C   UNL     1      49.571   6.722  18.478  0.00  0.00    +0.000 C 
ATOM     18  C   UNL     1      49.706   6.926  16.971  0.00  0.00    +0.000 C 
ATOM     19  C   UNL     1      48.479   6.438  16.186  0.00  0.00    +0.000 C 
ATOM     20  C   UNL     1      48.153   4.987  16.576  0.00  0.00    +0.000 C 
ATOM     21  C   UNL     1      48.034   4.785  18.090  0.00  0.00    +0.000 C 
BRANCH  16  23
ATOM     22  C   UNL     1      50.513   5.021  21.108  0.00  0.00    +0.000 C 
ATOM     23  C   UNL     1      49.157   5.076  20.395  0.00  0.00    +0.000 C 
BRANCH  23  24
ATOM     24  N   UNL     1      48.451   3.845  20.758  0.00  0.00    +0.000 NA
ATOM     25  H   UNL     1      48.986   3.030  20.462  0.00  0.00    +0.000 HD
ATOM     26  H   UNL     1      47.550   3.791  20.289  0.00  0.00    +0.000 HD
ENDBRANCH  23  24
ENDBRANCH  16  23
ENDBRANCH  15  19
ENDBRANCH   1  15
TORSDOF 5
ENDMDL
MODEL 9
REMARK VINA RESULT:    -6.113      3.266      6.842
REMARK INTER + INTRA:          -8.070
REMARK INTER:                  -7.551
REMARK INTRA:                  -0.519
REMARK UNBOUND:                -0.348
REMARK  Name = 
REMARK  6 active torsions:
REMARK  status: ('A' for Active; 'I' for Inactive)
REMARK    1  A    between atoms: C_1  and  C_2
REMARK    2  A    between atoms: C_2  and  N_3
REMARK    3  A    between atoms: C_2  and  C_4
REMARK    4  A    between atoms: C_7  and  C_8
REMARK    5  A    between atoms: C_8  and  N_9
REMARK    6  A    between atoms: C_14  and  C_15
REMARK                            x       y       z     vdW  Elec       q    Type
REMARK                         _______ _______ _______ _____ _____    ______ ____
ROOT
ATOM      1  N   UNL     1      47.196   6.609  13.543  0.00  0.00    +0.000 N 
ATOM      2  C   UNL     1      47.624   5.820  14.587  0.00  0.00    +0.000 A 
ATOM      3  C   UNL     1      47.049   4.578  14.441  0.00  0.00    +0.000 A 
ATOM      4  C   UNL     1      46.292   4.599  13.249  0.00  0.00    +0.000 A 
ATOM      5  N   UNL     1      45.540   3.607  12.713  0.00  0.00    +0.000 NA
ATOM      6  C   UNL     1      44.944   3.932  11.534  0.00  0.00    +0.000 A 
ATOM      7  C   UNL     1      45.090   5.140  10.859  0.00  0.00    +0.000 A 
ATOM      8  C   UNL     1      45.869   6.148  11.424  0.00  0.00    +0.000 A 
ATOM      9  C   UNL     1      46.448   5.857  12.665  0.00  0.00    +0.000 A 
ENDROOT
BRANCH   6  10
ATOM     10  C   UNL     1      44.034   2.888  10.954  0.00  0.00    +0.000 C 
ATOM     11  N   UNL     1      44.519   2.212   9.870  0.00  0.00    +0.000 N 
ATOM     12  O   UNL     1      42.928   2.639  11.422  0.00  0.00    +0.000 OA
ATOM     13  H   UNL     1      45.450   2.420   9.524  0.00  0.00    +0.000 HD
ATOM     14  H   UNL     1      43.970   1.473   9.453  0.00  0.00    +0.000 HD
ENDBRANCH   6  10
BRANCH   1  15
ATOM     15  C   UNL     1      47.505   8.025  13.423  0.00  0.00    +0.000 C 
BRANCH  15  19
ATOM     16  C   UNL     1      51.050   9.479  11.206  0.00  0.00    +0.000 C 
ATOM     17  C   UNL     1      50.756   7.969  11.282  0.00  0.00    +0.000 C 
ATOM     18  C   UNL     1      49.746   7.623  12.373  0.00  0.00    +0.000 C 
ATOM     19  C   UNL     1      48.418   8.382  12.225  0.00  0.00    +0.000 C 
ATOM     20  C   UNL     1      48.690   9.890  12.104  0.00  0.00    +0.000 C 
ATOM     21  C   UNL     1      49.716  10.230  11.018  0.00  0.00    +0.000 C 
BRANCH  16  23
ATOM     22  C   UNL     1      52.820   8.558   9.577  0.00  0.00    +0.000 C 
ATOM     23  C   UNL     1      52.082   9.803  10.085  0.00  0.00    +0.000 C 
BRANCH  23  24
ATOM     24  N   UNL     1      53.117  10.741  10.527  0.00  0.00    +0.000 NA
ATOM     25  H   UNL     1      52.742  11.688  10.562  0.00  0.00    +0.000 HD
ATOM     26  H   UNL     1      53.895  10.758   9.872  0.00  0.00    +0.000 HD
ENDBRANCH  23  24
ENDBRANCH  16  23
ENDBRANCH  15  19
ENDBRANCH   1  15
TORSDOF 5
ENDMDL
