MODEL 1
REMARK VINA RESULT:    -7.688      0.000      0.000
REMARK INTER + INTRA:         -10.417
REMARK INTER:                  -9.485
REMARK INTRA:                  -0.932
REMARK UNBOUND:                -0.932
REMARK  Name = 
REMARK  4 active torsions:
REMARK  status: ('A' for Active; 'I' for Inactive)
REMARK    1  A    between atoms: C_4  and  C_5
REMARK    2  A    between atoms: C_9  and  C_10
REMARK    3  A    between atoms: C_10  and  N_11
REMARK    4  A    between atoms: N_11  and  C_12
REMARK                            x       y       z     vdW  Elec       q    Type
REMARK                         _______ _______ _______ _____ _____    ______ ____
ROOT
ATOM      1  C   UNL     1      45.181   3.135   9.461  0.00  0.00    +0.000 A 
ATOM      2  C   UNL     1      44.112   2.407  10.003  0.00  0.00    +0.000 A 
ATOM      3  C   UNL     1      43.474   2.824  11.174  0.00  0.00    +0.000 A 
ATOM      4  C   UNL     1      43.878   3.998  11.812  0.00  0.00    +0.000 A 
ATOM      5  C   UNL     1      44.928   4.774  11.307  0.00  0.00    +0.000 A 
ATOM      6  C   UNL     1      45.576   4.300  10.148  0.00  0.00    +0.000 A 
ENDROOT
BRANCH   1  10
ATOM      7  C   UNL     1      47.298   1.958   5.889  0.00  0.00    +0.000 A 
ATOM      8  C   UNL     1      46.782   3.244   6.007  0.00  0.00    +0.000 A 
ATOM      9  C   UNL     1      46.072   3.611   7.152  0.00  0.00    +0.000 A 
ATOM     10  C   UNL     1      45.881   2.715   8.223  0.00  0.00    +0.000 A 
ATOM     11  C   UNL     1      46.403   1.419   8.072  0.00  0.00    +0.000 A 
ATOM     12  C   UNL     1      47.102   1.043   6.917  0.00  0.00    +0.000 A 
ENDBRANCH   1  10
BRANCH   5  13
ATOM     13  C   UNL     1      45.361   6.088  11.956  0.00  0.00    +0.000 C 
ATOM     14  C   UNL     1      44.293   6.972  12.569  0.00  0.00    +0.000 C 
ATOM     15  C   UNL     1      44.906   7.380  11.272  0.00  0.00    +0.000 C 
BRANCH  13  16
ATOM     16  N   UNL     1      46.771   6.128  12.374  0.00  0.00    +0.000 N 
ATOM     17  H   UNL     1      47.442   6.048  11.612  0.00  0.00    +0.000 HD
BRANCH  16  18
ATOM     18  C   UNL     1      47.296   5.690  13.603  0.00  0.00    +0.000 A 
ATOM     19  C   UNL     1      46.789   4.638  14.349  0.00  0.00    +0.000 A 
ATOM     20  C   UNL     1      47.356   4.372  15.586  0.00  0.00    +0.000 A 
ATOM     21  N   UNL     1      48.363   5.096  16.115  0.00  0.00    +0.000 NA
ATOM     22  N   UNL     1      48.846   6.147  15.421  0.00  0.00    +0.000 NA
ATOM     23  C   UNL     1      48.313   6.427  14.209  0.00  0.00    +0.000 A 
ENDBRANCH  16  18
ENDBRANCH  13  16
ENDBRANCH   5  13
TORSDOF 4
ENDMDL
MODEL 2
REMARK VINA RESULT:    -7.465      2.856      6.391
REMARK INTER + INTRA:         -10.143
REMARK INTER:                  -9.303
REMARK INTRA:                  -0.840
REMARK UNBOUND:                -0.932
REMARK  Name = 
REMARK  4 active torsions:
REMARK  status: ('A' for Active; 'I' for Inactive)
REMARK    1  A    between atoms: C_4  and  C_5
REMARK    2  A    between atoms: C_9  and  C_10
REMARK    3  A    between atoms: C_10  and  N_11
REMARK    4  A    between atoms: N_11  and  C_12
REMARK                            x       y       z     vdW  Elec       q    Type
REMARK                         _______ _______ _______ _____ _____    ______ ____
ROOT
ATOM      1  C   UNL     1      47.235   6.615  12.551  0.00  0.00    +0.000 A 
ATOM      2  C   UNL     1      47.625   5.777  13.607  0.00  0.00    +0.000 A 
ATOM      3  C   UNL     1      46.844   4.683  13.987  0.00  0.00    +0.000 A 
ATOM      4  C   UNL     1      45.667   4.388  13.297  0.00  0.00    +0.000 A 
ATOM      5  C   UNL     1      45.237   5.179  12.224  0.00  0.00    +0.000 A 
ATOM      6  C   UNL     1      46.028   6.299  11.896  0.00  0.00    +0.000 A 
ENDROOT
BRANCH   1  10
ATOM      7  C   UNL     1      49.590  10.047  11.414  0.00  0.00    +0.000 A 
ATOM      8  C   UNL     1      48.255  10.201  11.772  0.00  0.00    +0.000 A 
ATOM      9  C   UNL     1      47.489   9.083  12.111  0.00  0.00    +0.000 A 
ATOM     10  C   UNL     1      48.040   7.786  12.128  0.00  0.00    +0.000 A 
ATOM     11  C   UNL     1      49.387   7.660  11.750  0.00  0.00    +0.000 A 
ATOM     12  C   UNL     1      50.155   8.777  11.394  0.00  0.00    +0.000 A 
ENDBRANCH   1  10
BRANCH   5  13
ATOM     13  C   UNL     1      43.980   4.854  11.419  0.00  0.00    +0.000 C 
ATOM     14  C   UNL     1      43.051   5.994  11.048  0.00  0.00    +0.000 C 
ATOM     15  C   UNL     1      42.636   5.051  12.126  0.00  0.00    +0.000 C 
BRANCH  13  16
ATOM     16  N   UNL     1      44.048   3.596  10.660  0.00  0.00    +0.000 N 
ATOM     17  H   UNL     1      43.875   2.758  11.211  0.00  0.00    +0.000 HD
BRANCH  16  18
ATOM     18  C   UNL     1      44.837   3.342   9.524  0.00  0.00    +0.000 A 
ATOM     19  C   UNL     1      45.304   2.093   9.149  0.00  0.00    +0.000 A 
ATOM     20  C   UNL     1      46.143   2.003   8.050  0.00  0.00    +0.000 A 
ATOM     21  N   UNL     1      46.551   3.071   7.335  0.00  0.00    +0.000 NA
ATOM     22  N   UNL     1      46.137   4.301   7.706  0.00  0.00    +0.000 NA
ATOM     23  C   UNL     1      45.314   4.417   8.773  0.00  0.00    +0.000 A 
ENDBRANCH  16  18
ENDBRANCH  13  16
ENDBRANCH   5  13
TORSDOF 4
ENDMDL
MODEL 3
REMARK VINA RESULT:    -7.205      1.241      2.158
REMARK INTER + INTRA:          -9.822
REMARK INTER:                  -9.006
REMARK INTRA:                  -0.816
REMARK UNBOUND:                -0.932
REMARK  Name = 
REMARK  4 active torsions:
REMARK  status: ('A' for Active; 'I' for Inactive)
REMARK    1  A    between atoms: C_4  and  C_5
REMARK    2  A    between atoms: C_9  and  C_10
REMARK    3  A    between atoms: C_10  and  N_11
REMARK    4  A    between atoms: N_11  and  C_12
REMARK                            x       y       z     vdW  Elec       q    Type
REMARK                         _______ _______ _______ _____ _____    ______ ____
ROOT
ATOM      1  C   UNL     1      44.977   4.480   9.810  0.00  0.00    +0.000 A 
ATOM      2  C   UNL     1      43.631   4.335  10.175  0.00  0.00    +0.000 A 
ATOM      3  C   UNL     1      43.046   5.171  11.129  0.00  0.00    +0.000 A 
ATOM      4  C   UNL     1      43.794   6.192  11.718  0.00  0.00    +0.000 A 
ATOM      5  C   UNL     1      45.137   6.396  11.380  0.00  0.00    +0.000 A 
ATOM      6  C   UNL     1      45.705   5.506  10.445  0.00  0.00    +0.000 A 
ENDROOT
BRANCH   1  10
ATOM      7  C   UNL     1      46.780   1.912   6.847  0.00  0.00    +0.000 A 
ATOM      8  C   UNL     1      46.186   1.366   7.980  0.00  0.00    +0.000 A 
ATOM      9  C   UNL     1      45.630   2.203   8.951  0.00  0.00    +0.000 A 
ATOM     10  C   UNL     1      45.627   3.605   8.804  0.00  0.00    +0.000 A 
ATOM     11  C   UNL     1      46.244   4.129   7.656  0.00  0.00    +0.000 A 
ATOM     12  C   UNL     1      46.817   3.293   6.688  0.00  0.00    +0.000 A 
ENDBRANCH   1  10
BRANCH   5  13
ATOM     13  C   UNL     1      45.967   7.534  11.972  0.00  0.00    +0.000 C 
ATOM     14  C   UNL     1      45.274   8.532  12.878  0.00  0.00    +0.000 C 
ATOM     15  C   UNL     1      45.639   8.950  11.494  0.00  0.00    +0.000 C 
BRANCH  13  16
ATOM     16  N   UNL     1      47.413   7.270  12.029  0.00  0.00    +0.000 N 
ATOM     17  H   UNL     1      47.784   6.758  11.231  0.00  0.00    +0.000 HD
BRANCH  16  18
ATOM     18  C   UNL     1      48.190   7.096  13.189  0.00  0.00    +0.000 A 
ATOM     19  C   UNL     1      49.373   7.767  13.456  0.00  0.00    +0.000 A 
ATOM     20  C   UNL     1      50.078   7.432  14.601  0.00  0.00    +0.000 A 
ATOM     21  N   UNL     1      49.688   6.470  15.462  0.00  0.00    +0.000 NA
ATOM     22  N   UNL     1      48.559   5.779  15.200  0.00  0.00    +0.000 NA
ATOM     23  C   UNL     1      47.849   6.088  14.091  0.00  0.00    +0.000 A 
ENDBRANCH  16  18
ENDBRANCH  13  16
ENDBRANCH   5  13
TORSDOF 4
ENDMDL
MODEL 4
REMARK VINA RESULT:    -7.109      2.800      6.931
REMARK INTER + INTRA:          -9.703
REMARK INTER:                  -9.424
REMARK INTRA:                  -0.280
REMARK UNBOUND:                -0.932
REMARK  Name = 
REMARK  4 active torsions:
REMARK  status: ('A' for Active; 'I' for Inactive)
REMARK    1  A    between atoms: C_4  and  C_5
REMARK    2  A    between atoms: C_9  and  C_10
REMARK    3  A    between atoms: C_10  and  N_11
REMARK    4  A    between atoms: N_11  and  C_12
REMARK                            x       y       z     vdW  Elec       q    Type
REMARK                         _______ _______ _______ _____ _____    ______ ____
ROOT
ATOM      1  C   UNL     1      46.966   5.613  13.374  0.00  0.00    +0.000 A 
ATOM      2  C   UNL     1      47.627   6.608  12.640  0.00  0.00    +0.000 A 
ATOM      3  C   UNL     1      47.143   7.035  11.401  0.00  0.00    +0.000 A 
ATOM      4  C   UNL     1      45.965   6.491  10.884  0.00  0.00    +0.000 A 
ATOM      5  C   UNL     1      45.254   5.507  11.580  0.00  0.00    +0.000 A 
ATOM      6  C   UNL     1      45.795   5.071  12.807  0.00  0.00    +0.000 A 
ENDROOT
BRANCH   1  10
ATOM      7  C   UNL     1      48.331   4.277  17.243  0.00  0.00    +0.000 A 
ATOM      8  C   UNL     1      48.682   5.538  16.773  0.00  0.00    +0.000 A 
ATOM      9  C   UNL     1      48.263   5.954  15.507  0.00  0.00    +0.000 A 
ATOM     10  C   UNL     1      47.459   5.135  14.689  0.00  0.00    +0.000 A 
ATOM     11  C   UNL     1      47.130   3.863  15.185  0.00  0.00    +0.000 A 
ATOM     12  C   UNL     1      47.562   3.436  16.447  0.00  0.00    +0.000 A 
ENDBRANCH   1  10
BRANCH   5  13
ATOM     13  C   UNL     1      43.938   4.927  11.063  0.00  0.00    +0.000 C 
ATOM     14  C   UNL     1      42.664   5.258  11.814  0.00  0.00    +0.000 C 
ATOM     15  C   UNL     1      43.243   3.891  11.950  0.00  0.00    +0.000 C 
BRANCH  13  16
ATOM     16  N   UNL     1      43.954   4.546   9.643  0.00  0.00    +0.000 N 
ATOM     17  H   UNL     1      43.038   4.521   9.199  0.00  0.00    +0.000 HD
BRANCH  16  18
ATOM     18  C   UNL     1      44.883   3.699   9.011  0.00  0.00    +0.000 A 
ATOM     19  C   UNL     1      45.752   4.089   8.005  0.00  0.00    +0.000 A 
ATOM     20  C   UNL     1      46.555   3.126   7.415  0.00  0.00    +0.000 A 
ATOM     21  N   UNL     1      46.520   1.820   7.749  0.00  0.00    +0.000 NA
ATOM     22  N   UNL     1      45.654   1.413   8.701  0.00  0.00    +0.000 NA
ATOM     23  C   UNL     1      44.862   2.334   9.296  0.00  0.00    +0.000 A 
ENDBRANCH  16  18
ENDBRANCH  13  16
ENDBRANCH   5  13
TORSDOF 4
ENDMDL
MODEL 5
REMARK VINA RESULT:    -6.546      1.791      4.023
REMARK INTER + INTRA:          -9.009
REMARK INTER:                  -8.087
REMARK INTRA:                  -0.922
REMARK UNBOUND:                -0.932
REMARK  Name = 
REMARK  4 active torsions:
REMARK  status: ('A' for Active; 'I' for Inactive)
REMARK    1  A    between atoms: C_4  and  C_5
REMARK    2  A    between atoms: C_9  and  C_10
REMARK    3  A    between atoms: C_10  and  N_11
REMARK    4  A    between atoms: N_11  and  C_12
REMARK                            x       y       z     vdW  Elec       q    Type
REMARK                         _______ _______ _______ _____ _____    ______ ____
ROOT
ATOM      1  C   UNL     1      45.571   6.310  11.422  0.00  0.00    +0.000 A 
ATOM      2  C   UNL     1      44.798   7.479  11.373  0.00  0.00    +0.000 A 
ATOM      3  C   UNL     1      45.078   8.566  12.205  0.00  0.00    +0.000 A 
ATOM      4  C   UNL     1      46.160   8.514  13.086  0.00  0.00    +0.000 A 
ATOM      5  C   UNL     1      46.977   7.380  13.165  0.00  0.00    +0.000 A 
ATOM      6  C   UNL     1      46.638   6.287  12.341  0.00  0.00    +0.000 A 
ENDROOT
BRANCH   1  10
ATOM      7  C   UNL     1      44.675   2.933   8.890  0.00  0.00    +0.000 A 
ATOM      8  C   UNL     1      44.278   2.934  10.223  0.00  0.00    +0.000 A 
ATOM      9  C   UNL     1      44.597   4.016  11.046  0.00  0.00    +0.000 A 
ATOM     10  C   UNL     1      45.294   5.138  10.555  0.00  0.00    +0.000 A 
ATOM     11  C   UNL     1      45.692   5.105   9.208  0.00  0.00    +0.000 A 
ATOM     12  C   UNL     1      45.388   4.013   8.384  0.00  0.00    +0.000 A 
ENDBRANCH   1  10
BRANCH   5  13
ATOM     13  C   UNL     1      48.196   7.311  14.084  0.00  0.00    +0.000 C 
ATOM     14  C   UNL     1      48.640   8.580  14.783  0.00  0.00    +0.000 C 
ATOM     15  C   UNL     1      49.445   8.074  13.634  0.00  0.00    +0.000 C 
BRANCH  13  16
ATOM     16  N   UNL     1      48.501   5.966  14.595  0.00  0.00    +0.000 N 
ATOM     17  H   UNL     1      48.707   5.275  13.876  0.00  0.00    +0.000 HD
BRANCH  16  18
ATOM     18  C   UNL     1      48.006   5.384  15.777  0.00  0.00    +0.000 A 
ATOM     19  C   UNL     1      48.405   5.734  17.057  0.00  0.00    +0.000 A 
ATOM     20  C   UNL     1      47.894   5.017  18.127  0.00  0.00    +0.000 A 
ATOM     21  N   UNL     1      47.046   3.977  17.990  0.00  0.00    +0.000 NA
ATOM     22  N   UNL     1      46.675   3.596  16.750  0.00  0.00    +0.000 NA
ATOM     23  C   UNL     1      47.156   4.282  15.687  0.00  0.00    +0.000 A 
ENDBRANCH  16  18
ENDBRANCH  13  16
ENDBRANCH   5  13
TORSDOF 4
ENDMDL
MODEL 6
REMARK VINA RESULT:    -6.102      2.081      4.173
REMARK INTER + INTRA:          -8.461
REMARK INTER:                  -7.575
REMARK INTRA:                  -0.886
REMARK UNBOUND:                -0.932
REMARK  Name = 
REMARK  4 active torsions:
REMARK  status: ('A' for Active; 'I' for Inactive)
REMARK    1  A    between atoms: C_4  and  C_5
REMARK    2  A    between atoms: C_9  and  C_10
REMARK    3  A    between atoms: C_10  and  N_11
REMARK    4  A    between atoms: N_11  and  C_12
REMARK                            x       y       z     vdW  Elec       q    Type
REMARK                         _______ _______ _______ _____ _____    ______ ____
ROOT
ATOM      1  C   UNL     1      45.717   6.428  11.242  0.00  0.00    +0.000 A 
ATOM      2  C   UNL     1      44.834   7.471  11.560  0.00  0.00    +0.000 A 
ATOM      3  C   UNL     1      45.275   8.606  12.243  0.00  0.00    +0.000 A 
ATOM      4  C   UNL     1      46.619   8.734  12.599  0.00  0.00    +0.000 A 
ATOM      5  C   UNL     1      47.548   7.733  12.293  0.00  0.00    +0.000 A 
ATOM      6  C   UNL     1      47.060   6.582  11.640  0.00  0.00    +0.000 A 
ENDROOT
BRANCH   1  10
ATOM      7  C   UNL     1      44.531   2.843   9.153  0.00  0.00    +0.000 A 
ATOM      8  C   UNL     1      45.222   3.848   8.485  0.00  0.00    +0.000 A 
ATOM      9  C   UNL     1      45.577   5.019   9.157  0.00  0.00    +0.000 A 
ATOM     10  C   UNL     1      45.278   5.208  10.521  0.00  0.00    +0.000 A 
ATOM     11  C   UNL     1      44.569   4.182  11.168  0.00  0.00    +0.000 A 
ATOM     12  C   UNL     1      44.196   3.012  10.492  0.00  0.00    +0.000 A 
ENDBRANCH   1  10
BRANCH   5  13
ATOM     13  C   UNL     1      49.033   7.864  12.627  0.00  0.00    +0.000 C 
ATOM     14  C   UNL     1      49.774   9.090  12.132  0.00  0.00    +0.000 C 
ATOM     15  C   UNL     1      50.015   7.783  11.455  0.00  0.00    +0.000 C 
BRANCH  13  16
ATOM     16  N   UNL     1      49.469   7.081  13.793  0.00  0.00    +0.000 N 
ATOM     17  H   UNL     1      49.714   6.114  13.588  0.00  0.00    +0.000 HD
BRANCH  16  18
ATOM     18  C   UNL     1      49.063   7.263  15.127  0.00  0.00    +0.000 A 
ATOM     19  C   UNL     1      48.866   8.494  15.732  0.00  0.00    +0.000 A 
ATOM     20  C   UNL     1      48.547   8.523  17.081  0.00  0.00    +0.000 A 
ATOM     21  N   UNL     1      48.439   7.418  17.845  0.00  0.00    +0.000 NA
ATOM     22  N   UNL     1      48.663   6.211  17.283  0.00  0.00    +0.000 NA
ATOM     23  C   UNL     1      48.973   6.154  15.967  0.00  0.00    +0.000 A 
ENDBRANCH  16  18
ENDBRANCH  13  16
ENDBRANCH   5  13
TORSDOF 4
ENDMDL
MODEL 7
REMARK VINA RESULT:    -6.080      1.630      2.137
REMARK INTER + INTRA:          -8.434
REMARK INTER:                  -8.363
REMARK INTRA:                  -0.071
REMARK UNBOUND:                -0.932
REMARK  Name = 
REMARK  4 active torsions:
REMARK  status: ('A' for Active; 'I' for Inactive)
REMARK    1  A    between atoms: C_4  and  C_5
REMARK    2  A    between atoms: C_9  and  C_10
REMARK    3  A    between atoms: C_10  and  N_11
REMARK    4  A    between atoms: N_11  and  C_12
REMARK                            x       y       z     vdW  Elec       q    Type
REMARK                         _______ _______ _______ _____ _____    ______ ____
ROOT
ATOM      1  C   UNL     1      45.191   3.166   9.579  0.00  0.00    +0.000 A 
ATOM      2  C   UNL     1      44.091   2.492  10.131  0.00  0.00    +0.000 A 
ATOM      3  C   UNL     1      43.500   2.927  11.319  0.00  0.00    +0.000 A 
ATOM      4  C   UNL     1      43.982   4.066  11.967  0.00  0.00    +0.000 A 
ATOM      5  C   UNL     1      45.067   4.788  11.453  0.00  0.00    +0.000 A 
ATOM      6  C   UNL     1      45.665   4.296  10.275  0.00  0.00    +0.000 A 
ENDROOT
BRANCH   1  10
ATOM      7  C   UNL     1      47.170   1.926   5.950  0.00  0.00    +0.000 A 
ATOM      8  C   UNL     1      46.697   3.228   6.081  0.00  0.00    +0.000 A 
ATOM      9  C   UNL     1      46.031   3.616   7.246  0.00  0.00    +0.000 A 
ATOM     10  C   UNL     1      45.843   2.725   8.322  0.00  0.00    +0.000 A 
ATOM     11  C   UNL     1      46.321   1.414   8.157  0.00  0.00    +0.000 A 
ATOM     12  C   UNL     1      46.976   1.017   6.983  0.00  0.00    +0.000 A 
ENDBRANCH   1  10
BRANCH   5  13
ATOM     13  C   UNL     1      45.587   6.065  12.112  0.00  0.00    +0.000 C 
ATOM     14  C   UNL     1      44.595   6.955  12.833  0.00  0.00    +0.000 C 
ATOM     15  C   UNL     1      45.122   7.393  11.509  0.00  0.00    +0.000 C 
BRANCH  13  16
ATOM     16  N   UNL     1      47.024   6.050  12.424  0.00  0.00    +0.000 N 
ATOM     17  H   UNL     1      47.347   5.208  12.897  0.00  0.00    +0.000 HD
BRANCH  16  18
ATOM     18  C   UNL     1      47.837   7.166  12.692  0.00  0.00    +0.000 A 
ATOM     19  C   UNL     1      47.888   7.833  13.906  0.00  0.00    +0.000 A 
ATOM     20  C   UNL     1      48.673   8.971  14.001  0.00  0.00    +0.000 A 
ATOM     21  N   UNL     1      49.376   9.480  12.969  0.00  0.00    +0.000 NA
ATOM     22  N   UNL     1      49.311   8.866  11.770  0.00  0.00    +0.000 NA
ATOM     23  C   UNL     1      48.554   7.751  11.649  0.00  0.00    +0.000 A 
ENDBRANCH  16  18
ENDBRANCH  13  16
ENDBRANCH   5  13
TORSDOF 4
ENDMDL
MODEL 8
REMARK VINA RESULT:    -5.977      2.448      3.965
REMARK INTER + INTRA:          -8.307
REMARK INTER:                  -8.717
REMARK INTRA:                   0.410
REMARK UNBOUND:                -0.932
REMARK  Name = 
REMARK  4 active torsions:
REMARK  status: ('A' for Active; 'I' for Inactive)
REMARK    1  A    between atoms: C_4  and  C_5
REMARK    2  A    between atoms: C_9  and  C_10
REMARK    3  A    between atoms: C_10  and  N_11
REMARK    4  A    between atoms: N_11  and  C_12
REMARK                            x       y       z     vdW  Elec       q    Type
REMARK                         _______ _______ _______ _____ _____    ______ ____
ROOT
ATOM      1  C   UNL     1      45.143   3.257   9.462  0.00  0.00    +0.000 A 
ATOM      2  C   UNL     1      44.149   2.524  10.127  0.00  0.00    +0.000 A 
ATOM      3  C   UNL     1      43.520   3.029  11.267  0.00  0.00    +0.000 A 
ATOM      4  C   UNL     1      43.855   4.295  11.751  0.00  0.00    +0.000 A 
ATOM      5  C   UNL     1      44.827   5.079  11.118  0.00  0.00    +0.000 A 
ATOM      6  C   UNL     1      45.471   4.520   9.995  0.00  0.00    +0.000 A 
ENDROOT
BRANCH   1  10
ATOM      7  C   UNL     1      47.230   1.814   5.972  0.00  0.00    +0.000 A 
ATOM      8  C   UNL     1      46.760   3.122   6.016  0.00  0.00    +0.000 A 
ATOM      9  C   UNL     1      46.059   3.575   7.136  0.00  0.00    +0.000 A 
ATOM     10  C   UNL     1      45.832   2.746   8.252  0.00  0.00    +0.000 A 
ATOM     11  C   UNL     1      46.308   1.426   8.175  0.00  0.00    +0.000 A 
ATOM     12  C   UNL     1      46.998   0.963   7.046  0.00  0.00    +0.000 A 
ENDBRANCH   1  10
BRANCH   5  13
ATOM     13  C   UNL     1      45.181   6.487  11.594  0.00  0.00    +0.000 C 
ATOM     14  C   UNL     1      46.243   6.636  12.666  0.00  0.00    +0.000 C 
ATOM     15  C   UNL     1      44.814   6.842  13.037  0.00  0.00    +0.000 C 
BRANCH  13  16
ATOM     16  N   UNL     1      44.850   7.556  10.640  0.00  0.00    +0.000 N 
ATOM     17  H   UNL     1      45.296   7.467   9.730  0.00  0.00    +0.000 HD
BRANCH  16  18
ATOM     18  C   UNL     1      44.523   8.889  10.952  0.00  0.00    +0.000 A 
ATOM     19  C   UNL     1      45.411   9.821  11.464  0.00  0.00    +0.000 A 
ATOM     20  C   UNL     1      44.929  11.075  11.803  0.00  0.00    +0.000 A 
ATOM     21  N   UNL     1      43.634  11.433  11.685  0.00  0.00    +0.000 NA
ATOM     22  N   UNL     1      42.747  10.527  11.224  0.00  0.00    +0.000 NA
ATOM     23  C   UNL     1      43.191   9.296  10.881  0.00  0.00    +0.000 A 
ENDBRANCH  16  18
ENDBRANCH  13  16
ENDBRANCH   5  13
TORSDOF 4
ENDMDL
MODEL 9
REMARK VINA RESULT:    -5.650      3.941      7.334
REMARK INTER + INTRA:          -7.904
REMARK INTER:                  -6.955
REMARK INTRA:                  -0.949
REMARK UNBOUND:                -0.932
REMARK  Name = 
REMARK  4 active torsions:
REMARK  status: ('A' for Active; 'I' for Inactive)
REMARK    1  A    between atoms: C_4  and  C_5
REMARK    2  A    between atoms: C_9  and  C_10
REMARK    3  A    between atoms: C_10  and  N_11
REMARK    4  A    between atoms: N_11  and  C_12
REMARK                            x       y       z     vdW  Elec       q    Type
REMARK                         _______ _______ _______ _____ _____    ______ ____
ROOT
ATOM      1  C   UNL     1      49.065   7.148  14.196  0.00  0.00    +0.000 A 
ATOM      2  C   UNL     1      49.931   7.488  13.147  0.00  0.00    +0.000 A 
ATOM      3  C   UNL     1      49.438   7.898  11.906  0.00  0.00    +0.000 A 
ATOM      4  C   UNL     1      48.061   8.002  11.699  0.00  0.00    +0.000 A 
ATOM      5  C   UNL     1      47.149   7.692  12.715  0.00  0.00    +0.000 A 
ATOM      6  C   UNL     1      47.682   7.242  13.940  0.00  0.00    +0.000 A 
ENDROOT
BRANCH   1  10
ATOM      7  C   UNL     1      50.515   5.770  18.019  0.00  0.00    +0.000 A 
ATOM      8  C   UNL     1      49.209   5.499  17.626  0.00  0.00    +0.000 A 
ATOM      9  C   UNL     1      48.735   5.972  16.400  0.00  0.00    +0.000 A 
ATOM     10  C   UNL     1      49.559   6.705  15.523  0.00  0.00    +0.000 A 
ATOM     11  C   UNL     1      50.869   6.974  15.951  0.00  0.00    +0.000 A 
ATOM     12  C   UNL     1      51.344   6.514  17.187  0.00  0.00    +0.000 A 
ENDBRANCH   1  10
BRANCH   5  13
ATOM     13  C   UNL     1      45.639   7.843  12.534  0.00  0.00    +0.000 C 
ATOM     14  C   UNL     1      45.133   8.568  11.303  0.00  0.00    +0.000 C 
ATOM     15  C   UNL     1      45.070   9.261  12.622  0.00  0.00    +0.000 C 
BRANCH  13  16
ATOM     16  N   UNL     1      44.834   6.857  13.271  0.00  0.00    +0.000 N 
ATOM     17  H   UNL     1      44.883   6.940  14.284  0.00  0.00    +0.000 HD
BRANCH  16  18
ATOM     18  C   UNL     1      44.513   5.552  12.852  0.00  0.00    +0.000 A 
ATOM     19  C   UNL     1      43.338   5.195  12.212  0.00  0.00    +0.000 A 
ATOM     20  C   UNL     1      43.119   3.855  11.933  0.00  0.00    +0.000 A 
ATOM     21  N   UNL     1      43.980   2.873  12.270  0.00  0.00    +0.000 NA
ATOM     22  N   UNL     1      45.113   3.197  12.927  0.00  0.00    +0.000 NA
ATOM     23  C   UNL     1      45.353   4.498  13.209  0.00  0.00    +0.000 A 
ENDBRANCH  16  18
ENDBRANCH  13  16
ENDBRANCH   5  13
TORSDOF 4
ENDMDL
