MODEL 1
REMARK VINA RESULT:    -8.806      0.000      0.000
REMARK INTER + INTRA:         -12.353
REMARK INTER:                 -11.894
REMARK INTRA:                  -0.459
REMARK UNBOUND:                -0.459
REMARK  Name = 
REMARK  6 active torsions:
REMARK  status: ('A' for Active; 'I' for Inactive)
REMARK    1  A    between atoms: C_2  and  C_25
REMARK    2  A    between atoms: N_3  and  C_4
REMARK    3  A    between atoms: C_4  and  C_5
REMARK    4  A    between atoms: C_8  and  C_9
REMARK    5  A    between atoms: C_9  and  N_10
REMARK    6  A    between atoms: C_11  and  C_13
REMARK                            x       y       z     vdW  Elec       q    Type
REMARK                         _______ _______ _______ _____ _____    ______ ____
ROOT
ATOM      1  C   UNL     1      43.608   4.826  11.844  0.00  0.00    +0.000 C 
ATOM      2  C   UNL     1      44.143   3.474  12.351  0.00  0.00    +0.000 C 
ATOM      3  C   UNL     1      45.667   3.425  12.470  0.00  0.00    +0.000 C 
ATOM      4  C   UNL     1      46.269   4.602  13.260  0.00  0.00    +0.000 C 
ATOM      5  C   UNL     1      45.742   5.936  12.707  0.00  0.00    +0.000 C 
ATOM      6  C   UNL     1      44.214   5.988  12.649  0.00  0.00    +0.000 C 
ENDROOT
BRANCH   1   7
ATOM      7  C   UNL     1      43.841   5.033  10.336  0.00  0.00    +0.000 C 
BRANCH   7  10
ATOM      8  O   UNL     1      45.850   5.183   8.376  0.00  0.00    +0.000 OA
ATOM      9  C   UNL     1      45.493   4.071   8.753  0.00  0.00    +0.000 C 
ATOM     10  N   UNL     1      44.522   3.912   9.722  0.00  0.00    +0.000 N 
ATOM     11  H   UNL     1      44.236   2.973   9.968  0.00  0.00    +0.000 HD
BRANCH   9  12
ATOM     12  C   UNL     1      46.059   2.847   8.222  0.00  0.00    +0.000 A 
ATOM     13  C   UNL     1      45.772   1.557   8.624  0.00  0.00    +0.000 A 
ATOM     14  N   UNL     1      46.448   0.550   7.960  0.00  0.00    +0.000 NA
ATOM     15  C   UNL     1      47.243   1.088   7.063  0.00  0.00    +0.000 A 
ATOM     16  S   UNL     1      47.226   2.800   6.965  0.00  0.00    +0.000 S 
ENDBRANCH   9  12
ENDBRANCH   7  10
ENDBRANCH   1   7
BRANCH   4  17
ATOM     17  C   UNL     1      46.012   4.522  14.774  0.00  0.00    +0.000 C 
BRANCH  17  18
ATOM     18  N   UNL     1      47.212   4.683  15.556  0.00  0.00    +0.000 N 
ATOM     19  C   UNL     1      47.439   4.057  16.754  0.00  0.00    +0.000 C 
ATOM     20  O   UNL     1      46.581   3.401  17.337  0.00  0.00    +0.000 OA
ATOM     21  H   UNL     1      47.993   5.111  15.073  0.00  0.00    +0.000 HD
BRANCH  19  22
ATOM     22  C   UNL     1      48.778   4.264  17.321  0.00  0.00    +0.000 A 
ATOM     23  C   UNL     1      49.090   5.444  17.979  0.00  0.00    +0.000 A 
ATOM     24  S   UNL     1      50.704   5.508  18.532  0.00  0.00    +0.000 S 
ATOM     25  C   UNL     1      51.025   3.939  17.956  0.00  0.00    +0.000 A 
ATOM     26  N   UNL     1      52.248   3.365  18.121  0.00  0.00    +0.000 NA
ATOM     27  C   UNL     1      52.336   2.157  17.674  0.00  0.00    +0.000 A 
ATOM     28  N   UNL     1      51.314   1.469  17.075  0.00  0.00    +0.000 N 
ATOM     29  C   UNL     1      50.087   2.030  16.825  0.00  0.00    +0.000 A 
ATOM     30  O   UNL     1      49.240   1.424  16.177  0.00  0.00    +0.000 OA
ATOM     31  C   UNL     1      49.922   3.380  17.336  0.00  0.00    +0.000 A 
ATOM     32  H   UNL     1      51.454   0.533  16.723  0.00  0.00    +0.000 HD
ENDBRANCH  19  22
ENDBRANCH  17  18
ENDBRANCH   4  17
TORSDOF 6
ENDMDL
MODEL 2
REMARK VINA RESULT:    -7.919      2.250      2.717
REMARK INTER + INTRA:         -11.155
REMARK INTER:                 -10.707
REMARK INTRA:                  -0.448
REMARK UNBOUND:                -0.459
REMARK  Name = 
REMARK  6 active torsions:
REMARK  status: ('A' for Active; 'I' for Inactive)
REMARK    1  A    between atoms: C_2  and  C_25
REMARK    2  A    between atoms: N_3  and  C_4
REMARK    3  A    between atoms: C_4  and  C_5
REMARK    4  A    between atoms: C_8  and  C_9
REMARK    5  A    between atoms: C_9  and  N_10
REMARK    6  A    between atoms: C_11  and  C_13
REMARK                            x       y       z     vdW  Elec       q    Type
REMARK                         _______ _______ _______ _____ _____    ______ ____
ROOT
ATOM      1  C   UNL     1      43.415   6.108  12.055  0.00  0.00    +0.000 C 
ATOM      2  C   UNL     1      44.134   5.487  13.265  0.00  0.00    +0.000 C 
ATOM      3  C   UNL     1      45.518   4.925  12.933  0.00  0.00    +0.000 C 
ATOM      4  C   UNL     1      46.428   5.914  12.183  0.00  0.00    +0.000 C 
ATOM      5  C   UNL     1      45.694   6.488  10.962  0.00  0.00    +0.000 C 
ATOM      6  C   UNL     1      44.337   7.097  11.322  0.00  0.00    +0.000 C 
ENDROOT
BRANCH   1   7
ATOM      7  C   UNL     1      42.870   5.050  11.076  0.00  0.00    +0.000 C 
BRANCH   7  10
ATOM      8  O   UNL     1      43.798   2.470  10.460  0.00  0.00    +0.000 OA
ATOM      9  C   UNL     1      44.241   3.413   9.811  0.00  0.00    +0.000 C 
ATOM     10  N   UNL     1      43.825   4.709  10.042  0.00  0.00    +0.000 N 
ATOM     11  H   UNL     1      44.250   5.454   9.505  0.00  0.00    +0.000 HD
BRANCH   9  12
ATOM     12  C   UNL     1      45.220   3.245   8.756  0.00  0.00    +0.000 A 
ATOM     13  C   UNL     1      45.737   4.231   7.938  0.00  0.00    +0.000 A 
ATOM     14  N   UNL     1      46.664   3.816   7.000  0.00  0.00    +0.000 NA
ATOM     15  C   UNL     1      46.838   2.519   7.114  0.00  0.00    +0.000 A 
ATOM     16  S   UNL     1      45.918   1.736   8.331  0.00  0.00    +0.000 S 
ENDBRANCH   9  12
ENDBRANCH   7  10
ENDBRANCH   1   7
BRANCH   4  17
ATOM     17  C   UNL     1      46.955   7.057  13.066  0.00  0.00    +0.000 C 
BRANCH  17  18
ATOM     18  N   UNL     1      47.370   6.613  14.372  0.00  0.00    +0.000 N 
ATOM     19  C   UNL     1      48.669   6.616  14.809  0.00  0.00    +0.000 C 
ATOM     20  O   UNL     1      49.619   6.875  14.076  0.00  0.00    +0.000 OA
ATOM     21  H   UNL     1      46.627   6.504  15.051  0.00  0.00    +0.000 HD
BRANCH  19  22
ATOM     22  C   UNL     1      48.855   6.239  16.216  0.00  0.00    +0.000 A 
ATOM     23  C   UNL     1      49.413   7.133  17.117  0.00  0.00    +0.000 A 
ATOM     24  S   UNL     1      49.580   6.497  18.693  0.00  0.00    +0.000 S 
ATOM     25  C   UNL     1      48.863   5.022  18.235  0.00  0.00    +0.000 A 
ATOM     26  N   UNL     1      48.684   4.017  19.136  0.00  0.00    +0.000 NA
ATOM     27  C   UNL     1      48.089   2.974  18.661  0.00  0.00    +0.000 A 
ATOM     28  N   UNL     1      47.658   2.841  17.368  0.00  0.00    +0.000 N 
ATOM     29  C   UNL     1      47.878   3.798  16.409  0.00  0.00    +0.000 A 
ATOM     30  O   UNL     1      47.586   3.590  15.236  0.00  0.00    +0.000 OA
ATOM     31  C   UNL     1      48.516   5.009  16.896  0.00  0.00    +0.000 A 
ATOM     32  H   UNL     1      47.221   1.988  17.050  0.00  0.00    +0.000 HD
ENDBRANCH  19  22
ENDBRANCH  17  18
ENDBRANCH   4  17
TORSDOF 6
ENDMDL
MODEL 3
REMARK VINA RESULT:    -7.626      1.824      2.393
REMARK INTER + INTRA:         -10.759
REMARK INTER:                 -10.268
REMARK INTRA:                  -0.491
REMARK UNBOUND:                -0.459
REMARK  Name = 
REMARK  6 active torsions:
REMARK  status: ('A' for Active; 'I' for Inactive)
REMARK    1  A    between atoms: C_2  and  C_25
REMARK    2  A    between atoms: N_3  and  C_4
REMARK    3  A    between atoms: C_4  and  C_5
REMARK    4  A    between atoms: C_8  and  C_9
REMARK    5  A    between atoms: C_9  and  N_10
REMARK    6  A    between atoms: C_11  and  C_13
REMARK                            x       y       z     vdW  Elec       q    Type
REMARK                         _______ _______ _______ _____ _____    ______ ____
ROOT
ATOM      1  C   UNL     1      43.451   4.776  12.021  0.00  0.00    +0.000 C 
ATOM      2  C   UNL     1      44.011   3.414  12.466  0.00  0.00    +0.000 C 
ATOM      3  C   UNL     1      45.537   3.329  12.407  0.00  0.00    +0.000 C 
ATOM      4  C   UNL     1      46.253   4.493  13.118  0.00  0.00    +0.000 C 
ATOM      5  C   UNL     1      45.696   5.837  12.625  0.00  0.00    +0.000 C 
ATOM      6  C   UNL     1      44.173   5.925  12.745  0.00  0.00    +0.000 C 
ENDROOT
BRANCH   1   7
ATOM      7  C   UNL     1      43.511   4.977  10.494  0.00  0.00    +0.000 C 
BRANCH   7  10
ATOM      8  O   UNL     1      45.693   5.306   8.753  0.00  0.00    +0.000 OA
ATOM      9  C   UNL     1      45.295   4.165   8.972  0.00  0.00    +0.000 C 
ATOM     10  N   UNL     1      44.239   3.918   9.826  0.00  0.00    +0.000 N 
ATOM     11  H   UNL     1      43.926   2.963   9.941  0.00  0.00    +0.000 HD
BRANCH   9  12
ATOM     12  C   UNL     1      45.900   2.997   8.364  0.00  0.00    +0.000 A 
ATOM     13  C   UNL     1      45.693   1.677   8.715  0.00  0.00    +0.000 A 
ATOM     14  N   UNL     1      46.392   0.737   7.980  0.00  0.00    +0.000 NA
ATOM     15  C   UNL     1      47.124   1.355   7.081  0.00  0.00    +0.000 A 
ATOM     16  S   UNL     1      47.019   3.067   7.064  0.00  0.00    +0.000 S 
ENDBRANCH   9  12
ENDBRANCH   7  10
ENDBRANCH   1   7
BRANCH   4  17
ATOM     17  C   UNL     1      46.173   4.420  14.651  0.00  0.00    +0.000 C 
BRANCH  17  18
ATOM     18  N   UNL     1      47.422   4.742  15.295  0.00  0.00    +0.000 N 
ATOM     19  C   UNL     1      47.644   4.628  16.643  0.00  0.00    +0.000 C 
ATOM     20  O   UNL     1      46.754   4.366  17.446  0.00  0.00    +0.000 OA
ATOM     21  H   UNL     1      48.216   4.846  14.675  0.00  0.00    +0.000 HD
BRANCH  19  22
ATOM     22  C   UNL     1      49.025   4.889  17.070  0.00  0.00    +0.000 A 
ATOM     23  C   UNL     1      49.648   4.054  17.986  0.00  0.00    +0.000 A 
ATOM     24  S   UNL     1      51.234   4.545  18.384  0.00  0.00    +0.000 S 
ATOM     25  C   UNL     1      51.160   5.860  17.305  0.00  0.00    +0.000 A 
ATOM     26  N   UNL     1      52.219   6.700  17.146  0.00  0.00    +0.000 NA
ATOM     27  C   UNL     1      52.038   7.626  16.264  0.00  0.00    +0.000 A 
ATOM     28  N   UNL     1      50.895   7.792  15.528  0.00  0.00    +0.000 N 
ATOM     29  C   UNL     1      49.778   7.014  15.704  0.00  0.00    +0.000 A 
ATOM     30  O   UNL     1      48.733   7.271  15.115  0.00  0.00    +0.000 OA
ATOM     31  C   UNL     1      49.937   5.934  16.663  0.00  0.00    +0.000 A 
ATOM     32  H   UNL     1      50.805   8.553  14.871  0.00  0.00    +0.000 HD
ENDBRANCH  19  22
ENDBRANCH  17  18
ENDBRANCH   4  17
TORSDOF 6
ENDMDL
MODEL 4
REMARK VINA RESULT:    -7.523      4.935      5.452
REMARK INTER + INTRA:         -10.620
REMARK INTER:                  -9.798
REMARK INTRA:                  -0.822
REMARK UNBOUND:                -0.459
REMARK  Name = 
REMARK  6 active torsions:
REMARK  status: ('A' for Active; 'I' for Inactive)
REMARK    1  A    between atoms: C_2  and  C_25
REMARK    2  A    between atoms: N_3  and  C_4
REMARK    3  A    between atoms: C_4  and  C_5
REMARK    4  A    between atoms: C_8  and  C_9
REMARK    5  A    between atoms: C_9  and  N_10
REMARK    6  A    between atoms: C_11  and  C_13
REMARK                            x       y       z     vdW  Elec       q    Type
REMARK                         _______ _______ _______ _____ _____    ______ ____
ROOT
ATOM      1  C   UNL     1      44.242   3.807  12.209  0.00  0.00    +0.000 C 
ATOM      2  C   UNL     1      45.664   4.359  12.002  0.00  0.00    +0.000 C 
ATOM      3  C   UNL     1      45.714   5.605  11.118  0.00  0.00    +0.000 C 
ATOM      4  C   UNL     1      44.736   6.714  11.548  0.00  0.00    +0.000 C 
ATOM      5  C   UNL     1      43.321   6.138  11.710  0.00  0.00    +0.000 C 
ATOM      6  C   UNL     1      43.281   4.926  12.644  0.00  0.00    +0.000 C 
ENDROOT
BRANCH   1   7
ATOM      7  C   UNL     1      43.697   3.079  10.965  0.00  0.00    +0.000 C 
BRANCH   7  10
ATOM      8  O   UNL     1      44.150   3.984   8.343  0.00  0.00    +0.000 OA
ATOM      9  C   UNL     1      44.898   3.122   8.794  0.00  0.00    +0.000 C 
ATOM     10  N   UNL     1      44.752   2.635  10.078  0.00  0.00    +0.000 N 
ATOM     11  H   UNL     1      45.371   1.897  10.386  0.00  0.00    +0.000 HD
BRANCH   9  12
ATOM     12  C   UNL     1      45.989   2.555   8.027  0.00  0.00    +0.000 A 
ATOM     13  C   UNL     1      46.387   1.233   8.001  0.00  0.00    +0.000 A 
ATOM     14  N   UNL     1      47.464   0.939   7.184  0.00  0.00    +0.000 NA
ATOM     15  C   UNL     1      47.873   2.043   6.602  0.00  0.00    +0.000 A 
ATOM     16  S   UNL     1      47.007   3.471   6.992  0.00  0.00    +0.000 S 
ENDBRANCH   9  12
ENDBRANCH   7  10
ENDBRANCH   1   7
BRANCH   4  17
ATOM     17  C   UNL     1      45.159   7.443  12.834  0.00  0.00    +0.000 C 
BRANCH  17  18
ATOM     18  N   UNL     1      46.449   8.076  12.723  0.00  0.00    +0.000 N 
ATOM     19  C   UNL     1      46.644   9.350  12.257  0.00  0.00    +0.000 C 
ATOM     20  O   UNL     1      45.745  10.026  11.765  0.00  0.00    +0.000 OA
ATOM     21  H   UNL     1      47.202   7.616  13.221  0.00  0.00    +0.000 HD
BRANCH  19  22
ATOM     22  C   UNL     1      48.025   9.841  12.346  0.00  0.00    +0.000 A 
ATOM     23  C   UNL     1      48.290  11.118  12.817  0.00  0.00    +0.000 A 
ATOM     24  S   UNL     1      49.950  11.516  12.808  0.00  0.00    +0.000 S 
ATOM     25  C   UNL     1      50.376   9.975  12.222  0.00  0.00    +0.000 A 
ATOM     26  N   UNL     1      51.676   9.641  12.001  0.00  0.00    +0.000 NA
ATOM     27  C   UNL     1      51.855   8.426  11.599  0.00  0.00    +0.000 A 
ATOM     28  N   UNL     1      50.852   7.515  11.396  0.00  0.00    +0.000 N 
ATOM     29  C   UNL     1      49.524   7.828  11.539  0.00  0.00    +0.000 A 
ATOM     30  O   UNL     1      48.652   7.022  11.229  0.00  0.00    +0.000 OA
ATOM     31  C   UNL     1      49.266   9.174  12.021  0.00  0.00    +0.000 A 
ATOM     32  H   UNL     1      51.055   6.587  11.056  0.00  0.00    +0.000 HD
ENDBRANCH  19  22
ENDBRANCH  17  18
ENDBRANCH   4  17
TORSDOF 6
ENDMDL
MODEL 5
REMARK VINA RESULT:    -7.273      2.723      3.410
REMARK INTER + INTRA:         -10.283
REMARK INTER:                 -10.277
REMARK INTRA:                  -0.006
REMARK UNBOUND:                -0.459
REMARK  Name = 
REMARK  6 active torsions:
REMARK  status: ('A' for Active; 'I' for Inactive)
REMARK    1  A    between atoms: C_2  and  C_25
REMARK    2  A    between atoms: N_3  and  C_4
REMARK    3  A    between atoms: C_4  and  C_5
REMARK    4  A    between atoms: C_8  and  C_9
REMARK    5  A    between atoms: C_9  and  N_10
REMARK    6  A    between atoms: C_11  and  C_13
REMARK                            x       y       z     vdW  Elec       q    Type
REMARK                         _______ _______ _______ _____ _____    ______ ____
ROOT
ATOM      1  C   UNL     1      43.532   5.925  12.208  0.00  0.00    +0.000 C 
ATOM      2  C   UNL     1      44.240   5.050  13.258  0.00  0.00    +0.000 C 
ATOM      3  C   UNL     1      45.589   4.502  12.790  0.00  0.00    +0.000 C 
ATOM      4  C   UNL     1      46.535   5.576  12.221  0.00  0.00    +0.000 C 
ATOM      5  C   UNL     1      45.809   6.408  11.152  0.00  0.00    +0.000 C 
ATOM      6  C   UNL     1      44.489   6.995  11.657  0.00  0.00    +0.000 C 
ENDROOT
BRANCH   1   7
ATOM      7  C   UNL     1      42.921   5.102  11.059  0.00  0.00    +0.000 C 
BRANCH   7  10
ATOM      8  O   UNL     1      43.768   2.517  10.351  0.00  0.00    +0.000 OA
ATOM      9  C   UNL     1      44.266   3.470   9.759  0.00  0.00    +0.000 C 
ATOM     10  N   UNL     1      43.894   4.770  10.038  0.00  0.00    +0.000 N 
ATOM     11  H   UNL     1      44.364   5.521   9.549  0.00  0.00    +0.000 HD
BRANCH   9  12
ATOM     12  C   UNL     1      45.270   3.310   8.727  0.00  0.00    +0.000 A 
ATOM     13  C   UNL     1      45.827   4.307   7.950  0.00  0.00    +0.000 A 
ATOM     14  N   UNL     1      46.772   3.899   7.026  0.00  0.00    +0.000 NA
ATOM     15  C   UNL     1      46.919   2.597   7.110  0.00  0.00    +0.000 A 
ATOM     16  S   UNL     1      45.952   1.799   8.281  0.00  0.00    +0.000 S 
ENDBRANCH   9  12
ENDBRANCH   7  10
ENDBRANCH   1   7
BRANCH   4  17
ATOM     17  C   UNL     1      47.130   6.503  13.294  0.00  0.00    +0.000 C 
BRANCH  17  18
ATOM     18  N   UNL     1      47.349   5.837  14.553  0.00  0.00    +0.000 N 
ATOM     19  C   UNL     1      48.468   6.001  15.326  0.00  0.00    +0.000 C 
ATOM     20  O   UNL     1      49.452   6.633  14.951  0.00  0.00    +0.000 OA
ATOM     21  H   UNL     1      46.530   5.405  14.964  0.00  0.00    +0.000 HD
BRANCH  19  22
ATOM     22  C   UNL     1      48.431   5.326  16.630  0.00  0.00    +0.000 A 
ATOM     23  C   UNL     1      48.462   3.942  16.707  0.00  0.00    +0.000 A 
ATOM     24  S   UNL     1      48.371   3.347  18.305  0.00  0.00    +0.000 S 
ATOM     25  C   UNL     1      48.339   4.922  18.950  0.00  0.00    +0.000 A 
ATOM     26  N   UNL     1      48.278   5.130  20.294  0.00  0.00    +0.000 NA
ATOM     27  C   UNL     1      48.305   6.373  20.643  0.00  0.00    +0.000 A 
ATOM     28  N   UNL     1      48.384   7.428  19.773  0.00  0.00    +0.000 N 
ATOM     29  C   UNL     1      48.377   7.269  18.410  0.00  0.00    +0.000 A 
ATOM     30  O   UNL     1      48.324   8.242  17.664  0.00  0.00    +0.000 OA
ATOM     31  C   UNL     1      48.380   5.887  17.961  0.00  0.00    +0.000 A 
ATOM     32  H   UNL     1      48.375   8.380  20.108  0.00  0.00    +0.000 HD
ENDBRANCH  19  22
ENDBRANCH  17  18
ENDBRANCH   4  17
TORSDOF 6
ENDMDL
MODEL 6
REMARK VINA RESULT:    -7.101      3.656      4.516
REMARK INTER + INTRA:         -10.051
REMARK INTER:                  -9.132
REMARK INTRA:                  -0.919
REMARK UNBOUND:                -0.459
REMARK  Name = 
REMARK  6 active torsions:
REMARK  status: ('A' for Active; 'I' for Inactive)
REMARK    1  A    between atoms: C_2  and  C_25
REMARK    2  A    between atoms: N_3  and  C_4
REMARK    3  A    between atoms: C_4  and  C_5
REMARK    4  A    between atoms: C_8  and  C_9
REMARK    5  A    between atoms: C_9  and  N_10
REMARK    6  A    between atoms: C_11  and  C_13
REMARK                            x       y       z     vdW  Elec       q    Type
REMARK                         _______ _______ _______ _____ _____    ______ ____
ROOT
ATOM      1  C   UNL     1      44.185   4.432  11.093  0.00  0.00    +0.000 C 
ATOM      2  C   UNL     1      45.702   4.607  11.287  0.00  0.00    +0.000 C 
ATOM      3  C   UNL     1      46.194   6.031  11.020  0.00  0.00    +0.000 C 
ATOM      4  C   UNL     1      45.400   7.115  11.772  0.00  0.00    +0.000 C 
ATOM      5  C   UNL     1      43.894   6.934  11.528  0.00  0.00    +0.000 C 
ATOM      6  C   UNL     1      43.410   5.519  11.855  0.00  0.00    +0.000 C 
ENDROOT
BRANCH   1   7
ATOM      7  C   UNL     1      43.772   4.413   9.609  0.00  0.00    +0.000 C 
BRANCH   7  10
ATOM      8  O   UNL     1      44.450   1.712   9.225  0.00  0.00    +0.000 OA
ATOM      9  C   UNL     1      45.101   2.562   8.625  0.00  0.00    +0.000 C 
ATOM     10  N   UNL     1      44.822   3.909   8.749  0.00  0.00    +0.000 N 
ATOM     11  H   UNL     1      45.415   4.569   8.263  0.00  0.00    +0.000 HD
BRANCH   9  12
ATOM     12  C   UNL     1      46.200   2.225   7.743  0.00  0.00    +0.000 A 
ATOM     13  C   UNL     1      46.920   1.046   7.726  0.00  0.00    +0.000 A 
ATOM     14  N   UNL     1      47.929   0.965   6.784  0.00  0.00    +0.000 NA
ATOM     15  C   UNL     1      47.965   2.084   6.099  0.00  0.00    +0.000 A 
ATOM     16  S   UNL     1      46.814   3.278   6.535  0.00  0.00    +0.000 S 
ENDBRANCH   9  12
ENDBRANCH   7  10
ENDBRANCH   1   7
BRANCH   4  17
ATOM     17  C   UNL     1      45.688   7.154  13.281  0.00  0.00    +0.000 C 
BRANCH  17  18
ATOM     18  N   UNL     1      47.040   7.552  13.586  0.00  0.00    +0.000 N 
ATOM     19  C   UNL     1      48.017   6.692  14.015  0.00  0.00    +0.000 C 
ATOM     20  O   UNL     1      47.794   5.521  14.308  0.00  0.00    +0.000 OA
ATOM     21  H   UNL     1      47.308   8.470  13.251  0.00  0.00    +0.000 HD
BRANCH  19  22
ATOM     22  C   UNL     1      49.354   7.284  14.147  0.00  0.00    +0.000 A 
ATOM     23  C   UNL     1      49.990   7.322  15.378  0.00  0.00    +0.000 A 
ATOM     24  S   UNL     1      51.517   8.083  15.332  0.00  0.00    +0.000 S 
ATOM     25  C   UNL     1      51.403   8.340  13.653  0.00  0.00    +0.000 A 
ATOM     26  N   UNL     1      52.408   8.947  12.964  0.00  0.00    +0.000 NA
ATOM     27  C   UNL     1      52.205   9.037  11.692  0.00  0.00    +0.000 A 
ATOM     28  N   UNL     1      51.089   8.577  11.045  0.00  0.00    +0.000 N 
ATOM     29  C   UNL     1      50.022   8.022  11.705  0.00  0.00    +0.000 A 
ATOM     30  O   UNL     1      48.991   7.736  11.105  0.00  0.00    +0.000 OA
ATOM     31  C   UNL     1      50.210   7.868  13.138  0.00  0.00    +0.000 A 
ATOM     32  H   UNL     1      50.978   8.700  10.049  0.00  0.00    +0.000 HD
ENDBRANCH  19  22
ENDBRANCH  17  18
ENDBRANCH   4  17
TORSDOF 6
ENDMDL
MODEL 7
REMARK VINA RESULT:    -6.869      5.046      8.080
REMARK INTER + INTRA:          -9.737
REMARK INTER:                  -8.784
REMARK INTRA:                  -0.953
REMARK UNBOUND:                -0.459
REMARK  Name = 
REMARK  6 active torsions:
REMARK  status: ('A' for Active; 'I' for Inactive)
REMARK    1  A    between atoms: C_2  and  C_25
REMARK    2  A    between atoms: N_3  and  C_4
REMARK    3  A    between atoms: C_4  and  C_5
REMARK    4  A    between atoms: C_8  and  C_9
REMARK    5  A    between atoms: C_9  and  N_10
REMARK    6  A    between atoms: C_11  and  C_13
REMARK                            x       y       z     vdW  Elec       q    Type
REMARK                         _______ _______ _______ _____ _____    ______ ____
ROOT
ATOM      1  C   UNL     1      49.631   8.747  11.473  0.00  0.00    +0.000 C 
ATOM      2  C   UNL     1      48.985   7.350  11.490  0.00  0.00    +0.000 C 
ATOM      3  C   UNL     1      48.632   6.856  12.894  0.00  0.00    +0.000 C 
ATOM      4  C   UNL     1      47.816   7.865  13.723  0.00  0.00    +0.000 C 
ATOM      5  C   UNL     1      48.507   9.238  13.715  0.00  0.00    +0.000 C 
ATOM      6  C   UNL     1      48.800   9.742  12.300  0.00  0.00    +0.000 C 
ENDROOT
BRANCH   1   7
ATOM      7  C   UNL     1      51.095   8.734  11.954  0.00  0.00    +0.000 C 
BRANCH   7  10
ATOM      8  O   UNL     1      52.439   9.084   9.511  0.00  0.00    +0.000 OA
ATOM      9  C   UNL     1      52.513   7.988  10.059  0.00  0.00    +0.000 C 
ATOM     10  N   UNL     1      51.893   7.740  11.268  0.00  0.00    +0.000 N 
ATOM     11  H   UNL     1      51.953   6.807  11.656  0.00  0.00    +0.000 HD
BRANCH   9  12
ATOM     12  C   UNL     1      53.254   6.879   9.492  0.00  0.00    +0.000 A 
ATOM     13  C   UNL     1      54.157   6.063  10.145  0.00  0.00    +0.000 A 
ATOM     14  N   UNL     1      54.738   5.068   9.381  0.00  0.00    +0.000 NA
ATOM     15  C   UNL     1      54.271   5.141   8.155  0.00  0.00    +0.000 A 
ATOM     16  S   UNL     1      53.129   6.384   7.853  0.00  0.00    +0.000 S 
ENDBRANCH   9  12
ENDBRANCH   7  10
ENDBRANCH   1   7
BRANCH   4  17
ATOM     17  C   UNL     1      46.357   8.007  13.259  0.00  0.00    +0.000 C 
BRANCH  17  18
ATOM     18  N   UNL     1      45.770   6.753  12.859  0.00  0.00    +0.000 N 
ATOM     19  C   UNL     1      44.878   6.615  11.828  0.00  0.00    +0.000 C 
ATOM     20  O   UNL     1      44.393   7.573  11.232  0.00  0.00    +0.000 OA
ATOM     21  H   UNL     1      46.219   5.925  13.232  0.00  0.00    +0.000 HD
BRANCH  19  22
ATOM     22  C   UNL     1      44.501   5.232  11.511  0.00  0.00    +0.000 A 
ATOM     23  C   UNL     1      43.694   4.506  12.374  0.00  0.00    +0.000 A 
ATOM     24  S   UNL     1      43.400   2.908  11.849  0.00  0.00    +0.000 S 
ATOM     25  C   UNL     1      44.300   3.150  10.424  0.00  0.00    +0.000 A 
ATOM     26  N   UNL     1      44.438   2.158   9.503  0.00  0.00    +0.000 NA
ATOM     27  C   UNL     1      45.109   2.495   8.452  0.00  0.00    +0.000 A 
ATOM     28  N   UNL     1      45.656   3.732   8.237  0.00  0.00    +0.000 N 
ATOM     29  C   UNL     1      45.601   4.740   9.167  0.00  0.00    +0.000 A 
ATOM     30  O   UNL     1      46.208   5.792   8.990  0.00  0.00    +0.000 OA
ATOM     31  C   UNL     1      44.830   4.426  10.357  0.00  0.00    +0.000 A 
ATOM     32  H   UNL     1      46.193   3.926   7.404  0.00  0.00    +0.000 HD
ENDBRANCH  19  22
ENDBRANCH  17  18
ENDBRANCH   4  17
TORSDOF 6
ENDMDL
MODEL 8
REMARK VINA RESULT:    -6.799      2.497      3.026
REMARK INTER + INTRA:          -9.642
REMARK INTER:                  -9.036
REMARK INTRA:                  -0.607
REMARK UNBOUND:                -0.459
REMARK  Name = 
REMARK  6 active torsions:
REMARK  status: ('A' for Active; 'I' for Inactive)
REMARK    1  A    between atoms: C_2  and  C_25
REMARK    2  A    between atoms: N_3  and  C_4
REMARK    3  A    between atoms: C_4  and  C_5
REMARK    4  A    between atoms: C_8  and  C_9
REMARK    5  A    between atoms: C_9  and  N_10
REMARK    6  A    between atoms: C_11  and  C_13
REMARK                            x       y       z     vdW  Elec       q    Type
REMARK                         _______ _______ _______ _____ _____    ______ ____
ROOT
ATOM      1  C   UNL     1      45.281   7.173  12.534  0.00  0.00    +0.000 C 
ATOM      2  C   UNL     1      46.488   6.255  12.796  0.00  0.00    +0.000 C 
ATOM      3  C   UNL     1      47.816   6.834  12.306  0.00  0.00    +0.000 C 
ATOM      4  C   UNL     1      48.085   8.270  12.791  0.00  0.00    +0.000 C 
ATOM      5  C   UNL     1      46.877   9.169  12.482  0.00  0.00    +0.000 C 
ATOM      6  C   UNL     1      45.566   8.601  13.029  0.00  0.00    +0.000 C 
ENDROOT
BRANCH   1   7
ATOM      7  C   UNL     1      44.852   7.189  11.054  0.00  0.00    +0.000 C 
BRANCH   7  10
ATOM      8  O   UNL     1      43.192   5.009  10.431  0.00  0.00    +0.000 OA
ATOM      9  C   UNL     1      44.371   4.951  10.095  0.00  0.00    +0.000 C 
ATOM     10  N   UNL     1      45.248   5.987  10.351  0.00  0.00    +0.000 N 
ATOM     11  H   UNL     1      46.218   5.872  10.088  0.00  0.00    +0.000 HD
BRANCH   9  12
ATOM     12  C   UNL     1      44.931   3.808   9.404  0.00  0.00    +0.000 A 
ATOM     13  C   UNL     1      44.780   2.477   9.742  0.00  0.00    +0.000 A 
ATOM     14  N   UNL     1      45.418   1.566   8.920  0.00  0.00    +0.000 NA
ATOM     15  C   UNL     1      46.048   2.217   7.968  0.00  0.00    +0.000 A 
ATOM     16  S   UNL     1      45.916   3.926   8.002  0.00  0.00    +0.000 S 
ENDBRANCH   9  12
ENDBRANCH   7  10
ENDBRANCH   1   7
BRANCH   4  17
ATOM     17  C   UNL     1      48.441   8.361  14.284  0.00  0.00    +0.000 C 
BRANCH  17  18
ATOM     18  N   UNL     1      48.735   7.078  14.870  0.00  0.00    +0.000 N 
ATOM     19  C   UNL     1      48.765   6.837  16.219  0.00  0.00    +0.000 C 
ATOM     20  O   UNL     1      48.673   7.728  17.058  0.00  0.00    +0.000 OA
ATOM     21  H   UNL     1      48.700   6.290  14.233  0.00  0.00    +0.000 HD
BRANCH  19  22
ATOM     22  C   UNL     1      48.963   5.431  16.597  0.00  0.00    +0.000 A 
ATOM     23  C   UNL     1      47.919   4.523  16.502  0.00  0.00    +0.000 A 
ATOM     24  S   UNL     1      48.336   2.952  17.023  0.00  0.00    +0.000 S 
ATOM     25  C   UNL     1      49.941   3.421  17.343  0.00  0.00    +0.000 A 
ATOM     26  N   UNL     1      50.856   2.527  17.810  0.00  0.00    +0.000 NA
ATOM     27  C   UNL     1      52.043   3.011  17.966  0.00  0.00    +0.000 A 
ATOM     28  N   UNL     1      52.401   4.306  17.700  0.00  0.00    +0.000 N 
ATOM     29  C   UNL     1      51.499   5.257  17.295  0.00  0.00    +0.000 A 
ATOM     30  O   UNL     1      51.832   6.433  17.186  0.00  0.00    +0.000 OA
ATOM     31  C   UNL     1      50.152   4.761  17.072  0.00  0.00    +0.000 A 
ATOM     32  H   UNL     1      53.342   4.630  17.867  0.00  0.00    +0.000 HD
ENDBRANCH  19  22
ENDBRANCH  17  18
ENDBRANCH   4  17
TORSDOF 6
ENDMDL
MODEL 9
REMARK VINA RESULT:    -6.786      3.178      8.863
REMARK INTER + INTRA:          -9.625
REMARK INTER:                  -8.680
REMARK INTRA:                  -0.945
REMARK UNBOUND:                -0.459
REMARK  Name = 
REMARK  6 active torsions:
REMARK  status: ('A' for Active; 'I' for Inactive)
REMARK    1  A    between atoms: C_2  and  C_25
REMARK    2  A    between atoms: N_3  and  C_4
REMARK    3  A    between atoms: C_4  and  C_5
REMARK    4  A    between atoms: C_8  and  C_9
REMARK    5  A    between atoms: C_9  and  N_10
REMARK    6  A    between atoms: C_11  and  C_13
REMARK                            x       y       z     vdW  Elec       q    Type
REMARK                         _______ _______ _______ _____ _____    ______ ____
ROOT
ATOM      1  C   UNL     1      50.009   8.173  12.788  0.00  0.00    +0.000 C 
ATOM      2  C   UNL     1      49.121   6.923  12.925  0.00  0.00    +0.000 C 
ATOM      3  C   UNL     1      47.830   7.172  13.707  0.00  0.00    +0.000 C 
ATOM      4  C   UNL     1      47.023   8.385  13.208  0.00  0.00    +0.000 C 
ATOM      5  C   UNL     1      47.930   9.622  13.116  0.00  0.00    +0.000 C 
ATOM      6  C   UNL     1      49.188   9.371  12.282  0.00  0.00    +0.000 C 
ENDROOT
BRANCH   1   7
ATOM      7  C   UNL     1      50.742   8.532  14.095  0.00  0.00    +0.000 C 
BRANCH   7  10
ATOM      8  O   UNL     1      49.779   7.987  16.679  0.00  0.00    +0.000 OA
ATOM      9  C   UNL     1      50.546   7.177  16.165  0.00  0.00    +0.000 C 
ATOM     10  N   UNL     1      51.051   7.364  14.894  0.00  0.00    +0.000 N 
ATOM     11  H   UNL     1      51.709   6.686  14.533  0.00  0.00    +0.000 HD
BRANCH   9  12
ATOM     12  C   UNL     1      50.972   5.969  16.841  0.00  0.00    +0.000 A 
ATOM     13  C   UNL     1      50.163   4.964  17.335  0.00  0.00    +0.000 A 
ATOM     14  N   UNL     1      50.813   3.906  17.944  0.00  0.00    +0.000 NA
ATOM     15  C   UNL     1      52.108   4.121  17.906  0.00  0.00    +0.000 A 
ATOM     16  S   UNL     1      52.614   5.576  17.153  0.00  0.00    +0.000 S 
ENDBRANCH   9  12
ENDBRANCH   7  10
ENDBRANCH   1   7
BRANCH   4  17
ATOM     17  C   UNL     1      46.322   8.145  11.861  0.00  0.00    +0.000 C 
BRANCH  17  18
ATOM     18  N   UNL     1      45.844   6.794  11.709  0.00  0.00    +0.000 N 
ATOM     19  C   UNL     1      44.552   6.467  11.388  0.00  0.00    +0.000 C 
ATOM     20  O   UNL     1      43.648   7.296  11.331  0.00  0.00    +0.000 OA
ATOM     21  H   UNL     1      46.562   6.085  11.626  0.00  0.00    +0.000 HD
BRANCH  19  22
ATOM     22  C   UNL     1      44.309   5.037  11.161  0.00  0.00    +0.000 A 
ATOM     23  C   UNL     1      43.510   4.310  12.030  0.00  0.00    +0.000 A 
ATOM     24  S   UNL     1      43.382   2.659  11.617  0.00  0.00    +0.000 S 
ATOM     25  C   UNL     1      44.348   2.870  10.232  0.00  0.00    +0.000 A 
ATOM     26  N   UNL     1      44.625   1.828   9.402  0.00  0.00    +0.000 NA
ATOM     27  C   UNL     1      45.333   2.142   8.368  0.00  0.00    +0.000 A 
ATOM     28  N   UNL     1      45.790   3.403   8.088  0.00  0.00    +0.000 N 
ATOM     29  C   UNL     1      45.594   4.468   8.930  0.00  0.00    +0.000 A 
ATOM     30  O   UNL     1      46.124   5.552   8.706  0.00  0.00    +0.000 OA
ATOM     31  C   UNL     1      44.776   4.178  10.095  0.00  0.00    +0.000 A 
ATOM     32  H   UNL     1      46.361   3.580   7.275  0.00  0.00    +0.000 HD
ENDBRANCH  19  22
ENDBRANCH  17  18
ENDBRANCH   4  17
TORSDOF 6
ENDMDL
