MODEL 1
REMARK VINA RESULT:    -7.625      0.000      0.000
REMARK INTER + INTRA:         -12.186
REMARK INTER:                 -10.745
REMARK INTRA:                  -1.440
REMARK UNBOUND:                -1.440
REMARK  Name = 
REMARK  8 active torsions:
REMARK  status: ('A' for Active; 'I' for Inactive)
REMARK    1  A    between atoms: C_1  and  C_2
REMARK    2  A    between atoms: C_2  and  C_3
REMARK    3  A    between atoms: C_3  and  N_4
REMARK    4  A    between atoms: C_3  and  C_17
REMARK    5  A    between atoms: C_5  and  C_7
REMARK    6  A    between atoms: C_20  and  C_21
REMARK    7  A    between atoms: C_21  and  N_22
REMARK    8  A    between atoms: C_23  and  C_25
REMARK                            x       y       z     vdW  Elec       q    Type
REMARK                         _______ _______ _______ _____ _____    ______ ____
ROOT
ATOM      1  C   UNL     1      48.218   7.845  14.297  0.00  0.00    +0.000 C 
ENDROOT
BRANCH   1   2
ATOM      2  C   UNL     1      47.207   7.206  13.341  0.00  0.00    +0.000 A 
ATOM      3  C   UNL     1      47.041   5.815  13.291  0.00  0.00    +0.000 A 
ATOM      4  C   UNL     1      46.118   5.232  12.407  0.00  0.00    +0.000 A 
ATOM      5  C   UNL     1      45.342   6.022  11.548  0.00  0.00    +0.000 A 
ATOM      6  C   UNL     1      45.492   7.414  11.612  0.00  0.00    +0.000 A 
ATOM      7  C   UNL     1      46.412   7.997  12.493  0.00  0.00    +0.000 A 
BRANCH   5   8
ATOM      8  C   UNL     1      44.385   5.395  10.564  0.00  0.00    +0.000 C 
BRANCH   8   9
ATOM      9  N   UNL     1      45.051   4.684   9.499  0.00  0.00    +0.000 N 
ATOM     10  C   UNL     1      45.062   3.305   9.448  0.00  0.00    +0.000 C 
ATOM     11  O   UNL     1      44.518   2.591  10.284  0.00  0.00    +0.000 OA
ATOM     12  H   UNL     1      45.452   5.182   8.710  0.00  0.00    +0.000 HD
BRANCH  10  13
ATOM     13  C   UNL     1      45.802   2.711   8.283  0.00  0.00    +0.000 A 
ATOM     14  C   UNL     1      46.099   3.495   7.172  0.00  0.00    +0.000 A 
ATOM     15  C   UNL     1      46.773   2.903   6.106  0.00  0.00    +0.000 A 
ATOM     16  C   UNL     1      47.121   1.559   6.182  0.00  0.00    +0.000 A 
ATOM     17  C   UNL     1      46.785   0.855   7.330  0.00  0.00    +0.000 A 
ATOM     18  N   UNL     1      46.139   1.394   8.389  0.00  0.00    +0.000 NA
ENDBRANCH  10  13
ENDBRANCH   8   9
ENDBRANCH   5   8
ENDBRANCH   1   2
BRANCH   1  19
ATOM     19  N   UNL     1      48.182   7.114  15.558  0.00  0.00    +0.000 N 
ATOM     20  C   UNL     1      49.267   6.523  16.152  0.00  0.00    +0.000 C 
ATOM     21  O   UNL     1      50.413   6.616  15.722  0.00  0.00    +0.000 OA
ATOM     22  H   UNL     1      47.263   6.774  15.816  0.00  0.00    +0.000 HD
BRANCH  20  23
ATOM     23  C   UNL     1      48.980   5.817  17.404  0.00  0.00    +0.000 A 
ATOM     24  C   UNL     1      49.186   4.449  17.516  0.00  0.00    +0.000 A 
ATOM     25  S   UNL     1      48.807   3.832  19.064  0.00  0.00    +0.000 S 
ATOM     26  C   UNL     1      48.309   5.363  19.616  0.00  0.00    +0.000 A 
ATOM     27  N   UNL     1      47.819   5.538  20.873  0.00  0.00    +0.000 NA
ATOM     28  C   UNL     1      47.448   6.748  21.135  0.00  0.00    +0.000 A 
ATOM     29  N   UNL     1      47.535   7.800  20.262  0.00  0.00    +0.000 N 
ATOM     30  C   UNL     1      48.063   7.681  19.005  0.00  0.00    +0.000 A 
ATOM     31  O   UNL     1      48.202   8.662  18.283  0.00  0.00    +0.000 OA
ATOM     32  C   UNL     1      48.463   6.336  18.640  0.00  0.00    +0.000 A 
ATOM     33  H   UNL     1      47.254   8.731  20.537  0.00  0.00    +0.000 HD
ENDBRANCH  20  23
ENDBRANCH   1  19
BRANCH   1  35
ATOM     34  C   UNL     1      49.178  10.169  14.804  0.00  0.00    +0.000 C 
ATOM     35  C   UNL     1      47.934   9.341  14.524  0.00  0.00    +0.000 C 
ENDBRANCH   1  35
TORSDOF 7
ENDMDL
MODEL 2
REMARK VINA RESULT:    -7.549      1.879      2.393
REMARK INTER + INTRA:         -12.079
REMARK INTER:                 -10.578
REMARK INTRA:                  -1.500
REMARK UNBOUND:                -1.440
REMARK  Name = 
REMARK  8 active torsions:
REMARK  status: ('A' for Active; 'I' for Inactive)
REMARK    1  A    between atoms: C_1  and  C_2
REMARK    2  A    between atoms: C_2  and  C_3
REMARK    3  A    between atoms: C_3  and  N_4
REMARK    4  A    between atoms: C_3  and  C_17
REMARK    5  A    between atoms: C_5  and  C_7
REMARK    6  A    between atoms: C_20  and  C_21
REMARK    7  A    between atoms: C_21  and  N_22
REMARK    8  A    between atoms: C_23  and  C_25
REMARK                            x       y       z     vdW  Elec       q    Type
REMARK                         _______ _______ _______ _____ _____    ______ ____
ROOT
ATOM      1  C   UNL     1      48.426   8.526  14.220  0.00  0.00    +0.000 C 
ENDROOT
BRANCH   1   2
ATOM      2  C   UNL     1      47.453   7.886  13.226  0.00  0.00    +0.000 A 
ATOM      3  C   UNL     1      46.103   8.262  13.193  0.00  0.00    +0.000 A 
ATOM      4  C   UNL     1      45.212   7.667  12.286  0.00  0.00    +0.000 A 
ATOM      5  C   UNL     1      45.644   6.677  11.393  0.00  0.00    +0.000 A 
ATOM      6  C   UNL     1      46.997   6.314  11.410  0.00  0.00    +0.000 A 
ATOM      7  C   UNL     1      47.887   6.907  12.314  0.00  0.00    +0.000 A 
BRANCH   5   8
ATOM      8  C   UNL     1      44.678   6.002  10.450  0.00  0.00    +0.000 C 
BRANCH   8   9
ATOM      9  N   UNL     1      45.331   5.183   9.458  0.00  0.00    +0.000 N 
ATOM     10  C   UNL     1      44.978   3.863   9.263  0.00  0.00    +0.000 C 
ATOM     11  O   UNL     1      44.100   3.294   9.904  0.00  0.00    +0.000 OA
ATOM     12  H   UNL     1      46.007   5.583   8.814  0.00  0.00    +0.000 HD
BRANCH  10  13
ATOM     13  C   UNL     1      45.755   3.140   8.199  0.00  0.00    +0.000 A 
ATOM     14  C   UNL     1      46.081   1.798   8.363  0.00  0.00    +0.000 A 
ATOM     15  C   UNL     1      46.815   1.168   7.361  0.00  0.00    +0.000 A 
ATOM     16  C   UNL     1      47.200   1.895   6.240  0.00  0.00    +0.000 A 
ATOM     17  C   UNL     1      46.829   3.230   6.160  0.00  0.00    +0.000 A 
ATOM     18  N   UNL     1      46.111   3.875   7.106  0.00  0.00    +0.000 NA
ENDBRANCH  10  13
ENDBRANCH   8   9
ENDBRANCH   5   8
ENDBRANCH   1   2
BRANCH   1  19
ATOM     19  N   UNL     1      48.581   7.625  15.355  0.00  0.00    +0.000 N 
ATOM     20  C   UNL     1      49.752   7.008  15.711  0.00  0.00    +0.000 C 
ATOM     21  O   UNL     1      50.827   7.216  15.155  0.00  0.00    +0.000 OA
ATOM     22  H   UNL     1      47.715   7.208  15.677  0.00  0.00    +0.000 HD
BRANCH  20  23
ATOM     23  C   UNL     1      49.657   6.120  16.874  0.00  0.00    +0.000 A 
ATOM     24  C   UNL     1      50.463   6.314  17.988  0.00  0.00    +0.000 A 
ATOM     25  S   UNL     1      50.177   5.181  19.234  0.00  0.00    +0.000 S 
ATOM     26  C   UNL     1      49.007   4.366  18.304  0.00  0.00    +0.000 A 
ATOM     27  N   UNL     1      48.381   3.253  18.771  0.00  0.00    +0.000 NA
ATOM     28  C   UNL     1      47.546   2.724  17.938  0.00  0.00    +0.000 A 
ATOM     29  N   UNL     1      47.269   3.214  16.689  0.00  0.00    +0.000 N 
ATOM     30  C   UNL     1      47.839   4.356  16.196  0.00  0.00    +0.000 A 
ATOM     31  O   UNL     1      47.504   4.811  15.108  0.00  0.00    +0.000 OA
ATOM     32  C   UNL     1      48.814   4.974  17.073  0.00  0.00    +0.000 A 
ATOM     33  H   UNL     1      46.582   2.771  16.094  0.00  0.00    +0.000 HD
ENDBRANCH  20  23
ENDBRANCH   1  19
BRANCH   1  35
ATOM     34  C   UNL     1      49.030  10.749  15.351  0.00  0.00    +0.000 C 
ATOM     35  C   UNL     1      47.947   9.914  14.685  0.00  0.00    +0.000 C 
ENDBRANCH   1  35
TORSDOF 7
ENDMDL
MODEL 3
REMARK VINA RESULT:    -7.355      3.918      8.885
REMARK INTER + INTRA:         -11.805
REMARK INTER:                 -10.559
REMARK INTRA:                  -1.246
REMARK UNBOUND:                -1.440
REMARK  Name = 
REMARK  8 active torsions:
REMARK  status: ('A' for Active; 'I' for Inactive)
REMARK    1  A    between atoms: C_1  and  C_2
REMARK    2  A    between atoms: C_2  and  C_3
REMARK    3  A    between atoms: C_3  and  N_4
REMARK    4  A    between atoms: C_3  and  C_17
REMARK    5  A    between atoms: C_5  and  C_7
REMARK    6  A    between atoms: C_20  and  C_21
REMARK    7  A    between atoms: C_21  and  N_22
REMARK    8  A    between atoms: C_23  and  C_25
REMARK                            x       y       z     vdW  Elec       q    Type
REMARK                         _______ _______ _______ _____ _____    ______ ____
ROOT
ATOM      1  C   UNL     1      47.976   6.980  13.460  0.00  0.00    +0.000 C 
ENDROOT
BRANCH   1   2
ATOM      2  C   UNL     1      48.223   6.187  14.747  0.00  0.00    +0.000 A 
ATOM      3  C   UNL     1      49.191   6.597  15.673  0.00  0.00    +0.000 A 
ATOM      4  C   UNL     1      49.420   5.862  16.848  0.00  0.00    +0.000 A 
ATOM      5  C   UNL     1      48.693   4.697  17.124  0.00  0.00    +0.000 A 
ATOM      6  C   UNL     1      47.710   4.296  16.209  0.00  0.00    +0.000 A 
ATOM      7  C   UNL     1      47.480   5.029  15.038  0.00  0.00    +0.000 A 
BRANCH   5   8
ATOM      8  C   UNL     1      48.971   3.879  18.362  0.00  0.00    +0.000 C 
BRANCH   8   9
ATOM      9  N   UNL     1      50.330   3.400  18.432  0.00  0.00    +0.000 N 
ATOM     10  C   UNL     1      50.794   2.415  17.584  0.00  0.00    +0.000 C 
ATOM     11  O   UNL     1      50.103   1.882  16.722  0.00  0.00    +0.000 OA
ATOM     12  H   UNL     1      51.007   3.840  19.048  0.00  0.00    +0.000 HD
BRANCH  10  13
ATOM     13  C   UNL     1      52.230   2.018  17.785  0.00  0.00    +0.000 A 
ATOM     14  C   UNL     1      53.227   2.988  17.796  0.00  0.00    +0.000 A 
ATOM     15  C   UNL     1      54.547   2.578  17.969  0.00  0.00    +0.000 A 
ATOM     16  C   UNL     1      54.825   1.224  18.120  0.00  0.00    +0.000 A 
ATOM     17  C   UNL     1      53.766   0.326  18.097  0.00  0.00    +0.000 A 
ATOM     18  N   UNL     1      52.472   0.685  17.940  0.00  0.00    +0.000 NA
ENDBRANCH  10  13
ENDBRANCH   8   9
ENDBRANCH   5   8
ENDBRANCH   1   2
BRANCH   1  19
ATOM     19  N   UNL     1      47.271   6.120  12.519  0.00  0.00    +0.000 N 
ATOM     20  C   UNL     1      46.198   6.505  11.758  0.00  0.00    +0.000 C 
ATOM     21  O   UNL     1      45.762   7.653  11.728  0.00  0.00    +0.000 OA
ATOM     22  H   UNL     1      47.393   5.128  12.689  0.00  0.00    +0.000 HD
BRANCH  20  23
ATOM     23  C   UNL     1      45.633   5.456  10.905  0.00  0.00    +0.000 A 
ATOM     24  C   UNL     1      45.758   5.515   9.523  0.00  0.00    +0.000 A 
ATOM     25  S   UNL     1      45.047   4.183   8.722  0.00  0.00    +0.000 S 
ATOM     26  C   UNL     1      44.505   3.515  10.192  0.00  0.00    +0.000 A 
ATOM     27  N   UNL     1      43.776   2.367  10.221  0.00  0.00    +0.000 NA
ATOM     28  C   UNL     1      43.406   2.003  11.405  0.00  0.00    +0.000 A 
ATOM     29  N   UNL     1      43.711   2.673  12.561  0.00  0.00    +0.000 N 
ATOM     30  C   UNL     1      44.480   3.804  12.584  0.00  0.00    +0.000 A 
ATOM     31  O   UNL     1      44.802   4.328  13.644  0.00  0.00    +0.000 OA
ATOM     32  C   UNL     1      44.894   4.282  11.279  0.00  0.00    +0.000 A 
ATOM     33  H   UNL     1      43.416   2.321  13.462  0.00  0.00    +0.000 HD
ENDBRANCH  20  23
ENDBRANCH   1  19
BRANCH   1  35
ATOM     34  C   UNL     1      49.127   8.802  12.067  0.00  0.00    +0.000 C 
ATOM     35  C   UNL     1      49.287   7.505  12.845  0.00  0.00    +0.000 C 
ENDBRANCH   1  35
TORSDOF 7
ENDMDL
MODEL 4
REMARK VINA RESULT:    -7.326      1.717      2.339
REMARK INTER + INTRA:         -11.764
REMARK INTER:                 -10.566
REMARK INTRA:                  -1.198
REMARK UNBOUND:                -1.440
REMARK  Name = 
REMARK  8 active torsions:
REMARK  status: ('A' for Active; 'I' for Inactive)
REMARK    1  A    between atoms: C_1  and  C_2
REMARK    2  A    between atoms: C_2  and  C_3
REMARK    3  A    between atoms: C_3  and  N_4
REMARK    4  A    between atoms: C_3  and  C_17
REMARK    5  A    between atoms: C_5  and  C_7
REMARK    6  A    between atoms: C_20  and  C_21
REMARK    7  A    between atoms: C_21  and  N_22
REMARK    8  A    between atoms: C_23  and  C_25
REMARK                            x       y       z     vdW  Elec       q    Type
REMARK                         _______ _______ _______ _____ _____    ______ ____
ROOT
ATOM      1  C   UNL     1      48.038   9.242  13.514  0.00  0.00    +0.000 C 
ENDROOT
BRANCH   1   2
ATOM      2  C   UNL     1      47.118   8.288  12.748  0.00  0.00    +0.000 A 
ATOM      3  C   UNL     1      45.724   8.424  12.810  0.00  0.00    +0.000 A 
ATOM      4  C   UNL     1      44.883   7.542  12.112  0.00  0.00    +0.000 A 
ATOM      5  C   UNL     1      45.412   6.500  11.339  0.00  0.00    +0.000 A 
ATOM      6  C   UNL     1      46.805   6.374  11.259  0.00  0.00    +0.000 A 
ATOM      7  C   UNL     1      47.645   7.254  11.954  0.00  0.00    +0.000 A 
BRANCH   5   8
ATOM      8  C   UNL     1      44.509   5.521  10.628  0.00  0.00    +0.000 C 
BRANCH   8   9
ATOM      9  N   UNL     1      45.189   4.761   9.607  0.00  0.00    +0.000 N 
ATOM     10  C   UNL     1      44.939   3.416   9.421  0.00  0.00    +0.000 C 
ATOM     11  O   UNL     1      44.136   2.776  10.093  0.00  0.00    +0.000 OA
ATOM     12  H   UNL     1      45.803   5.216   8.939  0.00  0.00    +0.000 HD
BRANCH  10  13
ATOM     13  C   UNL     1      45.730   2.761   8.324  0.00  0.00    +0.000 A 
ATOM     14  C   UNL     1      46.063   3.479   7.179  0.00  0.00    +0.000 A 
ATOM     15  C   UNL     1      46.784   2.832   6.179  0.00  0.00    +0.000 A 
ATOM     16  C   UNL     1      47.142   1.499   6.351  0.00  0.00    +0.000 A 
ATOM     17  C   UNL     1      46.768   0.862   7.526  0.00  0.00    +0.000 A 
ATOM     18  N   UNL     1      46.076   1.457   8.524  0.00  0.00    +0.000 NA
ENDBRANCH  10  13
ENDBRANCH   8   9
ENDBRANCH   5   8
ENDBRANCH   1   2
BRANCH   1  19
ATOM     19  N   UNL     1      47.786   9.075  14.940  0.00  0.00    +0.000 N 
ATOM     20  C   UNL     1      48.749   9.107  15.915  0.00  0.00    +0.000 C 
ATOM     21  O   UNL     1      49.930   9.364  15.697  0.00  0.00    +0.000 OA
ATOM     22  H   UNL     1      46.915   8.604  15.157  0.00  0.00    +0.000 HD
BRANCH  20  23
ATOM     23  C   UNL     1      48.259   8.883  17.278  0.00  0.00    +0.000 A 
ATOM     24  C   UNL     1      47.803   9.940  18.055  0.00  0.00    +0.000 A 
ATOM     25  S   UNL     1      47.260   9.457  19.602  0.00  0.00    +0.000 S 
ATOM     26  C   UNL     1      47.667   7.831  19.301  0.00  0.00    +0.000 A 
ATOM     27  N   UNL     1      47.494   6.871  20.248  0.00  0.00    +0.000 NA
ATOM     28  C   UNL     1      47.882   5.692  19.886  0.00  0.00    +0.000 A 
ATOM     29  N   UNL     1      48.412   5.383  18.661  0.00  0.00    +0.000 N 
ATOM     30  C   UNL     1      48.562   6.307  17.662  0.00  0.00    +0.000 A 
ATOM     31  O   UNL     1      48.961   5.977  16.551  0.00  0.00    +0.000 OA
ATOM     32  C   UNL     1      48.177   7.657  18.023  0.00  0.00    +0.000 A 
ATOM     33  H   UNL     1      48.670   4.435  18.428  0.00  0.00    +0.000 HD
ENDBRANCH  20  23
ENDBRANCH   1  19
BRANCH   1  35
ATOM     34  C   UNL     1      48.195  10.988  11.641  0.00  0.00    +0.000 C 
ATOM     35  C   UNL     1      47.832  10.709  13.091  0.00  0.00    +0.000 C 
ENDBRANCH   1  35
TORSDOF 7
ENDMDL
MODEL 5
REMARK VINA RESULT:    -7.296      2.823      4.669
REMARK INTER + INTRA:         -11.722
REMARK INTER:                 -10.312
REMARK INTRA:                  -1.410
REMARK UNBOUND:                -1.440
REMARK  Name = 
REMARK  8 active torsions:
REMARK  status: ('A' for Active; 'I' for Inactive)
REMARK    1  A    between atoms: C_1  and  C_2
REMARK    2  A    between atoms: C_2  and  C_3
REMARK    3  A    between atoms: C_3  and  N_4
REMARK    4  A    between atoms: C_3  and  C_17
REMARK    5  A    between atoms: C_5  and  C_7
REMARK    6  A    between atoms: C_20  and  C_21
REMARK    7  A    between atoms: C_21  and  N_22
REMARK    8  A    between atoms: C_23  and  C_25
REMARK                            x       y       z     vdW  Elec       q    Type
REMARK                         _______ _______ _______ _____ _____    ______ ____
ROOT
ATOM      1  C   UNL     1      47.124   5.140  15.161  0.00  0.00    +0.000 C 
ENDROOT
BRANCH   1   2
ATOM      2  C   UNL     1      46.270   4.869  13.919  0.00  0.00    +0.000 A 
ATOM      3  C   UNL     1      46.161   3.577  13.386  0.00  0.00    +0.000 A 
ATOM      4  C   UNL     1      45.384   3.333  12.242  0.00  0.00    +0.000 A 
ATOM      5  C   UNL     1      44.701   4.373  11.598  0.00  0.00    +0.000 A 
ATOM      6  C   UNL     1      44.793   5.662  12.140  0.00  0.00    +0.000 A 
ATOM      7  C   UNL     1      45.567   5.906  13.282  0.00  0.00    +0.000 A 
BRANCH   5   8
ATOM      8  C   UNL     1      43.905   4.122  10.341  0.00  0.00    +0.000 C 
BRANCH   8   9
ATOM      9  N   UNL     1      44.648   3.407   9.332  0.00  0.00    +0.000 N 
ATOM     10  C   UNL     1      45.617   4.030   8.572  0.00  0.00    +0.000 C 
ATOM     11  O   UNL     1      45.917   5.213   8.692  0.00  0.00    +0.000 OA
ATOM     12  H   UNL     1      44.540   2.404   9.217  0.00  0.00    +0.000 HD
BRANCH  10  13
ATOM     13  C   UNL     1      46.298   3.155   7.557  0.00  0.00    +0.000 A 
ATOM     14  C   UNL     1      46.603   3.657   6.295  0.00  0.00    +0.000 A 
ATOM     15  C   UNL     1      47.220   2.810   5.378  0.00  0.00    +0.000 A 
ATOM     16  C   UNL     1      47.506   1.499   5.746  0.00  0.00    +0.000 A 
ATOM     17  C   UNL     1      47.167   1.085   7.026  0.00  0.00    +0.000 A 
ATOM     18  N   UNL     1      46.575   1.878   7.948  0.00  0.00    +0.000 NA
ENDBRANCH  10  13
ENDBRANCH   8   9
ENDBRANCH   5   8
ENDBRANCH   1   2
BRANCH   1  19
ATOM     19  N   UNL     1      48.314   5.874  14.747  0.00  0.00    +0.000 N 
ATOM     20  C   UNL     1      48.950   6.824  15.503  0.00  0.00    +0.000 C 
ATOM     21  O   UNL     1      48.631   7.103  16.656  0.00  0.00    +0.000 OA
ATOM     22  H   UNL     1      48.463   5.896  13.745  0.00  0.00    +0.000 HD
BRANCH  20  23
ATOM     23  C   UNL     1      50.112   7.450  14.865  0.00  0.00    +0.000 A 
ATOM     24  C   UNL     1      51.357   7.437  15.478  0.00  0.00    +0.000 A 
ATOM     25  S   UNL     1      52.573   8.204  14.555  0.00  0.00    +0.000 S 
ATOM     26  C   UNL     1      51.464   8.621  13.332  0.00  0.00    +0.000 A 
ATOM     27  N   UNL     1      51.847   9.340  12.243  0.00  0.00    +0.000 NA
ATOM     28  C   UNL     1      50.887   9.611  11.421  0.00  0.00    +0.000 A 
ATOM     29  N   UNL     1      49.584   9.217  11.581  0.00  0.00    +0.000 N 
ATOM     30  C   UNL     1      49.163   8.455  12.636  0.00  0.00    +0.000 A 
ATOM     31  O   UNL     1      48.007   8.051  12.701  0.00  0.00    +0.000 OA
ATOM     32  C   UNL     1      50.190   8.150  13.612  0.00  0.00    +0.000 A 
ATOM     33  H   UNL     1      48.884   9.437  10.886  0.00  0.00    +0.000 HD
ENDBRANCH  20  23
ENDBRANCH   1  19
BRANCH   1  35
ATOM     34  C   UNL     1      47.199   3.856  17.380  0.00  0.00    +0.000 C 
ATOM     35  C   UNL     1      47.510   3.841  15.892  0.00  0.00    +0.000 C 
ENDBRANCH   1  35
TORSDOF 7
ENDMDL
MODEL 6
REMARK VINA RESULT:    -7.163      2.517      3.869
REMARK INTER + INTRA:         -11.535
REMARK INTER:                 -10.122
REMARK INTRA:                  -1.413
REMARK UNBOUND:                -1.440
REMARK  Name = 
REMARK  8 active torsions:
REMARK  status: ('A' for Active; 'I' for Inactive)
REMARK    1  A    between atoms: C_1  and  C_2
REMARK    2  A    between atoms: C_2  and  C_3
REMARK    3  A    between atoms: C_3  and  N_4
REMARK    4  A    between atoms: C_3  and  C_17
REMARK    5  A    between atoms: C_5  and  C_7
REMARK    6  A    between atoms: C_20  and  C_21
REMARK    7  A    between atoms: C_21  and  N_22
REMARK    8  A    between atoms: C_23  and  C_25
REMARK                            x       y       z     vdW  Elec       q    Type
REMARK                         _______ _______ _______ _____ _____    ______ ____
ROOT
ATOM      1  C   UNL     1      47.266   4.741  15.711  0.00  0.00    +0.000 C 
ENDROOT
BRANCH   1   2
ATOM      2  C   UNL     1      46.675   5.044  14.332  0.00  0.00    +0.000 A 
ATOM      3  C   UNL     1      45.451   4.491  13.934  0.00  0.00    +0.000 A 
ATOM      4  C   UNL     1      44.915   4.764  12.665  0.00  0.00    +0.000 A 
ATOM      5  C   UNL     1      45.591   5.593  11.759  0.00  0.00    +0.000 A 
ATOM      6  C   UNL     1      46.806   6.163  12.162  0.00  0.00    +0.000 A 
ATOM      7  C   UNL     1      47.341   5.892  13.428  0.00  0.00    +0.000 A 
BRANCH   5   8
ATOM      8  C   UNL     1      45.042   5.849  10.377  0.00  0.00    +0.000 C 
BRANCH   8   9
ATOM      9  N   UNL     1      45.681   5.055   9.356  0.00  0.00    +0.000 N 
ATOM     10  C   UNL     1      45.214   3.800   9.019  0.00  0.00    +0.000 C 
ATOM     11  O   UNL     1      44.242   3.273   9.550  0.00  0.00    +0.000 OA
ATOM     12  H   UNL     1      46.436   5.436   8.794  0.00  0.00    +0.000 HD
BRANCH  10  13
ATOM     13  C   UNL     1      45.990   3.094   7.943  0.00  0.00    +0.000 A 
ATOM     14  C   UNL     1      46.338   1.755   8.097  0.00  0.00    +0.000 A 
ATOM     15  C   UNL     1      47.070   1.141   7.084  0.00  0.00    +0.000 A 
ATOM     16  C   UNL     1      47.431   1.878   5.962  0.00  0.00    +0.000 A 
ATOM     17  C   UNL     1      47.039   3.208   5.892  0.00  0.00    +0.000 A 
ATOM     18  N   UNL     1      46.322   3.839   6.849  0.00  0.00    +0.000 NA
ENDBRANCH  10  13
ENDBRANCH   8   9
ENDBRANCH   5   8
ENDBRANCH   1   2
BRANCH   1  19
ATOM     19  N   UNL     1      48.331   5.700  15.974  0.00  0.00    +0.000 N 
ATOM     20  C   UNL     1      48.512   6.365  17.160  0.00  0.00    +0.000 C 
ATOM     21  O   UNL     1      47.836   6.160  18.164  0.00  0.00    +0.000 OA
ATOM     22  H   UNL     1      48.740   6.108  15.141  0.00  0.00    +0.000 HD
BRANCH  20  23
ATOM     23  C   UNL     1      49.636   7.305  17.179  0.00  0.00    +0.000 A 
ATOM     24  C   UNL     1      49.420   8.675  17.250  0.00  0.00    +0.000 A 
ATOM     25  S   UNL     1      50.866   9.586  17.281  0.00  0.00    +0.000 S 
ATOM     26  C   UNL     1      51.822   8.183  17.146  0.00  0.00    +0.000 A 
ATOM     27  N   UNL     1      53.178   8.255  17.075  0.00  0.00    +0.000 NA
ATOM     28  C   UNL     1      53.764   7.111  16.939  0.00  0.00    +0.000 A 
ATOM     29  N   UNL     1      53.119   5.903  16.882  0.00  0.00    +0.000 N 
ATOM     30  C   UNL     1      51.761   5.779  16.996  0.00  0.00    +0.000 A 
ATOM     31  O   UNL     1      51.228   4.676  17.026  0.00  0.00    +0.000 OA
ATOM     32  C   UNL     1      51.046   7.035  17.115  0.00  0.00    +0.000 A 
ATOM     33  H   UNL     1      53.637   5.038  16.804  0.00  0.00    +0.000 HD
ENDBRANCH  20  23
ENDBRANCH   1  19
BRANCH   1  35
ATOM     34  C   UNL     1      47.864   2.762  17.231  0.00  0.00    +0.000 C 
ATOM     35  C   UNL     1      47.794   3.297  15.809  0.00  0.00    +0.000 C 
ENDBRANCH   1  35
TORSDOF 7
ENDMDL
MODEL 7
REMARK VINA RESULT:    -6.899      2.225      3.639
REMARK INTER + INTRA:         -11.163
REMARK INTER:                  -9.775
REMARK INTRA:                  -1.388
REMARK UNBOUND:                -1.440
REMARK  Name = 
REMARK  8 active torsions:
REMARK  status: ('A' for Active; 'I' for Inactive)
REMARK    1  A    between atoms: C_1  and  C_2
REMARK    2  A    between atoms: C_2  and  C_3
REMARK    3  A    between atoms: C_3  and  N_4
REMARK    4  A    between atoms: C_3  and  C_17
REMARK    5  A    between atoms: C_5  and  C_7
REMARK    6  A    between atoms: C_20  and  C_21
REMARK    7  A    between atoms: C_21  and  N_22
REMARK    8  A    between atoms: C_23  and  C_25
REMARK                            x       y       z     vdW  Elec       q    Type
REMARK                         _______ _______ _______ _____ _____    ______ ____
ROOT
ATOM      1  C   UNL     1      47.333   4.756  15.746  0.00  0.00    +0.000 C 
ENDROOT
BRANCH   1   2
ATOM      2  C   UNL     1      46.722   5.037  14.370  0.00  0.00    +0.000 A 
ATOM      3  C   UNL     1      45.533   4.413  13.968  0.00  0.00    +0.000 A 
ATOM      4  C   UNL     1      44.980   4.666  12.702  0.00  0.00    +0.000 A 
ATOM      5  C   UNL     1      45.602   5.545  11.805  0.00  0.00    +0.000 A 
ATOM      6  C   UNL     1      46.779   6.186  12.213  0.00  0.00    +0.000 A 
ATOM      7  C   UNL     1      47.331   5.935  13.475  0.00  0.00    +0.000 A 
BRANCH   5   8
ATOM      8  C   UNL     1      45.035   5.782  10.426  0.00  0.00    +0.000 C 
BRANCH   8   9
ATOM      9  N   UNL     1      45.661   4.973   9.409  0.00  0.00    +0.000 N 
ATOM     10  C   UNL     1      45.169   3.727   9.073  0.00  0.00    +0.000 C 
ATOM     11  O   UNL     1      44.184   3.222   9.600  0.00  0.00    +0.000 OA
ATOM     12  H   UNL     1      46.426   5.337   8.849  0.00  0.00    +0.000 HD
BRANCH  10  13
ATOM     13  C   UNL     1      45.934   3.003   8.000  0.00  0.00    +0.000 A 
ATOM     14  C   UNL     1      46.253   3.652   6.812  0.00  0.00    +0.000 A 
ATOM     15  C   UNL     1      46.949   2.941   5.836  0.00  0.00    +0.000 A 
ATOM     16  C   UNL     1      47.295   1.616   6.076  0.00  0.00    +0.000 A 
ATOM     17  C   UNL     1      46.936   1.050   7.292  0.00  0.00    +0.000 A 
ATOM     18  N   UNL     1      46.269   1.708   8.267  0.00  0.00    +0.000 NA
ENDBRANCH  10  13
ENDBRANCH   8   9
ENDBRANCH   5   8
ENDBRANCH   1   2
BRANCH   1  19
ATOM     19  N   UNL     1      48.405   5.717  15.976  0.00  0.00    +0.000 N 
ATOM     20  C   UNL     1      48.590   6.422  17.137  0.00  0.00    +0.000 C 
ATOM     21  O   UNL     1      47.912   6.258  18.148  0.00  0.00    +0.000 OA
ATOM     22  H   UNL     1      48.817   6.092  15.129  0.00  0.00    +0.000 HD
BRANCH  20  23
ATOM     23  C   UNL     1      49.721   7.354  17.124  0.00  0.00    +0.000 A 
ATOM     24  C   UNL     1      50.859   7.106  17.879  0.00  0.00    +0.000 A 
ATOM     25  S   UNL     1      52.062   8.307  17.703  0.00  0.00    +0.000 S 
ATOM     26  C   UNL     1      51.078   9.221  16.655  0.00  0.00    +0.000 A 
ATOM     27  N   UNL     1      51.495  10.415  16.154  0.00  0.00    +0.000 NA
ATOM     28  C   UNL     1      50.626  11.008  15.403  0.00  0.00    +0.000 A 
ATOM     29  N   UNL     1      49.387  10.511  15.096  0.00  0.00    +0.000 N 
ATOM     30  C   UNL     1      48.944   9.294  15.538  0.00  0.00    +0.000 A 
ATOM     31  O   UNL     1      47.864   8.844  15.174  0.00  0.00    +0.000 OA
ATOM     32  C   UNL     1      49.863   8.597  16.417  0.00  0.00    +0.000 A 
ATOM     33  H   UNL     1      48.762  11.010  14.478  0.00  0.00    +0.000 HD
ENDBRANCH  20  23
ENDBRANCH   1  19
BRANCH   1  35
ATOM     34  C   UNL     1      48.230   2.904  17.278  0.00  0.00    +0.000 C 
ATOM     35  C   UNL     1      47.858   3.313  15.861  0.00  0.00    +0.000 C 
ENDBRANCH   1  35
TORSDOF 7
ENDMDL
MODEL 8
REMARK VINA RESULT:    -6.888      3.570      8.660
REMARK INTER + INTRA:         -11.147
REMARK INTER:                  -9.823
REMARK INTRA:                  -1.324
REMARK UNBOUND:                -1.440
REMARK  Name = 
REMARK  8 active torsions:
REMARK  status: ('A' for Active; 'I' for Inactive)
REMARK    1  A    between atoms: C_1  and  C_2
REMARK    2  A    between atoms: C_2  and  C_3
REMARK    3  A    between atoms: C_3  and  N_4
REMARK    4  A    between atoms: C_3  and  C_17
REMARK    5  A    between atoms: C_5  and  C_7
REMARK    6  A    between atoms: C_20  and  C_21
REMARK    7  A    between atoms: C_21  and  N_22
REMARK    8  A    between atoms: C_23  and  C_25
REMARK                            x       y       z     vdW  Elec       q    Type
REMARK                         _______ _______ _______ _____ _____    ______ ____
ROOT
ATOM      1  C   UNL     1      47.755   8.140  12.514  0.00  0.00    +0.000 C 
ENDROOT
BRANCH   1   2
ATOM      2  C   UNL     1      48.203   7.660  13.898  0.00  0.00    +0.000 A 
ATOM      3  C   UNL     1      48.017   6.329  14.295  0.00  0.00    +0.000 A 
ATOM      4  C   UNL     1      48.421   5.895  15.568  0.00  0.00    +0.000 A 
ATOM      5  C   UNL     1      49.015   6.779  16.478  0.00  0.00    +0.000 A 
ATOM      6  C   UNL     1      49.220   8.106  16.076  0.00  0.00    +0.000 A 
ATOM      7  C   UNL     1      48.818   8.540  14.806  0.00  0.00    +0.000 A 
BRANCH   5   8
ATOM      8  C   UNL     1      49.405   6.327  17.864  0.00  0.00    +0.000 C 
BRANCH   8   9
ATOM      9  N   UNL     1      50.430   5.311  17.862  0.00  0.00    +0.000 N 
ATOM     10  C   UNL     1      50.118   3.970  17.963  0.00  0.00    +0.000 C 
ATOM     11  O   UNL     1      48.971   3.546  18.061  0.00  0.00    +0.000 OA
ATOM     12  H   UNL     1      51.402   5.551  17.694  0.00  0.00    +0.000 HD
BRANCH  10  13
ATOM     13  C   UNL     1      51.295   3.035  17.954  0.00  0.00    +0.000 A 
ATOM     14  C   UNL     1      51.187   1.784  17.354  0.00  0.00    +0.000 A 
ATOM     15  C   UNL     1      52.295   0.940  17.380  0.00  0.00    +0.000 A 
ATOM     16  C   UNL     1      53.462   1.367  18.004  0.00  0.00    +0.000 A 
ATOM     17  C   UNL     1      53.479   2.632  18.576  0.00  0.00    +0.000 A 
ATOM     18  N   UNL     1      52.429   3.484  18.565  0.00  0.00    +0.000 NA
ENDBRANCH  10  13
ENDBRANCH   8   9
ENDBRANCH   5   8
ENDBRANCH   1   2
BRANCH   1  19
ATOM     19  N   UNL     1      47.123   7.023  11.825  0.00  0.00    +0.000 N 
ATOM     20  C   UNL     1      45.830   7.014  11.368  0.00  0.00    +0.000 C 
ATOM     21  O   UNL     1      45.084   7.989  11.420  0.00  0.00    +0.000 OA
ATOM     22  H   UNL     1      47.568   6.126  11.987  0.00  0.00    +0.000 HD
BRANCH  20  23
ATOM     23  C   UNL     1      45.404   5.765  10.732  0.00  0.00    +0.000 A 
ATOM     24  C   UNL     1      45.644   5.533   9.384  0.00  0.00    +0.000 A 
ATOM     25  S   UNL     1      45.084   4.009   8.851  0.00  0.00    +0.000 S 
ATOM     26  C   UNL     1      44.459   3.635  10.390  0.00  0.00    +0.000 A 
ATOM     27  N   UNL     1      43.800   2.468  10.622  0.00  0.00    +0.000 NA
ATOM     28  C   UNL     1      43.352   2.342  11.828  0.00  0.00    +0.000 A 
ATOM     29  N   UNL     1      43.516   3.267  12.825  0.00  0.00    +0.000 N 
ATOM     30  C   UNL     1      44.212   4.433  12.650  0.00  0.00    +0.000 A 
ATOM     31  O   UNL     1      44.410   5.197  13.588  0.00  0.00    +0.000 OA
ATOM     32  C   UNL     1      44.707   4.647  11.305  0.00  0.00    +0.000 A 
ATOM     33  H   UNL     1      43.167   3.097  13.758  0.00  0.00    +0.000 HD
ENDBRANCH  20  23
ENDBRANCH   1  19
BRANCH   1  35
ATOM     34  C   UNL     1      50.051   7.696  11.457  0.00  0.00    +0.000 C 
ATOM     35  C   UNL     1      48.930   8.697  11.688  0.00  0.00    +0.000 C 
ENDBRANCH   1  35
TORSDOF 7
ENDMDL
MODEL 9
REMARK VINA RESULT:    -6.834      3.364      5.354
REMARK INTER + INTRA:         -11.071
REMARK INTER:                  -9.762
REMARK INTRA:                  -1.309
REMARK UNBOUND:                -1.440
REMARK  Name = 
REMARK  8 active torsions:
REMARK  status: ('A' for Active; 'I' for Inactive)
REMARK    1  A    between atoms: C_1  and  C_2
REMARK    2  A    between atoms: C_2  and  C_3
REMARK    3  A    between atoms: C_3  and  N_4
REMARK    4  A    between atoms: C_3  and  C_17
REMARK    5  A    between atoms: C_5  and  C_7
REMARK    6  A    between atoms: C_20  and  C_21
REMARK    7  A    between atoms: C_21  and  N_22
REMARK    8  A    between atoms: C_23  and  C_25
REMARK                            x       y       z     vdW  Elec       q    Type
REMARK                         _______ _______ _______ _____ _____    ______ ____
ROOT
ATOM      1  C   UNL     1      48.563   6.856  15.135  0.00  0.00    +0.000 C 
ENDROOT
BRANCH   1   2
ATOM      2  C   UNL     1      47.616   6.463  13.997  0.00  0.00    +0.000 A 
ATOM      3  C   UNL     1      47.344   7.350  12.946  0.00  0.00    +0.000 A 
ATOM      4  C   UNL     1      46.469   6.991  11.908  0.00  0.00    +0.000 A 
ATOM      5  C   UNL     1      45.839   5.739  11.896  0.00  0.00    +0.000 A 
ATOM      6  C   UNL     1      46.125   4.843  12.935  0.00  0.00    +0.000 A 
ATOM      7  C   UNL     1      46.999   5.200  13.970  0.00  0.00    +0.000 A 
BRANCH   5   8
ATOM      8  C   UNL     1      44.861   5.368  10.808  0.00  0.00    +0.000 C 
BRANCH   8   9
ATOM      9  N   UNL     1      45.474   4.657   9.713  0.00  0.00    +0.000 N 
ATOM     10  C   UNL     1      45.144   3.347   9.427  0.00  0.00    +0.000 C 
ATOM     11  O   UNL     1      44.322   2.700  10.068  0.00  0.00    +0.000 OA
ATOM     12  H   UNL     1      46.098   5.131   9.067  0.00  0.00    +0.000 HD
BRANCH  10  13
ATOM     13  C   UNL     1      45.872   2.741   8.261  0.00  0.00    +0.000 A 
ATOM     14  C   UNL     1      46.119   3.500   7.121  0.00  0.00    +0.000 A 
ATOM     15  C   UNL     1      46.783   2.897   6.055  0.00  0.00    +0.000 A 
ATOM     16  C   UNL     1      47.171   1.566   6.161  0.00  0.00    +0.000 A 
ATOM     17  C   UNL     1      46.884   0.886   7.337  0.00  0.00    +0.000 A 
ATOM     18  N   UNL     1      46.250   1.437   8.396  0.00  0.00    +0.000 NA
ENDBRANCH  10  13
ENDBRANCH   8   9
ENDBRANCH   5   8
ENDBRANCH   1   2
BRANCH   1  19
ATOM     19  N   UNL     1      49.885   7.092  14.570  0.00  0.00    +0.000 N 
ATOM     20  C   UNL     1      50.558   8.286  14.623  0.00  0.00    +0.000 C 
ATOM     21  O   UNL     1      50.148   9.271  15.230  0.00  0.00    +0.000 OA
ATOM     22  H   UNL     1      50.152   6.435  13.846  0.00  0.00    +0.000 HD
BRANCH  20  23
ATOM     23  C   UNL     1      51.863   8.292  13.957  0.00  0.00    +0.000 A 
ATOM     24  C   UNL     1      53.026   8.013  14.663  0.00  0.00    +0.000 A 
ATOM     25  S   UNL     1      54.432   8.055  13.693  0.00  0.00    +0.000 S 
ATOM     26  C   UNL     1      53.538   8.498  12.314  0.00  0.00    +0.000 A 
ATOM     27  N   UNL     1      54.147   8.739  11.122  0.00  0.00    +0.000 NA
ATOM     28  C   UNL     1      53.342   9.101  10.177  0.00  0.00    +0.000 A 
ATOM     29  N   UNL     1      51.985   9.230  10.311  0.00  0.00    +0.000 N 
ATOM     30  C   UNL     1      51.324   8.954  11.478  0.00  0.00    +0.000 A 
ATOM     31  O   UNL     1      50.100   8.999  11.536  0.00  0.00    +0.000 OA
ATOM     32  C   UNL     1      52.180   8.578  12.585  0.00  0.00    +0.000 A 
ATOM     33  H   UNL     1      51.405   9.489   9.526  0.00  0.00    +0.000 HD
ENDBRANCH  20  23
ENDBRANCH   1  19
BRANCH   1  35
ATOM     34  C   UNL     1      49.236   6.263  17.539  0.00  0.00    +0.000 C 
ATOM     35  C   UNL     1      48.622   5.779  16.234  0.00  0.00    +0.000 C 
ENDBRANCH   1  35
TORSDOF 7
ENDMDL
