MODEL 1
REMARK VINA RESULT:    -7.363      0.000      0.000
REMARK INTER + INTRA:         -10.589
REMARK INTER:                  -9.946
REMARK INTRA:                  -0.643
REMARK UNBOUND:                -0.643
REMARK  Name = 
REMARK  6 active torsions:
REMARK  status: ('A' for Active; 'I' for Inactive)
REMARK    1  A    between atoms: C_5  and  O_6
REMARK    2  A    between atoms: O_6  and  C_7
REMARK    3  A    between atoms: C_7  and  C_8
REMARK    4  A    between atoms: C_8  and  C_9
REMARK    5  A    between atoms: C_13  and  O_14
REMARK    6  A    between atoms: O_14  and  C_15
REMARK                            x       y       z     vdW  Elec       q    Type
REMARK                         _______ _______ _______ _____ _____    ______ ____
ROOT
ATOM      1  C   UNL     1      45.473   4.273  12.710  0.00  0.00    +0.000 A 
ATOM      2  C   UNL     1      45.739   5.370  11.892  0.00  0.00    +0.000 A 
ATOM      3  N   UNL     1      46.681   6.298  12.195  0.00  0.00    +0.000 NA
ATOM      4  C   UNL     1      47.356   6.077  13.349  0.00  0.00    +0.000 A 
ATOM      5  C   UNL     1      47.095   4.994  14.171  0.00  0.00    +0.000 A 
ATOM      6  N   UNL     1      46.151   4.075  13.875  0.00  0.00    +0.000 NA
ENDROOT
BRANCH   1   7
ATOM      7  C   UNL     1      44.414   3.278  12.309  0.00  0.00    +0.000 C 
BRANCH   7   8
ATOM      8  C   UNL     1      43.709   3.684  11.019  0.00  0.00    +0.000 C 
BRANCH   8   9
ATOM      9  O   UNL     1      43.791   2.622  10.065  0.00  0.00    +0.000 OA
BRANCH   9  14
ATOM     10  C   UNL     1      46.575   2.036   7.689  0.00  0.00    +0.000 A 
ATOM     11  C   UNL     1      46.675   3.336   7.227  0.00  0.00    +0.000 A 
ATOM     12  N   UNL     1      45.887   4.344   7.656  0.00  0.00    +0.000 NA
ATOM     13  C   UNL     1      44.959   4.029   8.593  0.00  0.00    +0.000 A 
ATOM     14  C   UNL     1      44.776   2.757   9.126  0.00  0.00    +0.000 A 
ATOM     15  C   UNL     1      45.612   1.745   8.653  0.00  0.00    +0.000 A 
ENDBRANCH   9  14
ENDBRANCH   8   9
ENDBRANCH   7   8
ENDBRANCH   1   7
BRANCH   5  16
ATOM     16  O   UNL     1      47.850   4.835  15.314  0.00  0.00    +0.000 OA
BRANCH  16  17
ATOM     17  C   UNL     1      47.268   3.989  16.333  0.00  0.00    +0.000 C 
ATOM     18  C   UNL     1      47.243   4.585  17.761  0.00  0.00    +0.000 C 
ATOM     19  N   UNL     1      47.560   3.244  18.305  0.00  0.00    +0.000 NA
ATOM     20  C   UNL     1      48.138   2.889  16.984  0.00  0.00    +0.000 C 
ATOM     21  H   UNL     1      46.727   2.703  18.543  0.00  0.00    +0.000 HD
ENDBRANCH  16  17
ENDBRANCH   5  16
TORSDOF 6
ENDMDL
MODEL 2
REMARK VINA RESULT:    -6.866      2.122      7.554
REMARK INTER + INTRA:          -9.917
REMARK INTER:                  -9.379
REMARK INTRA:                  -0.538
REMARK UNBOUND:                -0.643
REMARK  Name = 
REMARK  6 active torsions:
REMARK  status: ('A' for Active; 'I' for Inactive)
REMARK    1  A    between atoms: C_5  and  O_6
REMARK    2  A    between atoms: O_6  and  C_7
REMARK    3  A    between atoms: C_7  and  C_8
REMARK    4  A    between atoms: C_8  and  C_9
REMARK    5  A    between atoms: C_13  and  O_14
REMARK    6  A    between atoms: O_14  and  C_15
REMARK                            x       y       z     vdW  Elec       q    Type
REMARK                         _______ _______ _______ _____ _____    ______ ____
ROOT
ATOM      1  C   UNL     1      45.238   5.038  10.146  0.00  0.00    +0.000 A 
ATOM      2  C   UNL     1      44.600   4.076  10.928  0.00  0.00    +0.000 A 
ATOM      3  N   UNL     1      44.268   2.850  10.454  0.00  0.00    +0.000 NA
ATOM      4  C   UNL     1      44.610   2.619   9.164  0.00  0.00    +0.000 A 
ATOM      5  C   UNL     1      45.240   3.569   8.377  0.00  0.00    +0.000 A 
ATOM      6  N   UNL     1      45.562   4.794   8.846  0.00  0.00    +0.000 NA
ENDROOT
BRANCH   1   7
ATOM      7  C   UNL     1      45.581   6.380  10.740  0.00  0.00    +0.000 C 
BRANCH   7   8
ATOM      8  C   UNL     1      45.785   6.302  12.249  0.00  0.00    +0.000 C 
BRANCH   8   9
ATOM      9  O   UNL     1      47.172   6.118  12.544  0.00  0.00    +0.000 OA
BRANCH   9  14
ATOM     10  C   UNL     1      47.280   4.187  15.706  0.00  0.00    +0.000 A 
ATOM     11  C   UNL     1      48.187   4.998  16.365  0.00  0.00    +0.000 A 
ATOM     12  N   UNL     1      48.734   6.103  15.817  0.00  0.00    +0.000 NA
ATOM     13  C   UNL     1      48.349   6.407  14.554  0.00  0.00    +0.000 A 
ATOM     14  C   UNL     1      47.445   5.662  13.804  0.00  0.00    +0.000 A 
ATOM     15  C   UNL     1      46.904   4.526  14.408  0.00  0.00    +0.000 A 
ENDBRANCH   9  14
ENDBRANCH   8   9
ENDBRANCH   7   8
ENDBRANCH   1   7
BRANCH   5  16
ATOM     16  O   UNL     1      45.574   3.238   7.081  0.00  0.00    +0.000 OA
BRANCH  16  17
ATOM     17  C   UNL     1      46.986   3.048   6.831  0.00  0.00    +0.000 C 
ATOM     18  C   UNL     1      47.373   2.788   5.355  0.00  0.00    +0.000 C 
ATOM     19  N   UNL     1      48.388   1.812   5.814  0.00  0.00    +0.000 NA
ATOM     20  C   UNL     1      47.611   1.654   7.069  0.00  0.00    +0.000 C 
ATOM     21  H   UNL     1      49.309   2.229   5.956  0.00  0.00    +0.000 HD
ENDBRANCH  16  17
ENDBRANCH   5  16
TORSDOF 6
ENDMDL
MODEL 3
REMARK VINA RESULT:    -6.744      2.346      3.560
REMARK INTER + INTRA:          -9.752
REMARK INTER:                  -9.188
REMARK INTRA:                  -0.564
REMARK UNBOUND:                -0.643
REMARK  Name = 
REMARK  6 active torsions:
REMARK  status: ('A' for Active; 'I' for Inactive)
REMARK    1  A    between atoms: C_5  and  O_6
REMARK    2  A    between atoms: O_6  and  C_7
REMARK    3  A    between atoms: C_7  and  C_8
REMARK    4  A    between atoms: C_8  and  C_9
REMARK    5  A    between atoms: C_13  and  O_14
REMARK    6  A    between atoms: O_14  and  C_15
REMARK                            x       y       z     vdW  Elec       q    Type
REMARK                         _______ _______ _______ _____ _____    ______ ____
ROOT
ATOM      1  C   UNL     1      44.923   5.038  11.657  0.00  0.00    +0.000 A 
ATOM      2  C   UNL     1      45.016   3.972  12.550  0.00  0.00    +0.000 A 
ATOM      3  N   UNL     1      45.917   3.942  13.563  0.00  0.00    +0.000 NA
ATOM      4  C   UNL     1      46.718   5.030  13.653  0.00  0.00    +0.000 A 
ATOM      5  C   UNL     1      46.638   6.092  12.768  0.00  0.00    +0.000 A 
ATOM      6  N   UNL     1      45.748   6.118  11.753  0.00  0.00    +0.000 NA
ENDROOT
BRANCH   1   7
ATOM      7  C   UNL     1      43.895   5.007  10.555  0.00  0.00    +0.000 C 
BRANCH   7   8
ATOM      8  C   UNL     1      44.103   3.825   9.614  0.00  0.00    +0.000 C 
BRANCH   8   9
ATOM      9  O   UNL     1      44.852   4.239   8.469  0.00  0.00    +0.000 OA
BRANCH   9  14
ATOM     10  C   UNL     1      47.365   2.401   6.456  0.00  0.00    +0.000 A 
ATOM     11  C   UNL     1      47.253   1.191   7.116  0.00  0.00    +0.000 A 
ATOM     12  N   UNL     1      46.416   0.981   8.153  0.00  0.00    +0.000 NA
ATOM     13  C   UNL     1      45.657   2.035   8.541  0.00  0.00    +0.000 A 
ATOM     14  C   UNL     1      45.689   3.292   7.947  0.00  0.00    +0.000 A 
ATOM     15  C   UNL     1      46.570   3.465   6.878  0.00  0.00    +0.000 A 
ENDBRANCH   9  14
ENDBRANCH   8   9
ENDBRANCH   7   8
ENDBRANCH   1   7
BRANCH   5  16
ATOM     16  O   UNL     1      47.477   7.171  12.952  0.00  0.00    +0.000 OA
BRANCH  16  17
ATOM     17  C   UNL     1      48.887   6.902  12.772  0.00  0.00    +0.000 C 
ATOM     18  C   UNL     1      49.817   7.439  13.886  0.00  0.00    +0.000 C 
ATOM     19  N   UNL     1      50.818   7.791  12.853  0.00  0.00    +0.000 NA
ATOM     20  C   UNL     1      49.718   7.830  11.857  0.00  0.00    +0.000 C 
ATOM     21  H   UNL     1      51.495   7.046  12.682  0.00  0.00    +0.000 HD
ENDBRANCH  16  17
ENDBRANCH   5  16
TORSDOF 6
ENDMDL
MODEL 4
REMARK VINA RESULT:    -6.512      2.315      4.268
REMARK INTER + INTRA:          -9.439
REMARK INTER:                  -8.725
REMARK INTRA:                  -0.714
REMARK UNBOUND:                -0.643
REMARK  Name = 
REMARK  6 active torsions:
REMARK  status: ('A' for Active; 'I' for Inactive)
REMARK    1  A    between atoms: C_5  and  O_6
REMARK    2  A    between atoms: O_6  and  C_7
REMARK    3  A    between atoms: C_7  and  C_8
REMARK    4  A    between atoms: C_8  and  C_9
REMARK    5  A    between atoms: C_13  and  O_14
REMARK    6  A    between atoms: O_14  and  C_15
REMARK                            x       y       z     vdW  Elec       q    Type
REMARK                         _______ _______ _______ _____ _____    ______ ____
ROOT
ATOM      1  C   UNL     1      45.653   4.320  12.580  0.00  0.00    +0.000 A 
ATOM      2  C   UNL     1      46.620   4.048  13.546  0.00  0.00    +0.000 A 
ATOM      3  N   UNL     1      47.536   4.965  13.945  0.00  0.00    +0.000 NA
ATOM      4  C   UNL     1      47.438   6.175  13.343  0.00  0.00    +0.000 A 
ATOM      5  C   UNL     1      46.485   6.454  12.378  0.00  0.00    +0.000 A 
ATOM      6  N   UNL     1      45.580   5.538  11.973  0.00  0.00    +0.000 NA
ENDROOT
BRANCH   1   7
ATOM      7  C   UNL     1      44.664   3.253  12.187  0.00  0.00    +0.000 C 
BRANCH   7   8
ATOM      8  C   UNL     1      43.801   3.682  11.005  0.00  0.00    +0.000 C 
BRANCH   8   9
ATOM      9  O   UNL     1      43.838   2.681   9.985  0.00  0.00    +0.000 OA
BRANCH   9  14
ATOM     10  C   UNL     1      46.319   3.978   7.556  0.00  0.00    +0.000 A 
ATOM     11  C   UNL     1      46.919   2.765   7.268  0.00  0.00    +0.000 A 
ATOM     12  N   UNL     1      46.545   1.596   7.829  0.00  0.00    +0.000 NA
ATOM     13  C   UNL     1      45.522   1.650   8.715  0.00  0.00    +0.000 A 
ATOM     14  C   UNL     1      44.849   2.814   9.074  0.00  0.00    +0.000 A 
ATOM     15  C   UNL     1      45.269   4.000   8.471  0.00  0.00    +0.000 A 
ENDBRANCH   9  14
ENDBRANCH   8   9
ENDBRANCH   7   8
ENDBRANCH   1   7
BRANCH   5  16
ATOM     16  O   UNL     1      46.444   7.722  11.837  0.00  0.00    +0.000 OA
BRANCH  16  17
ATOM     17  C   UNL     1      45.344   8.552  12.276  0.00  0.00    +0.000 C 
ATOM     18  C   UNL     1      44.204   8.748  11.249  0.00  0.00    +0.000 C 
ATOM     19  N   UNL     1      44.076  10.156  11.690  0.00  0.00    +0.000 NA
ATOM     20  C   UNL     1      45.477  10.089  12.177  0.00  0.00    +0.000 C 
ATOM     21  H   UNL     1      43.391  10.281  12.436  0.00  0.00    +0.000 HD
ENDBRANCH  16  17
ENDBRANCH   5  16
TORSDOF 6
ENDMDL
MODEL 5
REMARK VINA RESULT:    -6.491      2.425      6.882
REMARK INTER + INTRA:          -9.411
REMARK INTER:                  -8.821
REMARK INTRA:                  -0.590
REMARK UNBOUND:                -0.643
REMARK  Name = 
REMARK  6 active torsions:
REMARK  status: ('A' for Active; 'I' for Inactive)
REMARK    1  A    between atoms: C_5  and  O_6
REMARK    2  A    between atoms: O_6  and  C_7
REMARK    3  A    between atoms: C_7  and  C_8
REMARK    4  A    between atoms: C_8  and  C_9
REMARK    5  A    between atoms: C_13  and  O_14
REMARK    6  A    between atoms: O_14  and  C_15
REMARK                            x       y       z     vdW  Elec       q    Type
REMARK                         _______ _______ _______ _____ _____    ______ ____
ROOT
ATOM      1  C   UNL     1      44.080   3.170  10.707  0.00  0.00    +0.000 A 
ATOM      2  C   UNL     1      43.666   4.383  10.159  0.00  0.00    +0.000 A 
ATOM      3  N   UNL     1      44.026   4.785   8.915  0.00  0.00    +0.000 NA
ATOM      4  C   UNL     1      44.812   3.917   8.235  0.00  0.00    +0.000 A 
ATOM      5  C   UNL     1      45.234   2.712   8.772  0.00  0.00    +0.000 A 
ATOM      6  N   UNL     1      44.884   2.316  10.015  0.00  0.00    +0.000 NA
ENDROOT
BRANCH   1   7
ATOM      7  C   UNL     1      43.639   2.786  12.096  0.00  0.00    +0.000 C 
BRANCH   7   8
ATOM      8  C   UNL     1      43.555   3.993  13.023  0.00  0.00    +0.000 C 
BRANCH   8   9
ATOM      9  O   UNL     1      44.742   4.083  13.816  0.00  0.00    +0.000 OA
BRANCH   9  14
ATOM     10  C   UNL     1      46.335   7.162  12.505  0.00  0.00    +0.000 A 
ATOM     11  C   UNL     1      47.644   6.791  12.755  0.00  0.00    +0.000 A 
ATOM     12  N   UNL     1      47.992   5.615  13.318  0.00  0.00    +0.000 NA
ATOM     13  C   UNL     1      46.978   4.775  13.640  0.00  0.00    +0.000 A 
ATOM     14  C   UNL     1      45.630   5.048  13.430  0.00  0.00    +0.000 A 
ATOM     15  C   UNL     1      45.315   6.276  12.847  0.00  0.00    +0.000 A 
ENDBRANCH   9  14
ENDBRANCH   8   9
ENDBRANCH   7   8
ENDBRANCH   1   7
BRANCH   5  16
ATOM     16  O   UNL     1      46.012   1.878   7.997  0.00  0.00    +0.000 OA
BRANCH  16  17
ATOM     17  C   UNL     1      47.032   2.533   7.207  0.00  0.00    +0.000 C 
ATOM     18  C   UNL     1      46.807   2.513   5.677  0.00  0.00    +0.000 C 
ATOM     19  N   UNL     1      48.262   2.312   5.486  0.00  0.00    +0.000 NA
ATOM     20  C   UNL     1      48.327   1.762   6.863  0.00  0.00    +0.000 C 
ATOM     21  H   UNL     1      48.775   3.188   5.374  0.00  0.00    +0.000 HD
ENDBRANCH  16  17
ENDBRANCH   5  16
TORSDOF 6
ENDMDL
MODEL 6
REMARK VINA RESULT:    -6.038      1.665      7.459
REMARK INTER + INTRA:          -8.798
REMARK INTER:                  -8.332
REMARK INTRA:                  -0.466
REMARK UNBOUND:                -0.643
REMARK  Name = 
REMARK  6 active torsions:
REMARK  status: ('A' for Active; 'I' for Inactive)
REMARK    1  A    between atoms: C_5  and  O_6
REMARK    2  A    between atoms: O_6  and  C_7
REMARK    3  A    between atoms: C_7  and  C_8
REMARK    4  A    between atoms: C_8  and  C_9
REMARK    5  A    between atoms: C_13  and  O_14
REMARK    6  A    between atoms: O_14  and  C_15
REMARK                            x       y       z     vdW  Elec       q    Type
REMARK                         _______ _______ _______ _____ _____    ______ ____
ROOT
ATOM      1  C   UNL     1      45.118   4.949  12.740  0.00  0.00    +0.000 A 
ATOM      2  C   UNL     1      43.897   5.573  12.992  0.00  0.00    +0.000 A 
ATOM      3  N   UNL     1      42.781   5.319  12.265  0.00  0.00    +0.000 NA
ATOM      4  C   UNL     1      42.933   4.403  11.278  0.00  0.00    +0.000 A 
ATOM      5  C   UNL     1      44.143   3.782  11.016  0.00  0.00    +0.000 A 
ATOM      6  N   UNL     1      45.257   4.042  11.733  0.00  0.00    +0.000 NA
ENDROOT
BRANCH   1   7
ATOM      7  C   UNL     1      46.318   5.278  13.590  0.00  0.00    +0.000 C 
BRANCH   7   8
ATOM      8  C   UNL     1      46.976   4.025  14.159  0.00  0.00    +0.000 C 
BRANCH   8   9
ATOM      9  O   UNL     1      46.772   3.966  15.572  0.00  0.00    +0.000 OA
BRANCH   9  14
ATOM     10  C   UNL     1      49.692   2.517  17.336  0.00  0.00    +0.000 A 
ATOM     11  C   UNL     1      50.171   3.702  17.866  0.00  0.00    +0.000 A 
ATOM     12  N   UNL     1      49.585   4.900  17.663  0.00  0.00    +0.000 NA
ATOM     13  C   UNL     1      48.468   4.905  16.896  0.00  0.00    +0.000 A 
ATOM     14  C   UNL     1      47.903   3.773  16.317  0.00  0.00    +0.000 A 
ATOM     15  C   UNL     1      48.541   2.555  16.552  0.00  0.00    +0.000 A 
ENDBRANCH   9  14
ENDBRANCH   8   9
ENDBRANCH   7   8
ENDBRANCH   1   7
BRANCH   5  16
ATOM     16  O   UNL     1      44.198   2.843  10.008  0.00  0.00    +0.000 OA
BRANCH  16  17
ATOM     17  C   UNL     1      45.411   2.847   9.218  0.00  0.00    +0.000 C 
ATOM     18  C   UNL     1      45.291   3.490   7.816  0.00  0.00    +0.000 C 
ATOM     19  N   UNL     1      46.186   2.439   7.279  0.00  0.00    +0.000 NA
ATOM     20  C   UNL     1      45.794   1.578   8.424  0.00  0.00    +0.000 C 
ATOM     21  H   UNL     1      47.171   2.708   7.292  0.00  0.00    +0.000 HD
ENDBRANCH  16  17
ENDBRANCH   5  16
TORSDOF 6
ENDMDL
MODEL 7
REMARK VINA RESULT:    -5.875      2.905      3.903
REMARK INTER + INTRA:          -8.578
REMARK INTER:                  -7.800
REMARK INTRA:                  -0.779
REMARK UNBOUND:                -0.643
REMARK  Name = 
REMARK  6 active torsions:
REMARK  status: ('A' for Active; 'I' for Inactive)
REMARK    1  A    between atoms: C_5  and  O_6
REMARK    2  A    between atoms: O_6  and  C_7
REMARK    3  A    between atoms: C_7  and  C_8
REMARK    4  A    between atoms: C_8  and  C_9
REMARK    5  A    between atoms: C_13  and  O_14
REMARK    6  A    between atoms: O_14  and  C_15
REMARK                            x       y       z     vdW  Elec       q    Type
REMARK                         _______ _______ _______ _____ _____    ______ ____
ROOT
ATOM      1  C   UNL     1      47.982   7.071  13.343  0.00  0.00    +0.000 A 
ATOM      2  C   UNL     1      48.528   8.313  13.665  0.00  0.00    +0.000 A 
ATOM      3  N   UNL     1      49.182   8.545  14.829  0.00  0.00    +0.000 NA
ATOM      4  C   UNL     1      49.279   7.479  15.659  0.00  0.00    +0.000 A 
ATOM      5  C   UNL     1      48.736   6.243  15.351  0.00  0.00    +0.000 A 
ATOM      6  N   UNL     1      48.075   6.013  14.196  0.00  0.00    +0.000 NA
ENDROOT
BRANCH   1   7
ATOM      7  C   UNL     1      47.270   6.882  12.029  0.00  0.00    +0.000 C 
BRANCH   7   8
ATOM      8  C   UNL     1      45.917   7.585  12.007  0.00  0.00    +0.000 C 
BRANCH   8   9
ATOM      9  O   UNL     1      45.010   6.924  12.893  0.00  0.00    +0.000 OA
BRANCH   9  14
ATOM     10  C   UNL     1      43.364   4.304  10.853  0.00  0.00    +0.000 A 
ATOM     11  C   UNL     1      43.523   3.267  11.755  0.00  0.00    +0.000 A 
ATOM     12  N   UNL     1      44.130   3.406  12.952  0.00  0.00    +0.000 NA
ATOM     13  C   UNL     1      44.594   4.643  13.255  0.00  0.00    +0.000 A 
ATOM     14  C   UNL     1      44.485   5.753  12.423  0.00  0.00    +0.000 A 
ATOM     15  C   UNL     1      43.851   5.564  11.195  0.00  0.00    +0.000 A 
ENDBRANCH   9  14
ENDBRANCH   8   9
ENDBRANCH   7   8
ENDBRANCH   1   7
BRANCH   5  16
ATOM     16  O   UNL     1      48.904   5.206  16.245  0.00  0.00    +0.000 OA
BRANCH  16  17
ATOM     17  C   UNL     1      47.768   4.324  16.399  0.00  0.00    +0.000 C 
ATOM     18  C   UNL     1      47.039   4.406  17.761  0.00  0.00    +0.000 C 
ATOM     19  N   UNL     1      46.851   2.937  17.727  0.00  0.00    +0.000 NA
ATOM     20  C   UNL     1      48.010   2.851  16.802  0.00  0.00    +0.000 C 
ATOM     21  H   UNL     1      45.968   2.657  17.299  0.00  0.00    +0.000 HD
ENDBRANCH  16  17
ENDBRANCH   5  16
TORSDOF 6
ENDMDL
MODEL 8
REMARK VINA RESULT:    -5.647      2.904      7.821
REMARK INTER + INTRA:          -8.270
REMARK INTER:                  -7.747
REMARK INTRA:                  -0.523
REMARK UNBOUND:                -0.643
REMARK  Name = 
REMARK  6 active torsions:
REMARK  status: ('A' for Active; 'I' for Inactive)
REMARK    1  A    between atoms: C_5  and  O_6
REMARK    2  A    between atoms: O_6  and  C_7
REMARK    3  A    between atoms: C_7  and  C_8
REMARK    4  A    between atoms: C_8  and  C_9
REMARK    5  A    between atoms: C_13  and  O_14
REMARK    6  A    between atoms: O_14  and  C_15
REMARK                            x       y       z     vdW  Elec       q    Type
REMARK                         _______ _______ _______ _____ _____    ______ ____
ROOT
ATOM      1  C   UNL     1      47.249   4.468  15.488  0.00  0.00    +0.000 A 
ATOM      2  C   UNL     1      48.173   5.512  15.483  0.00  0.00    +0.000 A 
ATOM      3  N   UNL     1      48.292   6.380  14.448  0.00  0.00    +0.000 NA
ATOM      4  C   UNL     1      47.440   6.167  13.417  0.00  0.00    +0.000 A 
ATOM      5  C   UNL     1      46.522   5.130  13.409  0.00  0.00    +0.000 A 
ATOM      6  N   UNL     1      46.409   4.260  14.435  0.00  0.00    +0.000 NA
ENDROOT
BRANCH   1   7
ATOM      7  C   UNL     1      47.169   3.543  16.674  0.00  0.00    +0.000 C 
BRANCH   7   8
ATOM      8  C   UNL     1      48.486   3.482  17.441  0.00  0.00    +0.000 C 
BRANCH   8   9
ATOM      9  O   UNL     1      49.356   2.521  16.839  0.00  0.00    +0.000 OA
BRANCH   9  14
ATOM     10  C   UNL     1      52.678   3.536  18.132  0.00  0.00    +0.000 A 
ATOM     11  C   UNL     1      53.248   2.276  18.135  0.00  0.00    +0.000 A 
ATOM     12  N   UNL     1      52.596   1.162  17.743  0.00  0.00    +0.000 NA
ATOM     13  C   UNL     1      51.315   1.324  17.329  0.00  0.00    +0.000 A 
ATOM     14  C   UNL     1      50.648   2.544  17.286  0.00  0.00    +0.000 A 
ATOM     15  C   UNL     1      51.360   3.671  17.700  0.00  0.00    +0.000 A 
ENDBRANCH   9  14
ENDBRANCH   8   9
ENDBRANCH   7   8
ENDBRANCH   1   7
BRANCH   5  16
ATOM     16  O   UNL     1      45.676   5.005  12.328  0.00  0.00    +0.000 OA
BRANCH  16  17
ATOM     17  C   UNL     1      44.746   3.897  12.388  0.00  0.00    +0.000 C 
ATOM     18  C   UNL     1      44.383   3.257  11.027  0.00  0.00    +0.000 C 
ATOM     19  N   UNL     1      42.988   3.095  11.499  0.00  0.00    +0.000 NA
ATOM     20  C   UNL     1      43.231   4.192  12.470  0.00  0.00    +0.000 C 
ATOM     21  H   UNL     1      42.819   2.191  11.942  0.00  0.00    +0.000 HD
ENDBRANCH  16  17
ENDBRANCH   5  16
TORSDOF 6
ENDMDL
MODEL 9
REMARK VINA RESULT:    -5.638      1.871      2.561
REMARK INTER + INTRA:          -8.259
REMARK INTER:                  -7.792
REMARK INTRA:                  -0.466
REMARK UNBOUND:                -0.643
REMARK  Name = 
REMARK  6 active torsions:
REMARK  status: ('A' for Active; 'I' for Inactive)
REMARK    1  A    between atoms: C_5  and  O_6
REMARK    2  A    between atoms: O_6  and  C_7
REMARK    3  A    between atoms: C_7  and  C_8
REMARK    4  A    between atoms: C_8  and  C_9
REMARK    5  A    between atoms: C_13  and  O_14
REMARK    6  A    between atoms: O_14  and  C_15
REMARK                            x       y       z     vdW  Elec       q    Type
REMARK                         _______ _______ _______ _____ _____    ______ ____
ROOT
ATOM      1  C   UNL     1      47.618   6.871  13.513  0.00  0.00    +0.000 A 
ATOM      2  C   UNL     1      47.811   8.192  13.913  0.00  0.00    +0.000 A 
ATOM      3  N   UNL     1      48.403   8.523  15.088  0.00  0.00    +0.000 NA
ATOM      4  C   UNL     1      48.804   7.475  15.845  0.00  0.00    +0.000 A 
ATOM      5  C   UNL     1      48.612   6.158  15.460  0.00  0.00    +0.000 A 
ATOM      6  N   UNL     1      48.014   5.828  14.295  0.00  0.00    +0.000 NA
ENDROOT
BRANCH   1   7
ATOM      7  C   UNL     1      46.956   6.576  12.192  0.00  0.00    +0.000 C 
BRANCH   7   8
ATOM      8  C   UNL     1      45.942   5.443  12.302  0.00  0.00    +0.000 C 
BRANCH   8   9
ATOM      9  O   UNL     1      44.945   5.580  11.287  0.00  0.00    +0.000 OA
BRANCH   9  14
ATOM     10  C   UNL     1      44.746   2.616   9.069  0.00  0.00    +0.000 A 
ATOM     11  C   UNL     1      45.420   3.168   7.994  0.00  0.00    +0.000 A 
ATOM     12  N   UNL     1      45.909   4.425   7.986  0.00  0.00    +0.000 NA
ATOM     13  C   UNL     1      45.712   5.158   9.109  0.00  0.00    +0.000 A 
ATOM     14  C   UNL     1      45.050   4.701  10.244  0.00  0.00    +0.000 A 
ATOM     15  C   UNL     1      44.560   3.395  10.209  0.00  0.00    +0.000 A 
ENDBRANCH   9  14
ENDBRANCH   8   9
ENDBRANCH   7   8
ENDBRANCH   1   7
BRANCH   5  16
ATOM     16  O   UNL     1      49.076   5.154  16.284  0.00  0.00    +0.000 OA
BRANCH  16  17
ATOM     17  C   UNL     1      48.139   4.085  16.553  0.00  0.00    +0.000 C 
ATOM     18  C   UNL     1      47.012   4.423  17.558  0.00  0.00    +0.000 C 
ATOM     19  N   UNL     1      47.127   3.056  18.116  0.00  0.00    +0.000 NA
ATOM     20  C   UNL     1      48.514   3.000  17.589  0.00  0.00    +0.000 C 
ATOM     21  H   UNL     1      46.496   2.388  17.671  0.00  0.00    +0.000 HD
ENDBRANCH  16  17
ENDBRANCH   5  16
TORSDOF 6
ENDMDL
