MODEL 1
REMARK VINA RESULT:    -7.813      0.000      0.000
REMARK INTER + INTRA:         -11.732
REMARK INTER:                 -11.010
REMARK INTRA:                  -0.722
REMARK UNBOUND:                -0.722
REMARK  Name = 
REMARK  8 active torsions:
REMARK  status: ('A' for Active; 'I' for Inactive)
REMARK    1  A    between atoms: N_1  and  C_2
REMARK    2  A    between atoms: C_2  and  C_3
REMARK    3  A    between atoms: C_7  and  S_8
REMARK    4  A    between atoms: S_8  and  C_9
REMARK    5  A    between atoms: C_9  and  C_10
REMARK    6  A    between atoms: C_10  and  C_11
REMARK    7  A    between atoms: C_14  and  C_15
REMARK    8  A    between atoms: C_15  and  O_17
REMARK                            x       y       z     vdW  Elec       q    Type
REMARK                         _______ _______ _______ _____ _____    ______ ____
ROOT
ATOM      1  C   UNL     1      43.035   4.149  11.216  0.00  0.00    +0.000 C 
ENDROOT
BRANCH   1   2
ATOM      2  S   UNL     1      43.107   5.138  12.750  0.00  0.00    +0.000 S 
BRANCH   2   7
ATOM      3  C   UNL     1      46.684   7.011  13.148  0.00  0.00    +0.000 A 
ATOM      4  C   UNL     1      47.565   5.977  13.488  0.00  0.00    +0.000 A 
ATOM      5  C   UNL     1      47.111   4.666  13.575  0.00  0.00    +0.000 A 
ATOM      6  C   UNL     1      45.766   4.375  13.338  0.00  0.00    +0.000 A 
ATOM      7  C   UNL     1      44.865   5.385  12.988  0.00  0.00    +0.000 A 
ATOM      8  C   UNL     1      45.345   6.698  12.864  0.00  0.00    +0.000 A 
BRANCH   3   9
ATOM      9  C   UNL     1      47.151   8.443  13.179  0.00  0.00    +0.000 C 
BRANCH   9  10
ATOM     10  N   UNL     1      47.119   8.985  14.531  0.00  0.00    +0.000 NA
ATOM     11  H   UNL     1      46.196   8.836  14.929  0.00  0.00    +0.000 HD
ATOM     12  H   UNL     1      47.256   9.994  14.480  0.00  0.00    +0.000 HD
ENDBRANCH   9  10
ENDBRANCH   3   9
ENDBRANCH   2   7
ENDBRANCH   1   2
BRANCH   1  13
ATOM     13  C   UNL     1      43.792   4.853  10.093  0.00  0.00    +0.000 C 
BRANCH  13  14
ATOM     14  C   UNL     1      44.665   3.885   9.327  0.00  0.00    +0.000 A 
ATOM     15  C   UNL     1      45.592   4.357   8.386  0.00  0.00    +0.000 A 
ATOM     16  C   UNL     1      46.418   3.470   7.682  0.00  0.00    +0.000 A 
ATOM     17  C   UNL     1      46.320   2.093   7.912  0.00  0.00    +0.000 A 
ATOM     18  C   UNL     1      45.394   1.620   8.854  0.00  0.00    +0.000 A 
ATOM     19  C   UNL     1      44.561   2.506   9.542  0.00  0.00    +0.000 A 
BRANCH  17  20
ATOM     20  C   UNL     1      47.188   1.087   7.243  0.00  0.00    +0.000 C 
ATOM     21  O   UNL     1      48.006   1.399   6.383  0.00  0.00    +0.000 OA
BRANCH  20  22
ATOM     22  O   UNL     1      47.056  -0.179   7.680  0.00  0.00    +0.000 OA
ATOM     23  H   UNL     1      47.883  -0.670   7.821  0.00  0.00    +0.000 HD
ENDBRANCH  20  22
ENDBRANCH  17  20
ENDBRANCH  13  14
ENDBRANCH   1  13
TORSDOF 8
ENDMDL
MODEL 2
REMARK VINA RESULT:    -7.685      0.984      1.630
REMARK INTER + INTRA:         -11.551
REMARK INTER:                 -10.891
REMARK INTRA:                  -0.660
REMARK UNBOUND:                -0.722
REMARK  Name = 
REMARK  8 active torsions:
REMARK  status: ('A' for Active; 'I' for Inactive)
REMARK    1  A    between atoms: N_1  and  C_2
REMARK    2  A    between atoms: C_2  and  C_3
REMARK    3  A    between atoms: C_7  and  S_8
REMARK    4  A    between atoms: S_8  and  C_9
REMARK    5  A    between atoms: C_9  and  C_10
REMARK    6  A    between atoms: C_10  and  C_11
REMARK    7  A    between atoms: C_14  and  C_15
REMARK    8  A    between atoms: C_15  and  O_17
REMARK                            x       y       z     vdW  Elec       q    Type
REMARK                         _______ _______ _______ _____ _____    ______ ____
ROOT
ATOM      1  C   UNL     1      43.199   3.811  11.408  0.00  0.00    +0.000 C 
ENDROOT
BRANCH   1   2
ATOM      2  S   UNL     1      43.185   4.791  12.949  0.00  0.00    +0.000 S 
BRANCH   2   7
ATOM      3  C   UNL     1      46.024   7.678  12.685  0.00  0.00    +0.000 A 
ATOM      4  C   UNL     1      47.207   7.014  13.030  0.00  0.00    +0.000 A 
ATOM      5  C   UNL     1      47.191   5.655  13.323  0.00  0.00    +0.000 A 
ATOM      6  C   UNL     1      45.989   4.946  13.288  0.00  0.00    +0.000 A 
ATOM      7  C   UNL     1      44.793   5.581  12.939  0.00  0.00    +0.000 A 
ATOM      8  C   UNL     1      44.830   6.944  12.607  0.00  0.00    +0.000 A 
BRANCH   3   9
ATOM      9  C   UNL     1      46.025   9.172  12.494  0.00  0.00    +0.000 C 
BRANCH   9  10
ATOM     10  N   UNL     1      44.707   9.742  12.743  0.00  0.00    +0.000 NA
ATOM     11  H   UNL     1      44.259   9.232  13.500  0.00  0.00    +0.000 HD
ATOM     12  H   UNL     1      44.130   9.600  11.914  0.00  0.00    +0.000 HD
ENDBRANCH   9  10
ENDBRANCH   3   9
ENDBRANCH   2   7
ENDBRANCH   1   2
BRANCH   1  13
ATOM     13  C   UNL     1      43.684   4.665  10.239  0.00  0.00    +0.000 C 
BRANCH  13  14
ATOM     14  C   UNL     1      44.686   3.915   9.390  0.00  0.00    +0.000 A 
ATOM     15  C   UNL     1      44.786   2.519   9.477  0.00  0.00    +0.000 A 
ATOM     16  C   UNL     1      45.700   1.812   8.683  0.00  0.00    +0.000 A 
ATOM     17  C   UNL     1      46.530   2.501   7.791  0.00  0.00    +0.000 A 
ATOM     18  C   UNL     1      46.429   3.898   7.702  0.00  0.00    +0.000 A 
ATOM     19  C   UNL     1      45.528   4.601   8.507  0.00  0.00    +0.000 A 
BRANCH  17  20
ATOM     20  C   UNL     1      47.493   1.827   6.880  0.00  0.00    +0.000 C 
ATOM     21  O   UNL     1      47.289   0.704   6.431  0.00  0.00    +0.000 OA
BRANCH  20  22
ATOM     22  O   UNL     1      48.576   2.549   6.540  0.00  0.00    +0.000 OA
ATOM     23  H   UNL     1      48.601   2.874   5.623  0.00  0.00    +0.000 HD
ENDBRANCH  20  22
ENDBRANCH  17  20
ENDBRANCH  13  14
ENDBRANCH   1  13
TORSDOF 8
ENDMDL
MODEL 3
REMARK VINA RESULT:    -7.218      1.293      1.796
REMARK INTER + INTRA:         -10.894
REMARK INTER:                 -10.326
REMARK INTRA:                  -0.568
REMARK UNBOUND:                -0.722
REMARK  Name = 
REMARK  8 active torsions:
REMARK  status: ('A' for Active; 'I' for Inactive)
REMARK    1  A    between atoms: N_1  and  C_2
REMARK    2  A    between atoms: C_2  and  C_3
REMARK    3  A    between atoms: C_7  and  S_8
REMARK    4  A    between atoms: S_8  and  C_9
REMARK    5  A    between atoms: C_9  and  C_10
REMARK    6  A    between atoms: C_10  and  C_11
REMARK    7  A    between atoms: C_14  and  C_15
REMARK    8  A    between atoms: C_15  and  O_17
REMARK                            x       y       z     vdW  Elec       q    Type
REMARK                         _______ _______ _______ _____ _____    ______ ____
ROOT
ATOM      1  C   UNL     1      43.400   4.215  11.474  0.00  0.00    +0.000 C 
ENDROOT
BRANCH   1   2
ATOM      2  S   UNL     1      44.836   4.152  12.600  0.00  0.00    +0.000 S 
BRANCH   2   7
ATOM      3  C   UNL     1      47.443   7.228  12.143  0.00  0.00    +0.000 A 
ATOM      4  C   UNL     1      46.632   8.365  12.228  0.00  0.00    +0.000 A 
ATOM      5  C   UNL     1      45.267   8.242  12.463  0.00  0.00    +0.000 A 
ATOM      6  C   UNL     1      44.694   6.977  12.599  0.00  0.00    +0.000 A 
ATOM      7  C   UNL     1      45.479   5.822  12.527  0.00  0.00    +0.000 A 
ATOM      8  C   UNL     1      46.862   5.963  12.331  0.00  0.00    +0.000 A 
BRANCH   3   9
ATOM      9  C   UNL     1      48.894   7.360  11.763  0.00  0.00    +0.000 C 
BRANCH   9  10
ATOM     10  N   UNL     1      49.769   6.870  12.821  0.00  0.00    +0.000 NA
ATOM     11  H   UNL     1      50.159   5.973  12.544  0.00  0.00    +0.000 HD
ATOM     12  H   UNL     1      49.206   6.700  13.654  0.00  0.00    +0.000 HD
ENDBRANCH   9  10
ENDBRANCH   3   9
ENDBRANCH   2   7
ENDBRANCH   1   2
BRANCH   1  13
ATOM     13  C   UNL     1      43.807   4.801  10.124  0.00  0.00    +0.000 C 
BRANCH  13  14
ATOM     14  C   UNL     1      44.657   3.830   9.337  0.00  0.00    +0.000 A 
ATOM     15  C   UNL     1      45.626   4.301   8.439  0.00  0.00    +0.000 A 
ATOM     16  C   UNL     1      46.432   3.411   7.717  0.00  0.00    +0.000 A 
ATOM     17  C   UNL     1      46.271   2.031   7.884  0.00  0.00    +0.000 A 
ATOM     18  C   UNL     1      45.303   1.558   8.783  0.00  0.00    +0.000 A 
ATOM     19  C   UNL     1      44.491   2.449   9.490  0.00  0.00    +0.000 A 
BRANCH  17  20
ATOM     20  C   UNL     1      47.113   1.017   7.192  0.00  0.00    +0.000 C 
ATOM     21  O   UNL     1      47.870   1.316   6.274  0.00  0.00    +0.000 OA
BRANCH  20  22
ATOM     22  O   UNL     1      47.030  -0.236   7.674  0.00  0.00    +0.000 OA
ATOM     23  H   UNL     1      46.329  -0.793   7.296  0.00  0.00    +0.000 HD
ENDBRANCH  20  22
ENDBRANCH  17  20
ENDBRANCH  13  14
ENDBRANCH   1  13
TORSDOF 8
ENDMDL
MODEL 4
REMARK VINA RESULT:    -6.937      1.644      2.399
REMARK INTER + INTRA:         -10.497
REMARK INTER:                  -9.875
REMARK INTRA:                  -0.622
REMARK UNBOUND:                -0.722
REMARK  Name = 
REMARK  8 active torsions:
REMARK  status: ('A' for Active; 'I' for Inactive)
REMARK    1  A    between atoms: N_1  and  C_2
REMARK    2  A    between atoms: C_2  and  C_3
REMARK    3  A    between atoms: C_7  and  S_8
REMARK    4  A    between atoms: S_8  and  C_9
REMARK    5  A    between atoms: C_9  and  C_10
REMARK    6  A    between atoms: C_10  and  C_11
REMARK    7  A    between atoms: C_14  and  C_15
REMARK    8  A    between atoms: C_15  and  O_17
REMARK                            x       y       z     vdW  Elec       q    Type
REMARK                         _______ _______ _______ _____ _____    ______ ____
ROOT
ATOM      1  C   UNL     1      44.131   4.731  11.361  0.00  0.00    +0.000 C 
ENDROOT
BRANCH   1   2
ATOM      2  S   UNL     1      45.234   4.335  12.761  0.00  0.00    +0.000 S 
BRANCH   2   7
ATOM      3  C   UNL     1      48.263   6.791  13.879  0.00  0.00    +0.000 A 
ATOM      4  C   UNL     1      48.502   7.565  12.738  0.00  0.00    +0.000 A 
ATOM      5  C   UNL     1      47.729   7.392  11.595  0.00  0.00    +0.000 A 
ATOM      6  C   UNL     1      46.715   6.433  11.576  0.00  0.00    +0.000 A 
ATOM      7  C   UNL     1      46.447   5.651  12.704  0.00  0.00    +0.000 A 
ATOM      8  C   UNL     1      47.209   5.864  13.863  0.00  0.00    +0.000 A 
BRANCH   3   9
ATOM      9  C   UNL     1      49.183   6.892  15.067  0.00  0.00    +0.000 C 
BRANCH   9  10
ATOM     10  N   UNL     1      49.097   5.706  15.910  0.00  0.00    +0.000 NA
ATOM     11  H   UNL     1      49.250   5.972  16.879  0.00  0.00    +0.000 HD
ATOM     12  H   UNL     1      49.856   5.073  15.658  0.00  0.00    +0.000 HD
ENDBRANCH   9  10
ENDBRANCH   3   9
ENDBRANCH   2   7
ENDBRANCH   1   2
BRANCH   1  13
ATOM     13  C   UNL     1      43.771   3.463  10.590  0.00  0.00    +0.000 C 
BRANCH  13  14
ATOM     14  C   UNL     1      44.771   3.187   9.489  0.00  0.00    +0.000 A 
ATOM     15  C   UNL     1      45.144   1.869   9.185  0.00  0.00    +0.000 A 
ATOM     16  C   UNL     1      46.056   1.600   8.155  0.00  0.00    +0.000 A 
ATOM     17  C   UNL     1      46.610   2.653   7.420  0.00  0.00    +0.000 A 
ATOM     18  C   UNL     1      46.236   3.972   7.723  0.00  0.00    +0.000 A 
ATOM     19  C   UNL     1      45.339   4.238   8.760  0.00  0.00    +0.000 A 
BRANCH  17  20
ATOM     20  C   UNL     1      47.550   2.455   6.283  0.00  0.00    +0.000 C 
ATOM     21  O   UNL     1      48.445   1.617   6.316  0.00  0.00    +0.000 OA
BRANCH  20  22
ATOM     22  O   UNL     1      47.320   3.215   5.197  0.00  0.00    +0.000 OA
ATOM     23  H   UNL     1      46.606   3.871   5.279  0.00  0.00    +0.000 HD
ENDBRANCH  20  22
ENDBRANCH  17  20
ENDBRANCH  13  14
ENDBRANCH   1  13
TORSDOF 8
ENDMDL
MODEL 5
REMARK VINA RESULT:    -6.461      4.102      6.721
REMARK INTER + INTRA:          -9.827
REMARK INTER:                  -9.393
REMARK INTRA:                  -0.434
REMARK UNBOUND:                -0.722
REMARK  Name = 
REMARK  8 active torsions:
REMARK  status: ('A' for Active; 'I' for Inactive)
REMARK    1  A    between atoms: N_1  and  C_2
REMARK    2  A    between atoms: C_2  and  C_3
REMARK    3  A    between atoms: C_7  and  S_8
REMARK    4  A    between atoms: S_8  and  C_9
REMARK    5  A    between atoms: C_9  and  C_10
REMARK    6  A    between atoms: C_10  and  C_11
REMARK    7  A    between atoms: C_14  and  C_15
REMARK    8  A    between atoms: C_15  and  O_17
REMARK                            x       y       z     vdW  Elec       q    Type
REMARK                         _______ _______ _______ _____ _____    ______ ____
ROOT
ATOM      1  C   UNL     1      43.393   3.982  11.055  0.00  0.00    +0.000 C 
ENDROOT
BRANCH   1   2
ATOM      2  S   UNL     1      44.226   4.759   9.628  0.00  0.00    +0.000 S 
BRANCH   2   7
ATOM      3  C   UNL     1      46.798   2.675   7.282  0.00  0.00    +0.000 A 
ATOM      4  C   UNL     1      46.549   1.340   7.621  0.00  0.00    +0.000 A 
ATOM      5  C   UNL     1      45.566   1.021   8.550  0.00  0.00    +0.000 A 
ATOM      6  C   UNL     1      44.829   2.035   9.164  0.00  0.00    +0.000 A 
ATOM      7  C   UNL     1      45.049   3.377   8.840  0.00  0.00    +0.000 A 
ATOM      8  C   UNL     1      46.017   3.683   7.870  0.00  0.00    +0.000 A 
BRANCH   3   9
ATOM      9  C   UNL     1      47.947   3.023   6.373  0.00  0.00    +0.000 C 
BRANCH   9  10
ATOM     10  N   UNL     1      48.517   1.832   5.755  0.00  0.00    +0.000 NA
ATOM     11  H   UNL     1      49.415   1.629   6.186  0.00  0.00    +0.000 HD
ATOM     12  H   UNL     1      48.703   2.033   4.773  0.00  0.00    +0.000 HD
ENDBRANCH   9  10
ENDBRANCH   3   9
ENDBRANCH   2   7
ENDBRANCH   1   2
BRANCH   1  13
ATOM     13  C   UNL     1      43.311   4.963  12.222  0.00  0.00    +0.000 C 
BRANCH  13  14
ATOM     14  C   UNL     1      44.680   5.477  12.606  0.00  0.00    +0.000 A 
ATOM     15  C   UNL     1      44.967   6.849  12.541  0.00  0.00    +0.000 A 
ATOM     16  C   UNL     1      46.227   7.339  12.912  0.00  0.00    +0.000 A 
ATOM     17  C   UNL     1      47.220   6.454  13.348  0.00  0.00    +0.000 A 
ATOM     18  C   UNL     1      46.933   5.082  13.415  0.00  0.00    +0.000 A 
ATOM     19  C   UNL     1      45.681   4.595  13.030  0.00  0.00    +0.000 A 
BRANCH  17  20
ATOM     20  C   UNL     1      48.567   6.893  13.802  0.00  0.00    +0.000 C 
ATOM     21  O   UNL     1      48.752   7.396  14.905  0.00  0.00    +0.000 OA
BRANCH  20  22
ATOM     22  O   UNL     1      49.577   6.653  12.945  0.00  0.00    +0.000 OA
ATOM     23  H   UNL     1      49.484   5.862  12.387  0.00  0.00    +0.000 HD
ENDBRANCH  20  22
ENDBRANCH  17  20
ENDBRANCH  13  14
ENDBRANCH   1  13
TORSDOF 8
ENDMDL
MODEL 6
REMARK VINA RESULT:    -6.340      4.264      6.968
REMARK INTER + INTRA:          -9.657
REMARK INTER:                  -8.891
REMARK INTRA:                  -0.766
REMARK UNBOUND:                -0.722
REMARK  Name = 
REMARK  8 active torsions:
REMARK  status: ('A' for Active; 'I' for Inactive)
REMARK    1  A    between atoms: N_1  and  C_2
REMARK    2  A    between atoms: C_2  and  C_3
REMARK    3  A    between atoms: C_7  and  S_8
REMARK    4  A    between atoms: S_8  and  C_9
REMARK    5  A    between atoms: C_9  and  C_10
REMARK    6  A    between atoms: C_10  and  C_11
REMARK    7  A    between atoms: C_14  and  C_15
REMARK    8  A    between atoms: C_15  and  O_17
REMARK                            x       y       z     vdW  Elec       q    Type
REMARK                         _______ _______ _______ _____ _____    ______ ____
ROOT
ATOM      1  C   UNL     1      43.761   3.978  11.849  0.00  0.00    +0.000 C 
ENDROOT
BRANCH   1   2
ATOM      2  S   UNL     1      43.885   2.500  10.784  0.00  0.00    +0.000 S 
BRANCH   2   7
ATOM      3  C   UNL     1      46.543   2.317   7.724  0.00  0.00    +0.000 A 
ATOM      4  C   UNL     1      46.706   3.654   7.345  0.00  0.00    +0.000 A 
ATOM      5  C   UNL     1      46.040   4.665   8.027  0.00  0.00    +0.000 A 
ATOM      6  C   UNL     1      45.190   4.350   9.088  0.00  0.00    +0.000 A 
ATOM      7  C   UNL     1      45.014   3.024   9.497  0.00  0.00    +0.000 A 
ATOM      8  C   UNL     1      45.725   2.017   8.825  0.00  0.00    +0.000 A 
BRANCH   3   9
ATOM      9  C   UNL     1      47.166   1.217   6.904  0.00  0.00    +0.000 C 
BRANCH   9  10
ATOM     10  N   UNL     1      48.293   1.708   6.122  0.00  0.00    +0.000 NA
ATOM     11  H   UNL     1      48.669   0.947   5.563  0.00  0.00    +0.000 HD
ATOM     12  H   UNL     1      49.033   1.992   6.763  0.00  0.00    +0.000 HD
ENDBRANCH   9  10
ENDBRANCH   3   9
ENDBRANCH   2   7
ENDBRANCH   1   2
BRANCH   1  13
ATOM     13  C   UNL     1      44.978   4.076  12.767  0.00  0.00    +0.000 C 
BRANCH  13  14
ATOM     14  C   UNL     1      45.631   5.436  12.669  0.00  0.00    +0.000 A 
ATOM     15  C   UNL     1      46.981   5.601  13.015  0.00  0.00    +0.000 A 
ATOM     16  C   UNL     1      47.602   6.853  12.912  0.00  0.00    +0.000 A 
ATOM     17  C   UNL     1      46.873   7.960  12.464  0.00  0.00    +0.000 A 
ATOM     18  C   UNL     1      45.523   7.796  12.116  0.00  0.00    +0.000 A 
ATOM     19  C   UNL     1      44.903   6.549  12.234  0.00  0.00    +0.000 A 
BRANCH  17  20
ATOM     20  C   UNL     1      47.465   9.313  12.282  0.00  0.00    +0.000 C 
ATOM     21  O   UNL     1      48.585   9.476  11.810  0.00  0.00    +0.000 OA
BRANCH  20  22
ATOM     22  O   UNL     1      46.672  10.346  12.618  0.00  0.00    +0.000 OA
ATOM     23  H   UNL     1      46.777  10.689  13.522  0.00  0.00    +0.000 HD
ENDBRANCH  20  22
ENDBRANCH  17  20
ENDBRANCH  13  14
ENDBRANCH   1  13
TORSDOF 8
ENDMDL
MODEL 7
REMARK VINA RESULT:    -6.184      4.368      6.864
REMARK INTER + INTRA:          -9.437
REMARK INTER:                  -8.290
REMARK INTRA:                  -1.147
REMARK UNBOUND:                -0.722
REMARK  Name = 
REMARK  8 active torsions:
REMARK  status: ('A' for Active; 'I' for Inactive)
REMARK    1  A    between atoms: N_1  and  C_2
REMARK    2  A    between atoms: C_2  and  C_3
REMARK    3  A    between atoms: C_7  and  S_8
REMARK    4  A    between atoms: S_8  and  C_9
REMARK    5  A    between atoms: C_9  and  C_10
REMARK    6  A    between atoms: C_10  and  C_11
REMARK    7  A    between atoms: C_14  and  C_15
REMARK    8  A    between atoms: C_15  and  O_17
REMARK                            x       y       z     vdW  Elec       q    Type
REMARK                         _______ _______ _______ _____ _____    ______ ____
ROOT
ATOM      1  C   UNL     1      46.298   7.681  12.825  0.00  0.00    +0.000 C 
ENDROOT
BRANCH   1   2
ATOM      2  S   UNL     1      45.035   7.573  11.511  0.00  0.00    +0.000 S 
BRANCH   2   7
ATOM      3  C   UNL     1      44.144   3.673  10.833  0.00  0.00    +0.000 A 
ATOM      4  C   UNL     1      43.488   3.274  12.003  0.00  0.00    +0.000 A 
ATOM      5  C   UNL     1      43.261   4.184  13.028  0.00  0.00    +0.000 A 
ATOM      6  C   UNL     1      43.702   5.503  12.902  0.00  0.00    +0.000 A 
ATOM      7  C   UNL     1      44.352   5.933  11.742  0.00  0.00    +0.000 A 
ATOM      8  C   UNL     1      44.539   5.013  10.698  0.00  0.00    +0.000 A 
BRANCH   3   9
ATOM      9  C   UNL     1      44.499   2.655   9.780  0.00  0.00    +0.000 C 
BRANCH   9  10
ATOM     10  N   UNL     1      44.531   3.252   8.451  0.00  0.00    +0.000 NA
ATOM     11  H   UNL     1      44.545   4.265   8.539  0.00  0.00    +0.000 HD
ATOM     12  H   UNL     1      43.667   3.011   7.966  0.00  0.00    +0.000 HD
ENDBRANCH   9  10
ENDBRANCH   3   9
ENDBRANCH   2   7
ENDBRANCH   1   2
BRANCH   1  13
ATOM     13  C   UNL     1      47.353   6.593  12.641  0.00  0.00    +0.000 C 
BRANCH  13  14
ATOM     14  C   UNL     1      47.484   5.737  13.881  0.00  0.00    +0.000 A 
ATOM     15  C   UNL     1      48.148   6.228  15.014  0.00  0.00    +0.000 A 
ATOM     16  C   UNL     1      48.260   5.451  16.176  0.00  0.00    +0.000 A 
ATOM     17  C   UNL     1      47.709   4.165  16.211  0.00  0.00    +0.000 A 
ATOM     18  C   UNL     1      47.043   3.674  15.078  0.00  0.00    +0.000 A 
ATOM     19  C   UNL     1      46.946   4.446  13.917  0.00  0.00    +0.000 A 
BRANCH  17  20
ATOM     20  C   UNL     1      47.743   3.292  17.415  0.00  0.00    +0.000 C 
ATOM     21  O   UNL     1      48.746   3.183  18.113  0.00  0.00    +0.000 OA
BRANCH  20  22
ATOM     22  O   UNL     1      46.588   2.673  17.719  0.00  0.00    +0.000 OA
ATOM     23  H   UNL     1      46.631   2.013  18.432  0.00  0.00    +0.000 HD
ENDBRANCH  20  22
ENDBRANCH  17  20
ENDBRANCH  13  14
ENDBRANCH   1  13
TORSDOF 8
ENDMDL
MODEL 8
REMARK VINA RESULT:    -5.819      3.848      5.536
REMARK INTER + INTRA:          -8.922
REMARK INTER:                  -8.396
REMARK INTRA:                  -0.527
REMARK UNBOUND:                -0.722
REMARK  Name = 
REMARK  8 active torsions:
REMARK  status: ('A' for Active; 'I' for Inactive)
REMARK    1  A    between atoms: N_1  and  C_2
REMARK    2  A    between atoms: C_2  and  C_3
REMARK    3  A    between atoms: C_7  and  S_8
REMARK    4  A    between atoms: S_8  and  C_9
REMARK    5  A    between atoms: C_9  and  C_10
REMARK    6  A    between atoms: C_10  and  C_11
REMARK    7  A    between atoms: C_14  and  C_15
REMARK    8  A    between atoms: C_15  and  O_17
REMARK                            x       y       z     vdW  Elec       q    Type
REMARK                         _______ _______ _______ _____ _____    ______ ____
ROOT
ATOM      1  C   UNL     1      48.658   6.865  13.593  0.00  0.00    +0.000 C 
ENDROOT
BRANCH   1   2
ATOM      2  S   UNL     1      48.670   7.587  15.270  0.00  0.00    +0.000 S 
BRANCH   2   7
ATOM      3  C   UNL     1      48.957   4.116  17.351  0.00  0.00    +0.000 A 
ATOM      4  C   UNL     1      50.309   4.051  17.704  0.00  0.00    +0.000 A 
ATOM      5  C   UNL     1      51.179   5.077  17.353  0.00  0.00    +0.000 A 
ATOM      6  C   UNL     1      50.709   6.174  16.630  0.00  0.00    +0.000 A 
ATOM      7  C   UNL     1      49.361   6.272  16.270  0.00  0.00    +0.000 A 
ATOM      8  C   UNL     1      48.486   5.248  16.667  0.00  0.00    +0.000 A 
BRANCH   3   9
ATOM      9  C   UNL     1      48.047   2.946  17.623  0.00  0.00    +0.000 C 
BRANCH   9  10
ATOM     10  N   UNL     1      46.646   3.312  17.461  0.00  0.00    +0.000 NA
ATOM     11  H   UNL     1      46.583   4.297  17.219  0.00  0.00    +0.000 HD
ATOM     12  H   UNL     1      46.175   3.200  18.358  0.00  0.00    +0.000 HD
ENDBRANCH   9  10
ENDBRANCH   3   9
ENDBRANCH   2   7
ENDBRANCH   1   2
BRANCH   1  13
ATOM     13  C   UNL     1      47.430   7.337  12.819  0.00  0.00    +0.000 C 
BRANCH  13  14
ATOM     14  C   UNL     1      46.588   6.169  12.358  0.00  0.00    +0.000 A 
ATOM     15  C   UNL     1      46.367   5.074  13.207  0.00  0.00    +0.000 A 
ATOM     16  C   UNL     1      45.575   3.993  12.798  0.00  0.00    +0.000 A 
ATOM     17  C   UNL     1      44.996   3.995  11.523  0.00  0.00    +0.000 A 
ATOM     18  C   UNL     1      45.216   5.091  10.673  0.00  0.00    +0.000 A 
ATOM     19  C   UNL     1      46.019   6.159  11.079  0.00  0.00    +0.000 A 
BRANCH  17  20
ATOM     20  C   UNL     1      44.106   2.912  11.025  0.00  0.00    +0.000 C 
ATOM     21  O   UNL     1      42.990   2.718  11.495  0.00  0.00    +0.000 OA
BRANCH  20  22
ATOM     22  O   UNL     1      44.584   2.195   9.992  0.00  0.00    +0.000 OA
ATOM     23  H   UNL     1      44.293   1.268   9.946  0.00  0.00    +0.000 HD
ENDBRANCH  20  22
ENDBRANCH  17  20
ENDBRANCH  13  14
ENDBRANCH   1  13
TORSDOF 8
ENDMDL
MODEL 9
REMARK VINA RESULT:    -5.773      4.134      5.872
REMARK INTER + INTRA:          -8.858
REMARK INTER:                  -8.213
REMARK INTRA:                  -0.644
REMARK UNBOUND:                -0.722
REMARK  Name = 
REMARK  8 active torsions:
REMARK  status: ('A' for Active; 'I' for Inactive)
REMARK    1  A    between atoms: N_1  and  C_2
REMARK    2  A    between atoms: C_2  and  C_3
REMARK    3  A    between atoms: C_7  and  S_8
REMARK    4  A    between atoms: S_8  and  C_9
REMARK    5  A    between atoms: C_9  and  C_10
REMARK    6  A    between atoms: C_10  and  C_11
REMARK    7  A    between atoms: C_14  and  C_15
REMARK    8  A    between atoms: C_15  and  O_17
REMARK                            x       y       z     vdW  Elec       q    Type
REMARK                         _______ _______ _______ _____ _____    ______ ____
ROOT
ATOM      1  C   UNL     1      48.156   7.850  14.033  0.00  0.00    +0.000 C 
ENDROOT
BRANCH   1   2
ATOM      2  S   UNL     1      49.597   7.445  15.078  0.00  0.00    +0.000 S 
BRANCH   2   7
ATOM      3  C   UNL     1      48.058   4.773  17.715  0.00  0.00    +0.000 A 
ATOM      4  C   UNL     1      47.814   5.540  18.860  0.00  0.00    +0.000 A 
ATOM      5  C   UNL     1      48.075   6.905  18.863  0.00  0.00    +0.000 A 
ATOM      6  C   UNL     1      48.600   7.518  17.724  0.00  0.00    +0.000 A 
ATOM      7  C   UNL     1      48.846   6.780  16.562  0.00  0.00    +0.000 A 
ATOM      8  C   UNL     1      48.540   5.410  16.560  0.00  0.00    +0.000 A 
BRANCH   3   9
ATOM      9  C   UNL     1      47.894   3.276  17.758  0.00  0.00    +0.000 C 
BRANCH   9  10
ATOM     10  N   UNL     1      46.497   2.889  17.608  0.00  0.00    +0.000 NA
ATOM     11  H   UNL     1      46.349   1.990  18.059  0.00  0.00    +0.000 HD
ATOM     12  H   UNL     1      46.302   2.755  16.617  0.00  0.00    +0.000 HD
ENDBRANCH   9  10
ENDBRANCH   3   9
ENDBRANCH   2   7
ENDBRANCH   1   2
BRANCH   1  13
ATOM     13  C   UNL     1      48.264   7.147  12.682  0.00  0.00    +0.000 C 
BRANCH  13  14
ATOM     14  C   UNL     1      47.133   6.163  12.482  0.00  0.00    +0.000 A 
ATOM     15  C   UNL     1      46.907   5.143  13.418  0.00  0.00    +0.000 A 
ATOM     16  C   UNL     1      45.851   4.236  13.253  0.00  0.00    +0.000 A 
ATOM     17  C   UNL     1      45.010   4.339  12.139  0.00  0.00    +0.000 A 
ATOM     18  C   UNL     1      45.235   5.360  11.203  0.00  0.00    +0.000 A 
ATOM     19  C   UNL     1      46.297   6.253  11.363  0.00  0.00    +0.000 A 
BRANCH  17  20
ATOM     20  C   UNL     1      43.841   3.447  11.909  0.00  0.00    +0.000 C 
ATOM     21  O   UNL     1      42.969   3.714  11.089  0.00  0.00    +0.000 OA
BRANCH  20  22
ATOM     22  O   UNL     1      43.831   2.306  12.621  0.00  0.00    +0.000 OA
ATOM     23  H   UNL     1      43.033   2.141  13.152  0.00  0.00    +0.000 HD
ENDBRANCH  20  22
ENDBRANCH  17  20
ENDBRANCH  13  14
ENDBRANCH   1  13
TORSDOF 8
ENDMDL
