MODEL 1
REMARK VINA RESULT:    -6.667      0.000      0.000
REMARK INTER + INTRA:          -8.011
REMARK INTER:                  -7.446
REMARK INTRA:                  -0.565
REMARK UNBOUND:                -0.565
REMARK  Name = 
REMARK  2 active torsions:
REMARK  status: ('A' for Active; 'I' for Inactive)
REMARK    1  A    between atoms: C_7  and  C_8
REMARK    2  A    between atoms: C_8  and  N_9
REMARK                            x       y       z     vdW  Elec       q    Type
REMARK                         _______ _______ _______ _____ _____    ______ ____
ROOT
ATOM      1  N   UNL     1      47.003   9.026  12.182  0.00  0.00    +0.000 NA
ATOM      2  C   UNL     1      45.750   8.731  12.193  0.00  0.00    +0.000 C 
ATOM      3  N   UNL     1      44.847   9.575  12.741  0.00  0.00    +0.000 N 
ATOM      4  N   UNL     1      45.236   7.558  11.719  0.00  0.00    +0.000 N 
ATOM      5  C   UNL     1      43.891   7.457  11.144  0.00  0.00    +0.000 C 
ATOM      6  C   UNL     1      43.276   6.138  11.593  0.00  0.00    +0.000 C 
ATOM      7  C   UNL     1      44.115   4.934  11.131  0.00  0.00    +0.000 C 
ATOM      8  C   UNL     1      45.573   5.123  11.594  0.00  0.00    +0.000 C 
ATOM      9  C   UNL     1      46.150   6.503  11.254  0.00  0.00    +0.000 C 
ATOM     10  H   UNL     1      47.139   9.954  12.581  0.00  0.00    +0.000 HD
ATOM     11  H   UNL     1      45.241  10.299  13.327  0.00  0.00    +0.000 HD
ATOM     12  H   UNL     1      44.112   9.082  13.232  0.00  0.00    +0.000 HD
ENDROOT
BRANCH   7  13
ATOM     13  C   UNL     1      44.033   4.676   9.609  0.00  0.00    +0.000 C 
BRANCH  13  14
ATOM     14  N   UNL     1      44.672   3.434   9.191  0.00  0.00    +0.000 N 
ATOM     15  C   UNL     1      44.281   2.192   9.629  0.00  0.00    +0.000 A 
ATOM     16  C   UNL     1      45.014   1.249   8.947  0.00  0.00    +0.000 A 
ATOM     17  C   UNL     1      45.915   1.938   8.092  0.00  0.00    +0.000 A 
ATOM     18  C   UNL     1      46.890   1.510   7.169  0.00  0.00    +0.000 A 
ATOM     19  C   UNL     1      47.658   2.459   6.487  0.00  0.00    +0.000 A 
ATOM     20  C   UNL     1      47.473   3.817   6.725  0.00  0.00    +0.000 A 
ATOM     21  C   UNL     1      46.501   4.267   7.626  0.00  0.00    +0.000 A 
ATOM     22  C   UNL     1      45.717   3.309   8.292  0.00  0.00    +0.000 A 
ENDBRANCH  13  14
ENDBRANCH   7  13
TORSDOF 2
ENDMDL
MODEL 2
REMARK VINA RESULT:    -6.637      1.863      2.892
REMARK INTER + INTRA:          -7.978
REMARK INTER:                  -7.546
REMARK INTRA:                  -0.431
REMARK UNBOUND:                -0.565
REMARK  Name = 
REMARK  2 active torsions:
REMARK  status: ('A' for Active; 'I' for Inactive)
REMARK    1  A    between atoms: C_7  and  C_8
REMARK    2  A    between atoms: C_8  and  N_9
REMARK                            x       y       z     vdW  Elec       q    Type
REMARK                         _______ _______ _______ _____ _____    ______ ____
ROOT
ATOM      1  N   UNL     1      50.136   7.269  12.500  0.00  0.00    +0.000 NA
ATOM      2  C   UNL     1      49.132   8.058  12.661  0.00  0.00    +0.000 C 
ATOM      3  N   UNL     1      49.319   9.355  12.993  0.00  0.00    +0.000 N 
ATOM      4  N   UNL     1      47.828   7.663  12.569  0.00  0.00    +0.000 N 
ATOM      5  C   UNL     1      46.759   8.561  12.118  0.00  0.00    +0.000 C 
ATOM      6  C   UNL     1      45.517   8.285  12.956  0.00  0.00    +0.000 C 
ATOM      7  C   UNL     1      45.048   6.826  12.812  0.00  0.00    +0.000 C 
ATOM      8  C   UNL     1      46.224   5.881  13.125  0.00  0.00    +0.000 C 
ATOM      9  C   UNL     1      47.514   6.240  12.375  0.00  0.00    +0.000 C 
ATOM     10  H   UNL     1      51.004   7.794  12.612  0.00  0.00    +0.000 HD
ATOM     11  H   UNL     1      50.247   9.580  13.327  0.00  0.00    +0.000 HD
ATOM     12  H   UNL     1      48.617   9.688  13.643  0.00  0.00    +0.000 HD
ENDROOT
BRANCH   7  13
ATOM     13  C   UNL     1      44.422   6.517  11.433  0.00  0.00    +0.000 C 
BRANCH  13  14
ATOM     14  N   UNL     1      44.299   5.090  11.154  0.00  0.00    +0.000 N 
ATOM     15  C   UNL     1      43.596   4.217  11.948  0.00  0.00    +0.000 A 
ATOM     16  C   UNL     1      43.588   2.989  11.329  0.00  0.00    +0.000 A 
ATOM     17  C   UNL     1      44.349   3.103  10.136  0.00  0.00    +0.000 A 
ATOM     18  C   UNL     1      44.681   2.194   9.111  0.00  0.00    +0.000 A 
ATOM     19  C   UNL     1      45.497   2.612   8.055  0.00  0.00    +0.000 A 
ATOM     20  C   UNL     1      45.991   3.912   8.020  0.00  0.00    +0.000 A 
ATOM     21  C   UNL     1      45.664   4.837   9.018  0.00  0.00    +0.000 A 
ATOM     22  C   UNL     1      44.825   4.418  10.065  0.00  0.00    +0.000 A 
ENDBRANCH  13  14
ENDBRANCH   7  13
TORSDOF 2
ENDMDL
MODEL 3
REMARK VINA RESULT:    -6.233      1.964      6.316
REMARK INTER + INTRA:          -7.527
REMARK INTER:                  -6.956
REMARK INTRA:                  -0.571
REMARK UNBOUND:                -0.565
REMARK  Name = 
REMARK  2 active torsions:
REMARK  status: ('A' for Active; 'I' for Inactive)
REMARK    1  A    between atoms: C_7  and  C_8
REMARK    2  A    between atoms: C_8  and  N_9
REMARK                            x       y       z     vdW  Elec       q    Type
REMARK                         _______ _______ _______ _____ _____    ______ ____
ROOT
ATOM      1  N   UNL     1      48.234   2.871   6.126  0.00  0.00    +0.000 NA
ATOM      2  C   UNL     1      47.406   2.084   6.719  0.00  0.00    +0.000 C 
ATOM      3  N   UNL     1      47.365   0.768   6.413  0.00  0.00    +0.000 N 
ATOM      4  N   UNL     1      46.487   2.496   7.641  0.00  0.00    +0.000 N 
ATOM      5  C   UNL     1      46.025   1.638   8.737  0.00  0.00    +0.000 C 
ATOM      6  C   UNL     1      44.533   1.876   8.934  0.00  0.00    +0.000 C 
ATOM      7  C   UNL     1      44.233   3.345   9.282  0.00  0.00    +0.000 C 
ATOM      8  C   UNL     1      44.867   4.258   8.214  0.00  0.00    +0.000 C 
ATOM      9  C   UNL     1      46.338   3.932   7.923  0.00  0.00    +0.000 C 
ATOM     10  H   UNL     1      48.820   2.332   5.489  0.00  0.00    +0.000 HD
ATOM     11  H   UNL     1      47.837   0.515   5.556  0.00  0.00    +0.000 HD
ATOM     12  H   UNL     1      46.420   0.404   6.419  0.00  0.00    +0.000 HD
ENDROOT
BRANCH   7  13
ATOM     13  C   UNL     1      44.682   3.742  10.707  0.00  0.00    +0.000 C 
BRANCH  13  14
ATOM     14  N   UNL     1      44.381   5.127  11.050  0.00  0.00    +0.000 N 
ATOM     15  C   UNL     1      43.106   5.639  11.099  0.00  0.00    +0.000 A 
ATOM     16  C   UNL     1      43.183   6.929  11.570  0.00  0.00    +0.000 A 
ATOM     17  C   UNL     1      44.555   7.233  11.775  0.00  0.00    +0.000 A 
ATOM     18  C   UNL     1      45.232   8.377  12.241  0.00  0.00    +0.000 A 
ATOM     19  C   UNL     1      46.629   8.376  12.300  0.00  0.00    +0.000 A 
ATOM     20  C   UNL     1      47.350   7.259  11.890  0.00  0.00    +0.000 A 
ATOM     21  C   UNL     1      46.700   6.106  11.437  0.00  0.00    +0.000 A 
ATOM     22  C   UNL     1      45.295   6.104  11.401  0.00  0.00    +0.000 A 
ENDBRANCH  13  14
ENDBRANCH   7  13
TORSDOF 2
ENDMDL
MODEL 4
REMARK VINA RESULT:    -6.005      2.057      2.609
REMARK INTER + INTRA:          -7.272
REMARK INTER:                  -8.546
REMARK INTRA:                   1.275
REMARK UNBOUND:                -0.565
REMARK  Name = 
REMARK  2 active torsions:
REMARK  status: ('A' for Active; 'I' for Inactive)
REMARK    1  A    between atoms: C_7  and  C_8
REMARK    2  A    between atoms: C_8  and  N_9
REMARK                            x       y       z     vdW  Elec       q    Type
REMARK                         _______ _______ _______ _____ _____    ______ ____
ROOT
ATOM      1  N   UNL     1      47.527   3.273  14.364  0.00  0.00    +0.000 NA
ATOM      2  C   UNL     1      46.842   4.339  14.137  0.00  0.00    +0.000 C 
ATOM      3  N   UNL     1      46.995   5.436  14.911  0.00  0.00    +0.000 N 
ATOM      4  N   UNL     1      45.890   4.442  13.163  0.00  0.00    +0.000 N 
ATOM      5  C   UNL     1      45.587   5.706  12.483  0.00  0.00    +0.000 C 
ATOM      6  C   UNL     1      44.080   5.784  12.268  0.00  0.00    +0.000 C 
ATOM      7  C   UNL     1      43.567   4.613  11.412  0.00  0.00    +0.000 C 
ATOM      8  C   UNL     1      44.032   3.284  12.039  0.00  0.00    +0.000 C 
ATOM      9  C   UNL     1      45.529   3.255  12.374  0.00  0.00    +0.000 C 
ATOM     10  H   UNL     1      48.176   3.442  15.133  0.00  0.00    +0.000 HD
ATOM     11  H   UNL     1      47.483   5.278  15.783  0.00  0.00    +0.000 HD
ATOM     12  H   UNL     1      46.117   5.913  15.077  0.00  0.00    +0.000 HD
ENDROOT
BRANCH   7  13
ATOM     13  C   UNL     1      43.980   4.713   9.925  0.00  0.00    +0.000 C 
BRANCH  13  14
ATOM     14  N   UNL     1      44.568   3.487   9.397  0.00  0.00    +0.000 N 
ATOM     15  C   UNL     1      44.128   2.228   9.730  0.00  0.00    +0.000 A 
ATOM     16  C   UNL     1      44.820   1.319   8.964  0.00  0.00    +0.000 A 
ATOM     17  C   UNL     1      45.745   2.043   8.166  0.00  0.00    +0.000 A 
ATOM     18  C   UNL     1      46.699   1.658   7.203  0.00  0.00    +0.000 A 
ATOM     19  C   UNL     1      47.503   2.630   6.600  0.00  0.00    +0.000 A 
ATOM     20  C   UNL     1      47.373   3.969   6.955  0.00  0.00    +0.000 A 
ATOM     21  C   UNL     1      46.424   4.378   7.898  0.00  0.00    +0.000 A 
ATOM     22  C   UNL     1      45.603   3.399   8.484  0.00  0.00    +0.000 A 
ENDBRANCH  13  14
ENDBRANCH   7  13
TORSDOF 2
ENDMDL
MODEL 5
REMARK VINA RESULT:    -5.934      2.608      4.031
REMARK INTER + INTRA:          -7.193
REMARK INTER:                  -6.732
REMARK INTRA:                  -0.461
REMARK UNBOUND:                -0.565
REMARK  Name = 
REMARK  2 active torsions:
REMARK  status: ('A' for Active; 'I' for Inactive)
REMARK    1  A    between atoms: C_7  and  C_8
REMARK    2  A    between atoms: C_8  and  N_9
REMARK                            x       y       z     vdW  Elec       q    Type
REMARK                         _______ _______ _______ _____ _____    ______ ____
ROOT
ATOM      1  N   UNL     1      48.907   8.725  16.366  0.00  0.00    +0.000 NA
ATOM      2  C   UNL     1      48.905   7.622  15.704  0.00  0.00    +0.000 C 
ATOM      3  N   UNL     1      49.694   6.590  16.079  0.00  0.00    +0.000 N 
ATOM      4  N   UNL     1      48.172   7.411  14.571  0.00  0.00    +0.000 N 
ATOM      5  C   UNL     1      47.657   6.091  14.195  0.00  0.00    +0.000 C 
ATOM      6  C   UNL     1      47.783   5.941  12.683  0.00  0.00    +0.000 C 
ATOM      7  C   UNL     1      46.988   7.026  11.937  0.00  0.00    +0.000 C 
ATOM      8  C   UNL     1      47.412   8.414  12.456  0.00  0.00    +0.000 C 
ATOM      9  C   UNL     1      47.408   8.523  13.986  0.00  0.00    +0.000 C 
ATOM     10  H   UNL     1      49.524   8.638  17.173  0.00  0.00    +0.000 HD
ATOM     11  H   UNL     1      50.425   6.830  16.735  0.00  0.00    +0.000 HD
ATOM     12  H   UNL     1      50.078   6.094  15.284  0.00  0.00    +0.000 HD
ENDROOT
BRANCH   7  13
ATOM     13  C   UNL     1      45.456   6.832  12.022  0.00  0.00    +0.000 C 
BRANCH  13  14
ATOM     14  N   UNL     1      45.030   5.452  11.819  0.00  0.00    +0.000 N 
ATOM     15  C   UNL     1      44.473   4.674  12.805  0.00  0.00    +0.000 A 
ATOM     16  C   UNL     1      44.082   3.483  12.239  0.00  0.00    +0.000 A 
ATOM     17  C   UNL     1      44.450   3.515  10.868  0.00  0.00    +0.000 A 
ATOM     18  C   UNL     1      44.305   2.600   9.806  0.00  0.00    +0.000 A 
ATOM     19  C   UNL     1      44.815   2.920   8.544  0.00  0.00    +0.000 A 
ATOM     20  C   UNL     1      45.474   4.128   8.337  0.00  0.00    +0.000 A 
ATOM     21  C   UNL     1      45.618   5.059   9.372  0.00  0.00    +0.000 A 
ATOM     22  C   UNL     1      45.084   4.742  10.632  0.00  0.00    +0.000 A 
ENDBRANCH  13  14
ENDBRANCH   7  13
TORSDOF 2
ENDMDL
MODEL 6
REMARK VINA RESULT:    -5.933      2.774      6.854
REMARK INTER + INTRA:          -7.192
REMARK INTER:                  -6.581
REMARK INTRA:                  -0.610
REMARK UNBOUND:                -0.565
REMARK  Name = 
REMARK  2 active torsions:
REMARK  status: ('A' for Active; 'I' for Inactive)
REMARK    1  A    between atoms: C_7  and  C_8
REMARK    2  A    between atoms: C_8  and  N_9
REMARK                            x       y       z     vdW  Elec       q    Type
REMARK                         _______ _______ _______ _____ _____    ______ ____
ROOT
ATOM      1  N   UNL     1      43.385   2.154  11.492  0.00  0.00    +0.000 NA
ATOM      2  C   UNL     1      43.996   3.054  10.806  0.00  0.00    +0.000 C 
ATOM      3  N   UNL     1      44.155   2.916   9.471  0.00  0.00    +0.000 N 
ATOM      4  N   UNL     1      44.569   4.170  11.348  0.00  0.00    +0.000 N 
ATOM      5  C   UNL     1      44.676   5.438  10.619  0.00  0.00    +0.000 C 
ATOM      6  C   UNL     1      46.025   6.067  10.948  0.00  0.00    +0.000 C 
ATOM      7  C   UNL     1      46.172   6.335  12.456  0.00  0.00    +0.000 C 
ATOM      8  C   UNL     1      45.893   5.034  13.234  0.00  0.00    +0.000 C 
ATOM      9  C   UNL     1      44.596   4.333  12.809  0.00  0.00    +0.000 C 
ATOM     10  H   UNL     1      43.040   1.425  10.868  0.00  0.00    +0.000 HD
ATOM     11  H   UNL     1      43.983   1.985   9.116  0.00  0.00    +0.000 HD
ATOM     12  H   UNL     1      45.056   3.255   9.156  0.00  0.00    +0.000 HD
ENDROOT
BRANCH   7  13
ATOM     13  C   UNL     1      45.289   7.499  12.961  0.00  0.00    +0.000 C 
BRANCH  13  14
ATOM     14  N   UNL     1      45.628   8.789  12.372  0.00  0.00    +0.000 N 
ATOM     15  C   UNL     1      46.816   9.441  12.598  0.00  0.00    +0.000 A 
ATOM     16  C   UNL     1      46.849  10.558  11.798  0.00  0.00    +0.000 A 
ATOM     17  C   UNL     1      45.621  10.617  11.088  0.00  0.00    +0.000 A 
ATOM     18  C   UNL     1      45.096  11.515  10.137  0.00  0.00    +0.000 A 
ATOM     19  C   UNL     1      43.807  11.313   9.635  0.00  0.00    +0.000 A 
ATOM     20  C   UNL     1      43.040  10.240  10.077  0.00  0.00    +0.000 A 
ATOM     21  C   UNL     1      43.544   9.327  11.010  0.00  0.00    +0.000 A 
ATOM     22  C   UNL     1      44.849   9.522  11.494  0.00  0.00    +0.000 A 
ENDBRANCH  13  14
ENDBRANCH   7  13
TORSDOF 2
ENDMDL
MODEL 7
REMARK VINA RESULT:    -5.862      2.107      6.324
REMARK INTER + INTRA:          -7.113
REMARK INTER:                  -6.895
REMARK INTRA:                  -0.217
REMARK UNBOUND:                -0.565
REMARK  Name = 
REMARK  2 active torsions:
REMARK  status: ('A' for Active; 'I' for Inactive)
REMARK    1  A    between atoms: C_7  and  C_8
REMARK    2  A    between atoms: C_8  and  N_9
REMARK                            x       y       z     vdW  Elec       q    Type
REMARK                         _______ _______ _______ _____ _____    ______ ____
ROOT
ATOM      1  N   UNL     1      45.160   3.429   8.090  0.00  0.00    +0.000 NA
ATOM      2  C   UNL     1      44.895   3.045   9.289  0.00  0.00    +0.000 C 
ATOM      3  N   UNL     1      44.509   1.774   9.538  0.00  0.00    +0.000 N 
ATOM      4  N   UNL     1      44.926   3.868  10.379  0.00  0.00    +0.000 N 
ATOM      5  C   UNL     1      45.262   3.388  11.724  0.00  0.00    +0.000 C 
ATOM      6  C   UNL     1      44.362   4.103  12.725  0.00  0.00    +0.000 C 
ATOM      7  C   UNL     1      44.552   5.629  12.670  0.00  0.00    +0.000 C 
ATOM      8  C   UNL     1      44.364   6.112  11.218  0.00  0.00    +0.000 C 
ATOM      9  C   UNL     1      45.173   5.306  10.195  0.00  0.00    +0.000 C 
ATOM     10  H   UNL     1      45.076   2.638   7.452  0.00  0.00    +0.000 HD
ATOM     11  H   UNL     1      44.223   1.248   8.723  0.00  0.00    +0.000 HD
ATOM     12  H   UNL     1      43.800   1.724  10.259  0.00  0.00    +0.000 HD
ENDROOT
BRANCH   7  13
ATOM     13  C   UNL     1      45.903   6.100  13.254  0.00  0.00    +0.000 C 
BRANCH  13  14
ATOM     14  N   UNL     1      46.290   7.440  12.825  0.00  0.00    +0.000 N 
ATOM     15  C   UNL     1      45.452   8.528  12.880  0.00  0.00    +0.000 A 
ATOM     16  C   UNL     1      46.174   9.640  12.516  0.00  0.00    +0.000 A 
ATOM     17  C   UNL     1      47.488   9.214  12.186  0.00  0.00    +0.000 A 
ATOM     18  C   UNL     1      48.646   9.893  11.758  0.00  0.00    +0.000 A 
ATOM     19  C   UNL     1      49.807   9.168  11.475  0.00  0.00    +0.000 A 
ATOM     20  C   UNL     1      49.819   7.782  11.602  0.00  0.00    +0.000 A 
ATOM     21  C   UNL     1      48.687   7.086  12.039  0.00  0.00    +0.000 A 
ATOM     22  C   UNL     1      47.529   7.823  12.343  0.00  0.00    +0.000 A 
ENDBRANCH  13  14
ENDBRANCH   7  13
TORSDOF 2
ENDMDL
MODEL 8
REMARK VINA RESULT:    -5.746      3.179      6.704
REMARK INTER + INTRA:          -6.983
REMARK INTER:                  -6.624
REMARK INTRA:                  -0.360
REMARK UNBOUND:                -0.565
REMARK  Name = 
REMARK  2 active torsions:
REMARK  status: ('A' for Active; 'I' for Inactive)
REMARK    1  A    between atoms: C_7  and  C_8
REMARK    2  A    between atoms: C_8  and  N_9
REMARK                            x       y       z     vdW  Elec       q    Type
REMARK                         _______ _______ _______ _____ _____    ______ ____
ROOT
ATOM      1  N   UNL     1      43.925   2.496  10.163  0.00  0.00    +0.000 NA
ATOM      2  C   UNL     1      44.151   2.921  11.356  0.00  0.00    +0.000 C 
ATOM      3  N   UNL     1      43.659   2.262  12.429  0.00  0.00    +0.000 N 
ATOM      4  N   UNL     1      44.838   4.067  11.643  0.00  0.00    +0.000 N 
ATOM      5  C   UNL     1      45.631   4.229  12.866  0.00  0.00    +0.000 C 
ATOM      6  C   UNL     1      45.448   5.656  13.368  0.00  0.00    +0.000 C 
ATOM      7  C   UNL     1      45.909   6.689  12.325  0.00  0.00    +0.000 C 
ATOM      8  C   UNL     1      45.197   6.411  10.986  0.00  0.00    +0.000 C 
ATOM      9  C   UNL     1      45.273   4.944  10.545  0.00  0.00    +0.000 C 
ATOM     10  H   UNL     1      43.400   1.623  10.205  0.00  0.00    +0.000 HD
ATOM     11  H   UNL     1      42.935   1.588  12.219  0.00  0.00    +0.000 HD
ATOM     12  H   UNL     1      43.356   2.894  13.160  0.00  0.00    +0.000 HD
ENDROOT
BRANCH   7  13
ATOM     13  C   UNL     1      47.444   6.742  12.151  0.00  0.00    +0.000 C 
BRANCH  13  14
ATOM     14  N   UNL     1      47.964   8.090  11.951  0.00  0.00    +0.000 N 
ATOM     15  C   UNL     1      47.225   9.229  12.161  0.00  0.00    +0.000 A 
ATOM     16  C   UNL     1      48.056  10.312  11.996  0.00  0.00    +0.000 A 
ATOM     17  C   UNL     1      49.337   9.822  11.631  0.00  0.00    +0.000 A 
ATOM     18  C   UNL     1      50.566  10.449  11.342  0.00  0.00    +0.000 A 
ATOM     19  C   UNL     1      51.668   9.671  10.973  0.00  0.00    +0.000 A 
ATOM     20  C   UNL     1      51.552   8.288  10.876  0.00  0.00    +0.000 A 
ATOM     21  C   UNL     1      50.347   7.641  11.171  0.00  0.00    +0.000 A 
ATOM     22  C   UNL     1      49.249   8.426  11.564  0.00  0.00    +0.000 A 
ENDBRANCH  13  14
ENDBRANCH   7  13
TORSDOF 2
ENDMDL
MODEL 9
REMARK VINA RESULT:    -5.722      2.869      6.810
REMARK INTER + INTRA:          -6.956
REMARK INTER:                  -6.806
REMARK INTRA:                  -0.150
REMARK UNBOUND:                -0.565
REMARK  Name = 
REMARK  2 active torsions:
REMARK  status: ('A' for Active; 'I' for Inactive)
REMARK    1  A    between atoms: C_7  and  C_8
REMARK    2  A    between atoms: C_8  and  N_9
REMARK                            x       y       z     vdW  Elec       q    Type
REMARK                         _______ _______ _______ _____ _____    ______ ____
ROOT
ATOM      1  N   UNL     1      43.232   2.149  11.737  0.00  0.00    +0.000 NA
ATOM      2  C   UNL     1      43.902   2.978  11.016  0.00  0.00    +0.000 C 
ATOM      3  N   UNL     1      44.102   2.744   9.700  0.00  0.00    +0.000 N 
ATOM      4  N   UNL     1      44.498   4.107  11.504  0.00  0.00    +0.000 N 
ATOM      5  C   UNL     1      44.680   5.318  10.697  0.00  0.00    +0.000 C 
ATOM      6  C   UNL     1      46.039   5.918  11.035  0.00  0.00    +0.000 C 
ATOM      7  C   UNL     1      46.144   6.282  12.526  0.00  0.00    +0.000 C 
ATOM      8  C   UNL     1      45.787   5.048  13.377  0.00  0.00    +0.000 C 
ATOM      9  C   UNL     1      44.479   4.367  12.951  0.00  0.00    +0.000 C 
ATOM     10  H   UNL     1      42.881   1.392  11.150  0.00  0.00    +0.000 HD
ATOM     11  H   UNL     1      43.907   1.798   9.401  0.00  0.00    +0.000 HD
ATOM     12  H   UNL     1      45.026   3.028   9.398  0.00  0.00    +0.000 HD
ENDROOT
BRANCH   7  13
ATOM     13  C   UNL     1      45.289   7.509  12.919  0.00  0.00    +0.000 C 
BRANCH  13  14
ATOM     14  N   UNL     1      45.747   8.757  12.319  0.00  0.00    +0.000 N 
ATOM     15  C   UNL     1      44.899   9.720  11.826  0.00  0.00    +0.000 A 
ATOM     16  C   UNL     1      45.658  10.803  11.450  0.00  0.00    +0.000 A 
ATOM     17  C   UNL     1      47.021  10.477  11.681  0.00  0.00    +0.000 A 
ATOM     18  C   UNL     1      48.228  11.181  11.496  0.00  0.00    +0.000 A 
ATOM     19  C   UNL     1      49.443  10.557  11.796  0.00  0.00    +0.000 A 
ATOM     20  C   UNL     1      49.465   9.246  12.261  0.00  0.00    +0.000 A 
ATOM     21  C   UNL     1      48.280   8.532  12.466  0.00  0.00    +0.000 A 
ATOM     22  C   UNL     1      47.060   9.172  12.185  0.00  0.00    +0.000 A 
ENDBRANCH  13  14
ENDBRANCH   7  13
TORSDOF 2
ENDMDL
