MODEL 1
REMARK VINA RESULT:    -8.399      0.000      0.000
REMARK INTER + INTRA:         -10.430
REMARK INTER:                 -10.363
REMARK INTRA:                  -0.067
REMARK UNBOUND:                -0.067
REMARK  Name = 
REMARK  5 active torsions:
REMARK  status: ('A' for Active; 'I' for Inactive)
REMARK    1  A    between atoms: N_1  and  C_2
REMARK    2  A    between atoms: C_2  and  C_3
REMARK    3  A    between atoms: C_7  and  C_8
REMARK    4  A    between atoms: C_8  and  N_9
REMARK    5  A    between atoms: C_15  and  O_16
REMARK                            x       y       z     vdW  Elec       q    Type
REMARK                         _______ _______ _______ _____ _____    ______ ____
ROOT
ATOM      1  C   UNL     1      44.001   2.927  10.413  0.00  0.00    +0.000 C 
ENDROOT
BRANCH   1   2
ATOM      2  N   UNL     1      44.144   4.126  11.212  0.00  0.00    +0.000 N 
ATOM      3  C   UNL     1      43.523   5.326  10.990  0.00  0.00    +0.000 A 
ATOM      4  N   UNL     1      44.041   6.288  11.724  0.00  0.00    +0.000 NA
ATOM      5  C   UNL     1      45.021   5.676  12.465  0.00  0.00    +0.000 A 
ATOM      6  C   UNL     1      45.963   6.192  13.361  0.00  0.00    +0.000 A 
ATOM      7  C   UNL     1      46.835   5.279  13.965  0.00  0.00    +0.000 A 
ATOM      8  C   UNL     1      46.711   3.925  13.667  0.00  0.00    +0.000 A 
ATOM      9  N   UNL     1      45.845   3.383  12.790  0.00  0.00    +0.000 NA
ATOM     10  C   UNL     1      45.049   4.310  12.221  0.00  0.00    +0.000 A 
BRANCH   8  11
ATOM     11  O   UNL     1      47.527   3.014  14.279  0.00  0.00    +0.000 OA
ATOM     12  H   UNL     1      48.179   3.503  14.800  0.00  0.00    +0.000 HD
ENDBRANCH   8  11
ENDBRANCH   1   2
BRANCH   1  17
ATOM     13  C   UNL     1      46.498   1.974   7.690  0.00  0.00    +0.000 A 
ATOM     14  C   UNL     1      46.710   3.245   7.162  0.00  0.00    +0.000 A 
ATOM     15  N   UNL     1      46.062   4.360   7.578  0.00  0.00    +0.000 NA
ATOM     16  C   UNL     1      45.190   4.208   8.595  0.00  0.00    +0.000 A 
ATOM     17  C   UNL     1      44.911   2.993   9.214  0.00  0.00    +0.000 A 
ATOM     18  C   UNL     1      45.584   1.862   8.741  0.00  0.00    +0.000 A 
BRANCH  13  19
ATOM     19  C   UNL     1      47.262   0.791   7.168  0.00  0.00    +0.000 C 
BRANCH  19  20
ATOM     20  N   UNL     1      46.799  -0.454   7.765  0.00  0.00    +0.000 NA
ATOM     21  H   UNL     1      47.421  -1.210   7.487  0.00  0.00    +0.000 HD
ATOM     22  H   UNL     1      45.883  -0.684   7.377  0.00  0.00    +0.000 HD
ENDBRANCH  19  20
ENDBRANCH  13  19
ENDBRANCH   1  17
TORSDOF 5
ENDMDL
MODEL 2
REMARK VINA RESULT:    -8.344      2.094      5.818
REMARK INTER + INTRA:         -10.362
REMARK INTER:                 -10.030
REMARK INTRA:                  -0.332
REMARK UNBOUND:                -0.067
REMARK  Name = 
REMARK  5 active torsions:
REMARK  status: ('A' for Active; 'I' for Inactive)
REMARK    1  A    between atoms: N_1  and  C_2
REMARK    2  A    between atoms: C_2  and  C_3
REMARK    3  A    between atoms: C_7  and  C_8
REMARK    4  A    between atoms: C_8  and  N_9
REMARK    5  A    between atoms: C_15  and  O_16
REMARK                            x       y       z     vdW  Elec       q    Type
REMARK                         _______ _______ _______ _____ _____    ______ ____
ROOT
ATOM      1  C   UNL     1      44.146   3.043   9.765  0.00  0.00    +0.000 C 
ENDROOT
BRANCH   1   2
ATOM      2  N   UNL     1      45.255   3.346   8.884  0.00  0.00    +0.000 N 
ATOM      3  C   UNL     1      45.612   4.587   8.429  0.00  0.00    +0.000 A 
ATOM      4  N   UNL     1      46.493   4.516   7.453  0.00  0.00    +0.000 NA
ATOM      5  C   UNL     1      46.728   3.173   7.289  0.00  0.00    +0.000 A 
ATOM      6  C   UNL     1      47.503   2.476   6.357  0.00  0.00    +0.000 A 
ATOM      7  C   UNL     1      47.535   1.081   6.470  0.00  0.00    +0.000 A 
ATOM      8  C   UNL     1      46.823   0.469   7.498  0.00  0.00    +0.000 A 
ATOM      9  N   UNL     1      46.039   1.091   8.399  0.00  0.00    +0.000 NA
ATOM     10  C   UNL     1      46.026   2.428   8.227  0.00  0.00    +0.000 A 
BRANCH   8  11
ATOM     11  O   UNL     1      46.875  -0.890   7.649  0.00  0.00    +0.000 OA
ATOM     12  H   UNL     1      47.667  -1.100   8.165  0.00  0.00    +0.000 HD
ENDBRANCH   8  11
ENDBRANCH   1   2
BRANCH   1  17
ATOM     13  C   UNL     1      45.257   4.643  13.046  0.00  0.00    +0.000 A 
ATOM     14  C   UNL     1      44.118   5.406  13.289  0.00  0.00    +0.000 A 
ATOM     15  N   UNL     1      43.061   5.486  12.447  0.00  0.00    +0.000 NA
ATOM     16  C   UNL     1      43.124   4.740  11.326  0.00  0.00    +0.000 A 
ATOM     17  C   UNL     1      44.200   3.925  10.985  0.00  0.00    +0.000 A 
ATOM     18  C   UNL     1      45.281   3.886  11.871  0.00  0.00    +0.000 A 
BRANCH  13  19
ATOM     19  C   UNL     1      46.385   4.612  14.037  0.00  0.00    +0.000 C 
BRANCH  19  20
ATOM     20  N   UNL     1      47.143   3.371  13.951  0.00  0.00    +0.000 NA
ATOM     21  H   UNL     1      46.897   2.887  13.090  0.00  0.00    +0.000 HD
ATOM     22  H   UNL     1      46.855   2.757  14.715  0.00  0.00    +0.000 HD
ENDBRANCH  19  20
ENDBRANCH  13  19
ENDBRANCH   1  17
TORSDOF 5
ENDMDL
MODEL 3
REMARK VINA RESULT:    -7.928      2.454      5.582
REMARK INTER + INTRA:          -9.848
REMARK INTER:                  -9.534
REMARK INTRA:                  -0.315
REMARK UNBOUND:                -0.067
REMARK  Name = 
REMARK  5 active torsions:
REMARK  status: ('A' for Active; 'I' for Inactive)
REMARK    1  A    between atoms: N_1  and  C_2
REMARK    2  A    between atoms: C_2  and  C_3
REMARK    3  A    between atoms: C_7  and  C_8
REMARK    4  A    between atoms: C_8  and  N_9
REMARK    5  A    between atoms: C_15  and  O_16
REMARK                            x       y       z     vdW  Elec       q    Type
REMARK                         _______ _______ _______ _____ _____    ______ ____
ROOT
ATOM      1  C   UNL     1      44.480   6.067  11.095  0.00  0.00    +0.000 C 
ENDROOT
BRANCH   1   2
ATOM      2  N   UNL     1      44.221   4.725  10.615  0.00  0.00    +0.000 N 
ATOM      3  C   UNL     1      43.450   3.778  11.232  0.00  0.00    +0.000 A 
ATOM      4  N   UNL     1      43.609   2.588  10.692  0.00  0.00    +0.000 NA
ATOM      5  C   UNL     1      44.503   2.784   9.669  0.00  0.00    +0.000 A 
ATOM      6  C   UNL     1      45.117   1.885   8.791  0.00  0.00    +0.000 A 
ATOM      7  C   UNL     1      45.994   2.420   7.840  0.00  0.00    +0.000 A 
ATOM      8  C   UNL     1      46.192   3.797   7.801  0.00  0.00    +0.000 A 
ATOM      9  N   UNL     1      45.651   4.700   8.642  0.00  0.00    +0.000 NA
ATOM     10  C   UNL     1      44.838   4.127   9.551  0.00  0.00    +0.000 A 
BRANCH   8  11
ATOM     11  O   UNL     1      47.013   4.343   6.852  0.00  0.00    +0.000 OA
ATOM     12  H   UNL     1      46.545   4.316   6.006  0.00  0.00    +0.000 HD
ENDBRANCH   8  11
ENDBRANCH   1   2
BRANCH   1  17
ATOM     13  C   UNL     1      47.003   5.357  13.869  0.00  0.00    +0.000 A 
ATOM     14  C   UNL     1      47.944   6.325  13.532  0.00  0.00    +0.000 A 
ATOM     15  N   UNL     1      47.851   7.135  12.451  0.00  0.00    +0.000 NA
ATOM     16  C   UNL     1      46.747   7.000  11.689  0.00  0.00    +0.000 A 
ATOM     17  C   UNL     1      45.731   6.082  11.936  0.00  0.00    +0.000 A 
ATOM     18  C   UNL     1      45.875   5.250  13.050  0.00  0.00    +0.000 A 
BRANCH  13  19
ATOM     19  C   UNL     1      47.186   4.501  15.089  0.00  0.00    +0.000 C 
BRANCH  19  20
ATOM     20  N   UNL     1      47.559   3.137  14.740  0.00  0.00    +0.000 NA
ATOM     21  H   UNL     1      47.817   2.633  15.585  0.00  0.00    +0.000 HD
ATOM     22  H   UNL     1      48.398   3.165  14.158  0.00  0.00    +0.000 HD
ENDBRANCH  19  20
ENDBRANCH  13  19
ENDBRANCH   1  17
TORSDOF 5
ENDMDL
MODEL 4
REMARK VINA RESULT:    -7.533      2.689      5.705
REMARK INTER + INTRA:          -9.361
REMARK INTER:                  -9.039
REMARK INTRA:                  -0.321
REMARK UNBOUND:                -0.067
REMARK  Name = 
REMARK  5 active torsions:
REMARK  status: ('A' for Active; 'I' for Inactive)
REMARK    1  A    between atoms: N_1  and  C_2
REMARK    2  A    between atoms: C_2  and  C_3
REMARK    3  A    between atoms: C_7  and  C_8
REMARK    4  A    between atoms: C_8  and  N_9
REMARK    5  A    between atoms: C_15  and  O_16
REMARK                            x       y       z     vdW  Elec       q    Type
REMARK                         _______ _______ _______ _____ _____    ______ ____
ROOT
ATOM      1  C   UNL     1      44.285   6.244  11.288  0.00  0.00    +0.000 C 
ENDROOT
BRANCH   1   2
ATOM      2  N   UNL     1      44.025   4.895  10.828  0.00  0.00    +0.000 N 
ATOM      3  C   UNL     1      43.251   3.960  11.459  0.00  0.00    +0.000 A 
ATOM      4  N   UNL     1      43.410   2.761  10.939  0.00  0.00    +0.000 NA
ATOM      5  C   UNL     1      44.308   2.939   9.916  0.00  0.00    +0.000 A 
ATOM      6  C   UNL     1      44.924   2.024   9.056  0.00  0.00    +0.000 A 
ATOM      7  C   UNL     1      45.804   2.542   8.098  0.00  0.00    +0.000 A 
ATOM      8  C   UNL     1      46.004   3.918   8.038  0.00  0.00    +0.000 A 
ATOM      9  N   UNL     1      45.462   4.836   8.861  0.00  0.00    +0.000 NA
ATOM     10  C   UNL     1      44.644   4.278   9.777  0.00  0.00    +0.000 A 
BRANCH   8  11
ATOM     11  O   UNL     1      46.829   4.447   7.083  0.00  0.00    +0.000 OA
ATOM     12  H   UNL     1      46.926   3.790   6.379  0.00  0.00    +0.000 HD
ENDBRANCH   8  11
ENDBRANCH   1   2
BRANCH   1  17
ATOM     13  C   UNL     1      47.859   7.071  12.335  0.00  0.00    +0.000 A 
ATOM     14  C   UNL     1      47.978   6.152  13.374  0.00  0.00    +0.000 A 
ATOM     15  N   UNL     1      46.977   5.343  13.793  0.00  0.00    +0.000 NA
ATOM     16  C   UNL     1      45.812   5.425  13.120  0.00  0.00    +0.000 A 
ATOM     17  C   UNL     1      45.581   6.289  12.054  0.00  0.00    +0.000 A 
ATOM     18  C   UNL     1      46.633   7.124  11.665  0.00  0.00    +0.000 A 
BRANCH  13  19
ATOM     19  C   UNL     1      49.023   7.931  11.935  0.00  0.00    +0.000 C 
BRANCH  19  20
ATOM     20  N   UNL     1      50.294   7.259  12.166  0.00  0.00    +0.000 NA
ATOM     21  H   UNL     1      50.805   7.751  12.896  0.00  0.00    +0.000 HD
ATOM     22  H   UNL     1      50.864   7.333  11.322  0.00  0.00    +0.000 HD
ENDBRANCH  19  20
ENDBRANCH  13  19
ENDBRANCH   1  17
TORSDOF 5
ENDMDL
MODEL 5
REMARK VINA RESULT:    -7.357      1.827      2.482
REMARK INTER + INTRA:          -9.144
REMARK INTER:                  -8.807
REMARK INTRA:                  -0.337
REMARK UNBOUND:                -0.067
REMARK  Name = 
REMARK  5 active torsions:
REMARK  status: ('A' for Active; 'I' for Inactive)
REMARK    1  A    between atoms: N_1  and  C_2
REMARK    2  A    between atoms: C_2  and  C_3
REMARK    3  A    between atoms: C_7  and  C_8
REMARK    4  A    between atoms: C_8  and  N_9
REMARK    5  A    between atoms: C_15  and  O_16
REMARK                            x       y       z     vdW  Elec       q    Type
REMARK                         _______ _______ _______ _____ _____    ______ ____
ROOT
ATOM      1  C   UNL     1      44.105   3.127  10.316  0.00  0.00    +0.000 C 
ENDROOT
BRANCH   1   2
ATOM      2  N   UNL     1      44.913   3.685  11.381  0.00  0.00    +0.000 N 
ATOM      3  C   UNL     1      45.529   2.985  12.383  0.00  0.00    +0.000 A 
ATOM      4  N   UNL     1      45.973   3.779  13.335  0.00  0.00    +0.000 NA
ATOM      5  C   UNL     1      45.648   5.045  12.915  0.00  0.00    +0.000 A 
ATOM      6  C   UNL     1      45.788   6.291  13.535  0.00  0.00    +0.000 A 
ATOM      7  C   UNL     1      45.353   7.412  12.820  0.00  0.00    +0.000 A 
ATOM      8  C   UNL     1      44.830   7.239  11.542  0.00  0.00    +0.000 A 
ATOM      9  N   UNL     1      44.645   6.061  10.914  0.00  0.00    +0.000 NA
ATOM     10  C   UNL     1      45.058   5.017  11.659  0.00  0.00    +0.000 A 
BRANCH   8  11
ATOM     11  O   UNL     1      44.437   8.327  10.811  0.00  0.00    +0.000 OA
ATOM     12  H   UNL     1      44.921   9.096  11.143  0.00  0.00    +0.000 HD
ENDBRANCH   8  11
ENDBRANCH   1   2
BRANCH   1  17
ATOM     13  C   UNL     1      46.517   1.777   7.686  0.00  0.00    +0.000 A 
ATOM     14  C   UNL     1      46.564   2.901   6.865  0.00  0.00    +0.000 A 
ATOM     15  N   UNL     1      45.832   4.022   7.066  0.00  0.00    +0.000 NA
ATOM     16  C   UNL     1      45.043   4.040   8.160  0.00  0.00    +0.000 A 
ATOM     17  C   UNL     1      44.929   2.987   9.062  0.00  0.00    +0.000 A 
ATOM     18  C   UNL     1      45.685   1.839   8.807  0.00  0.00    +0.000 A 
BRANCH  13  19
ATOM     19  C   UNL     1      47.366   0.575   7.388  0.00  0.00    +0.000 C 
BRANCH  19  20
ATOM     20  N   UNL     1      46.663  -0.666   7.683  0.00  0.00    +0.000 NA
ATOM     21  H   UNL     1      46.714  -1.281   6.873  0.00  0.00    +0.000 HD
ATOM     22  H   UNL     1      45.673  -0.459   7.820  0.00  0.00    +0.000 HD
ENDBRANCH  19  20
ENDBRANCH  13  19
ENDBRANCH   1  17
TORSDOF 5
ENDMDL
MODEL 6
REMARK VINA RESULT:    -6.844      1.330      2.092
REMARK INTER + INTRA:          -8.511
REMARK INTER:                  -8.246
REMARK INTRA:                  -0.265
REMARK UNBOUND:                -0.067
REMARK  Name = 
REMARK  5 active torsions:
REMARK  status: ('A' for Active; 'I' for Inactive)
REMARK    1  A    between atoms: N_1  and  C_2
REMARK    2  A    between atoms: C_2  and  C_3
REMARK    3  A    between atoms: C_7  and  C_8
REMARK    4  A    between atoms: C_8  and  N_9
REMARK    5  A    between atoms: C_15  and  O_16
REMARK                            x       y       z     vdW  Elec       q    Type
REMARK                         _______ _______ _______ _____ _____    ______ ____
ROOT
ATOM      1  C   UNL     1      43.476   4.767  10.962  0.00  0.00    +0.000 C 
ENDROOT
BRANCH   1   2
ATOM      2  N   UNL     1      44.306   5.750  11.626  0.00  0.00    +0.000 N 
ATOM      3  C   UNL     1      44.301   7.100  11.400  0.00  0.00    +0.000 A 
ATOM      4  N   UNL     1      45.331   7.695  11.964  0.00  0.00    +0.000 NA
ATOM      5  C   UNL     1      46.014   6.688  12.599  0.00  0.00    +0.000 A 
ATOM      6  C   UNL     1      47.226   6.687  13.296  0.00  0.00    +0.000 A 
ATOM      7  C   UNL     1      47.650   5.468  13.838  0.00  0.00    +0.000 A 
ATOM      8  C   UNL     1      46.849   4.341  13.677  0.00  0.00    +0.000 A 
ATOM      9  N   UNL     1      45.693   4.282  12.989  0.00  0.00    +0.000 NA
ATOM     10  C   UNL     1      45.347   5.477  12.469  0.00  0.00    +0.000 A 
BRANCH   8  11
ATOM     11  O   UNL     1      47.226   3.150  14.234  0.00  0.00    +0.000 OA
ATOM     12  H   UNL     1      46.719   2.448  13.802  0.00  0.00    +0.000 HD
ENDBRANCH   8  11
ENDBRANCH   1   2
BRANCH   1  17
ATOM     13  C   UNL     1      45.861   3.660   8.197  0.00  0.00    +0.000 A 
ATOM     14  C   UNL     1      45.649   2.287   8.291  0.00  0.00    +0.000 A 
ATOM     15  N   UNL     1      44.850   1.701   9.214  0.00  0.00    +0.000 NA
ATOM     16  C   UNL     1      44.200   2.525  10.061  0.00  0.00    +0.000 A 
ATOM     17  C   UNL     1      44.317   3.912  10.050  0.00  0.00    +0.000 A 
ATOM     18  C   UNL     1      45.168   4.477   9.095  0.00  0.00    +0.000 A 
BRANCH  13  19
ATOM     19  C   UNL     1      46.765   4.225   7.139  0.00  0.00    +0.000 C 
BRANCH  19  20
ATOM     20  N   UNL     1      47.096   3.233   6.126  0.00  0.00    +0.000 NA
ATOM     21  H   UNL     1      46.788   3.568   5.216  0.00  0.00    +0.000 HD
ATOM     22  H   UNL     1      46.561   2.383   6.312  0.00  0.00    +0.000 HD
ENDBRANCH  19  20
ENDBRANCH  13  19
ENDBRANCH   1  17
TORSDOF 5
ENDMDL
MODEL 7
REMARK VINA RESULT:    -6.344      4.173      7.497
REMARK INTER + INTRA:          -7.894
REMARK INTER:                  -7.496
REMARK INTRA:                  -0.398
REMARK UNBOUND:                -0.067
REMARK  Name = 
REMARK  5 active torsions:
REMARK  status: ('A' for Active; 'I' for Inactive)
REMARK    1  A    between atoms: N_1  and  C_2
REMARK    2  A    between atoms: C_2  and  C_3
REMARK    3  A    between atoms: C_7  and  C_8
REMARK    4  A    between atoms: C_8  and  N_9
REMARK    5  A    between atoms: C_15  and  O_16
REMARK                            x       y       z     vdW  Elec       q    Type
REMARK                         _______ _______ _______ _____ _____    ______ ____
ROOT
ATOM      1  C   UNL     1      47.427   4.772  16.507  0.00  0.00    +0.000 C 
ENDROOT
BRANCH   1   2
ATOM      2  N   UNL     1      47.570   5.337  15.181  0.00  0.00    +0.000 N 
ATOM      3  C   UNL     1      48.298   6.447  14.847  0.00  0.00    +0.000 A 
ATOM      4  N   UNL     1      48.031   6.858  13.625  0.00  0.00    +0.000 NA
ATOM      5  C   UNL     1      47.111   5.960  13.146  0.00  0.00    +0.000 A 
ATOM      6  C   UNL     1      46.397   5.918  11.944  0.00  0.00    +0.000 A 
ATOM      7  C   UNL     1      45.522   4.841  11.759  0.00  0.00    +0.000 A 
ATOM      8  C   UNL     1      45.420   3.873  12.753  0.00  0.00    +0.000 A 
ATOM      9  N   UNL     1      46.059   3.884  13.939  0.00  0.00    +0.000 NA
ATOM     10  C   UNL     1      46.868   4.954  14.072  0.00  0.00    +0.000 A 
BRANCH   8  11
ATOM     11  O   UNL     1      44.601   2.792  12.573  0.00  0.00    +0.000 OA
ATOM     12  H   UNL     1      44.535   2.626  11.622  0.00  0.00    +0.000 HD
ENDBRANCH   8  11
ENDBRANCH   1   2
BRANCH   1  17
ATOM     13  C   UNL     1      50.739   3.246  17.633  0.00  0.00    +0.000 A 
ATOM     14  C   UNL     1      50.600   2.002  17.022  0.00  0.00    +0.000 A 
ATOM     15  N   UNL     1      49.501   1.608  16.338  0.00  0.00    +0.000 NA
ATOM     16  C   UNL     1      48.505   2.510  16.223  0.00  0.00    +0.000 A 
ATOM     17  C   UNL     1      48.538   3.788  16.771  0.00  0.00    +0.000 A 
ATOM     18  C   UNL     1      49.682   4.150  17.489  0.00  0.00    +0.000 A 
BRANCH  13  19
ATOM     19  C   UNL     1      51.996   3.602  18.373  0.00  0.00    +0.000 C 
BRANCH  19  20
ATOM     20  N   UNL     1      52.717   2.415  18.810  0.00  0.00    +0.000 NA
ATOM     21  H   UNL     1      52.137   1.593  18.655  0.00  0.00    +0.000 HD
ATOM     22  H   UNL     1      52.864   2.473  19.819  0.00  0.00    +0.000 HD
ENDBRANCH  19  20
ENDBRANCH  13  19
ENDBRANCH   1  17
TORSDOF 5
ENDMDL
MODEL 8
REMARK VINA RESULT:    -6.187      2.492      3.866
REMARK INTER + INTRA:          -7.701
REMARK INTER:                  -7.315
REMARK INTRA:                  -0.386
REMARK UNBOUND:                -0.067
REMARK  Name = 
REMARK  5 active torsions:
REMARK  status: ('A' for Active; 'I' for Inactive)
REMARK    1  A    between atoms: N_1  and  C_2
REMARK    2  A    between atoms: C_2  and  C_3
REMARK    3  A    between atoms: C_7  and  C_8
REMARK    4  A    between atoms: C_8  and  N_9
REMARK    5  A    between atoms: C_15  and  O_16
REMARK                            x       y       z     vdW  Elec       q    Type
REMARK                         _______ _______ _______ _____ _____    ______ ____
ROOT
ATOM      1  C   UNL     1      44.456   5.336  12.127  0.00  0.00    +0.000 C 
ENDROOT
BRANCH   1   2
ATOM      2  N   UNL     1      45.768   5.537  12.707  0.00  0.00    +0.000 N 
ATOM      3  C   UNL     1      46.556   4.575  13.281  0.00  0.00    +0.000 A 
ATOM      4  N   UNL     1      47.568   5.100  13.939  0.00  0.00    +0.000 NA
ATOM      5  C   UNL     1      47.437   6.455  13.762  0.00  0.00    +0.000 A 
ATOM      6  C   UNL     1      48.162   7.531  14.284  0.00  0.00    +0.000 A 
ATOM      7  C   UNL     1      47.767   8.816  13.893  0.00  0.00    +0.000 A 
ATOM      8  C   UNL     1      46.706   8.956  13.003  0.00  0.00    +0.000 A 
ATOM      9  N   UNL     1      45.958   7.957  12.498  0.00  0.00    +0.000 NA
ATOM     10  C   UNL     1      46.366   6.746  12.928  0.00  0.00    +0.000 A 
BRANCH   8  11
ATOM     11  O   UNL     1      46.332  10.201  12.577  0.00  0.00    +0.000 OA
ATOM     12  H   UNL     1      45.689  10.088  11.862  0.00  0.00    +0.000 HD
ENDBRANCH   8  11
ENDBRANCH   1   2
BRANCH   1  17
ATOM     13  C   UNL     1      45.126   3.467   8.869  0.00  0.00    +0.000 A 
ATOM     14  C   UNL     1      44.389   2.318   9.145  0.00  0.00    +0.000 A 
ATOM     15  N   UNL     1      43.756   2.084  10.319  0.00  0.00    +0.000 NA
ATOM     16  C   UNL     1      43.826   3.058  11.248  0.00  0.00    +0.000 A 
ATOM     17  C   UNL     1      44.514   4.255  11.079  0.00  0.00    +0.000 A 
ATOM     18  C   UNL     1      45.174   4.450   9.862  0.00  0.00    +0.000 A 
BRANCH  13  19
ATOM     19  C   UNL     1      45.798   3.645   7.538  0.00  0.00    +0.000 C 
BRANCH  19  20
ATOM     20  N   UNL     1      46.781   4.720   7.570  0.00  0.00    +0.000 NA
ATOM     21  H   UNL     1      47.480   4.556   6.849  0.00  0.00    +0.000 HD
ATOM     22  H   UNL     1      47.278   4.684   8.462  0.00  0.00    +0.000 HD
ENDBRANCH  19  20
ENDBRANCH  13  19
ENDBRANCH   1  17
TORSDOF 5
ENDMDL
MODEL 9
REMARK VINA RESULT:    -6.153      3.102      6.257
REMARK INTER + INTRA:          -7.658
REMARK INTER:                  -7.507
REMARK INTRA:                  -0.151
REMARK UNBOUND:                -0.067
REMARK  Name = 
REMARK  5 active torsions:
REMARK  status: ('A' for Active; 'I' for Inactive)
REMARK    1  A    between atoms: N_1  and  C_2
REMARK    2  A    between atoms: C_2  and  C_3
REMARK    3  A    between atoms: C_7  and  C_8
REMARK    4  A    between atoms: C_8  and  N_9
REMARK    5  A    between atoms: C_15  and  O_16
REMARK                            x       y       z     vdW  Elec       q    Type
REMARK                         _______ _______ _______ _____ _____    ______ ____
ROOT
ATOM      1  C   UNL     1      47.120   6.622  12.192  0.00  0.00    +0.000 C 
ENDROOT
BRANCH   1   2
ATOM      2  N   UNL     1      46.059   5.649  12.355  0.00  0.00    +0.000 N 
ATOM      3  C   UNL     1      45.609   5.133  13.540  0.00  0.00    +0.000 A 
ATOM      4  N   UNL     1      44.821   4.094  13.354  0.00  0.00    +0.000 NA
ATOM      5  C   UNL     1      44.745   3.952  11.991  0.00  0.00    +0.000 A 
ATOM      6  C   UNL     1      44.125   2.983  11.195  0.00  0.00    +0.000 A 
ATOM      7  C   UNL     1      44.234   3.133   9.808  0.00  0.00    +0.000 A 
ATOM      8  C   UNL     1      44.922   4.229   9.297  0.00  0.00    +0.000 A 
ATOM      9  N   UNL     1      45.561   5.170  10.019  0.00  0.00    +0.000 NA
ATOM     10  C   UNL     1      45.445   4.961  11.345  0.00  0.00    +0.000 A 
BRANCH   8  11
ATOM     11  O   UNL     1      45.003   4.416   7.944  0.00  0.00    +0.000 OA
ATOM     12  H   UNL     1      44.380   5.116   7.704  0.00  0.00    +0.000 HD
ENDBRANCH   8  11
ENDBRANCH   1   2
BRANCH   1  17
ATOM     13  C   UNL     1      44.773   9.533  11.435  0.00  0.00    +0.000 A 
ATOM     14  C   UNL     1      45.641  10.575  11.755  0.00  0.00    +0.000 A 
ATOM     15  N   UNL     1      46.888  10.401  12.251  0.00  0.00    +0.000 NA
ATOM     16  C   UNL     1      47.308   9.128  12.399  0.00  0.00    +0.000 A 
ATOM     17  C   UNL     1      46.539   8.009  12.096  0.00  0.00    +0.000 A 
ATOM     18  C   UNL     1      45.248   8.230  11.606  0.00  0.00    +0.000 A 
BRANCH  13  19
ATOM     19  C   UNL     1      43.403   9.817  10.889  0.00  0.00    +0.000 C 
BRANCH  19  20
ATOM     20  N   UNL     1      42.568   8.624  10.884  0.00  0.00    +0.000 NA
ATOM     21  H   UNL     1      42.362   8.363   9.922  0.00  0.00    +0.000 HD
ATOM     22  H   UNL     1      41.670   8.850  11.315  0.00  0.00    +0.000 HD
ENDBRANCH  19  20
ENDBRANCH  13  19
ENDBRANCH   1  17
TORSDOF 5
ENDMDL
