MODEL 1
REMARK VINA RESULT:    -8.154      0.000      0.000
REMARK INTER + INTRA:         -11.456
REMARK INTER:                 -11.014
REMARK INTRA:                  -0.442
REMARK UNBOUND:                -0.442
REMARK  Name = 
REMARK  8 active torsions:
REMARK  status: ('A' for Active; 'I' for Inactive)
REMARK    1  A    between atoms: C_1  and  C_2
REMARK    2  A    between atoms: C_2  and  C_3
REMARK    3  A    between atoms: C_2  and  C_4
REMARK    4  A    between atoms: N_6  and  C_7
REMARK    5  A    between atoms: C_11  and  C_12
REMARK    6  A    between atoms: C_13  and  O_14
REMARK    7  A    between atoms: O_14  and  C_15
REMARK    8  A    between atoms: C_18  and  C_19
REMARK                            x       y       z     vdW  Elec       q    Type
REMARK                         _______ _______ _______ _____ _____    ______ ____
ROOT
ATOM      1  C   UNL     1      47.409   7.247  13.686  0.00  0.00    +0.000 A 
ATOM      2  C   UNL     1      47.001   8.584  13.783  0.00  0.00    +0.000 A 
ATOM      3  C   UNL     1      46.017   9.118  12.946  0.00  0.00    +0.000 A 
ATOM      4  C   UNL     1      45.424   8.323  11.970  0.00  0.00    +0.000 A 
ATOM      5  C   UNL     1      45.803   6.986  11.828  0.00  0.00    +0.000 A 
ATOM      6  C   UNL     1      46.785   6.469  12.692  0.00  0.00    +0.000 A 
ENDROOT
BRANCH   1   9
ATOM      7  C   UNL     1      48.558   5.656  16.747  0.00  0.00    +0.000 C 
ATOM      8  C   UNL     1      48.138   5.452  15.271  0.00  0.00    +0.000 C 
ATOM      9  N   UNL     1      48.353   6.708  14.532  0.00  0.00    +0.000 N 
ATOM     10  C   UNL     1      49.733   7.204  14.630  0.00  0.00    +0.000 C 
ATOM     11  C   UNL     1      50.092   7.354  16.118  0.00  0.00    +0.000 C 
ATOM     12  O   UNL     1      49.927   6.114  16.829  0.00  0.00    +0.000 OA
BRANCH   7  14
ATOM     13  C   UNL     1      47.330   3.422  17.043  0.00  0.00    +0.000 C 
ATOM     14  C   UNL     1      48.403   4.369  17.589  0.00  0.00    +0.000 C 
ATOM     15  C   UNL     1      49.738   3.619  17.675  0.00  0.00    +0.000 C 
ENDBRANCH   7  14
ENDBRANCH   1   9
BRANCH   5  16
ATOM     16  C   UNL     1      45.271   6.131  10.756  0.00  0.00    +0.000 C 
ATOM     17  C   UNL     1      44.239   5.294  10.912  0.00  0.00    +0.000 C 
BRANCH  17  18
ATOM     18  O   UNL     1      43.727   4.537   9.879  0.00  0.00    +0.000 OA
BRANCH  18  19
ATOM     19  C   UNL     1      44.644   3.781   9.170  0.00  0.00    +0.000 A 
ATOM     20  C   UNL     1      44.828   2.447   9.515  0.00  0.00    +0.000 A 
ATOM     21  N   UNL     1      45.684   1.624   8.851  0.00  0.00    +0.000 NA
ATOM     22  C   UNL     1      46.332   2.213   7.803  0.00  0.00    +0.000 A 
ATOM     23  C   UNL     1      46.140   3.541   7.451  0.00  0.00    +0.000 A 
ATOM     24  N   UNL     1      45.294   4.355   8.128  0.00  0.00    +0.000 NA
BRANCH  22  25
ATOM     25  C   UNL     1      47.289   1.392   7.012  0.00  0.00    +0.000 C 
ATOM     26  N   UNL     1      48.408   2.031   6.563  0.00  0.00    +0.000 N 
ATOM     27  O   UNL     1      47.095   0.203   6.782  0.00  0.00    +0.000 OA
ATOM     28  H   UNL     1      48.551   3.014   6.762  0.00  0.00    +0.000 HD
ATOM     29  H   UNL     1      49.088   1.516   6.020  0.00  0.00    +0.000 HD
ENDBRANCH  22  25
ENDBRANCH  18  19
ENDBRANCH  17  18
ENDBRANCH   5  16
TORSDOF 6
ENDMDL
MODEL 2
REMARK VINA RESULT:    -7.646      1.398      2.139
REMARK INTER + INTRA:         -10.769
REMARK INTER:                 -10.243
REMARK INTRA:                  -0.526
REMARK UNBOUND:                -0.442
REMARK  Name = 
REMARK  8 active torsions:
REMARK  status: ('A' for Active; 'I' for Inactive)
REMARK    1  A    between atoms: C_1  and  C_2
REMARK    2  A    between atoms: C_2  and  C_3
REMARK    3  A    between atoms: C_2  and  C_4
REMARK    4  A    between atoms: N_6  and  C_7
REMARK    5  A    between atoms: C_11  and  C_12
REMARK    6  A    between atoms: C_13  and  O_14
REMARK    7  A    between atoms: O_14  and  C_15
REMARK    8  A    between atoms: C_18  and  C_19
REMARK                            x       y       z     vdW  Elec       q    Type
REMARK                         _______ _______ _______ _____ _____    ______ ____
ROOT
ATOM      1  C   UNL     1      47.928   6.096  14.773  0.00  0.00    +0.000 A 
ATOM      2  C   UNL     1      48.672   7.281  14.705  0.00  0.00    +0.000 A 
ATOM      3  C   UNL     1      48.647   8.104  13.575  0.00  0.00    +0.000 A 
ATOM      4  C   UNL     1      47.883   7.748  12.469  0.00  0.00    +0.000 A 
ATOM      5  C   UNL     1      47.130   6.571  12.485  0.00  0.00    +0.000 A 
ATOM      6  C   UNL     1      47.161   5.768  13.639  0.00  0.00    +0.000 A 
ENDROOT
BRANCH   1   9
ATOM      7  C   UNL     1      49.328   4.707  17.829  0.00  0.00    +0.000 C 
ATOM      8  C   UNL     1      48.390   5.774  17.213  0.00  0.00    +0.000 C 
ATOM      9  N   UNL     1      47.922   5.301  15.899  0.00  0.00    +0.000 N 
ATOM     10  C   UNL     1      47.266   3.988  15.960  0.00  0.00    +0.000 C 
ATOM     11  C   UNL     1      48.239   2.989  16.608  0.00  0.00    +0.000 C 
ATOM     12  O   UNL     1      48.660   3.428  17.912  0.00  0.00    +0.000 OA
BRANCH   7  14
ATOM     13  C   UNL     1      48.938   4.589  20.363  0.00  0.00    +0.000 C 
ATOM     14  C   UNL     1      49.835   5.106  19.233  0.00  0.00    +0.000 C 
ATOM     15  C   UNL     1      51.264   4.598  19.453  0.00  0.00    +0.000 C 
ENDBRANCH   7  14
ENDBRANCH   1   9
BRANCH   5  16
ATOM     16  C   UNL     1      46.377   6.106  11.310  0.00  0.00    +0.000 C 
ATOM     17  C   UNL     1      45.308   5.304  11.378  0.00  0.00    +0.000 C 
BRANCH  17  18
ATOM     18  O   UNL     1      44.590   4.919  10.265  0.00  0.00    +0.000 OA
BRANCH  18  19
ATOM     19  C   UNL     1      45.276   4.160   9.333  0.00  0.00    +0.000 A 
ATOM     20  C   UNL     1      45.213   2.774   9.417  0.00  0.00    +0.000 A 
ATOM     21  N   UNL     1      45.829   1.952   8.524  0.00  0.00    +0.000 NA
ATOM     22  C   UNL     1      46.498   2.604   7.527  0.00  0.00    +0.000 A 
ATOM     23  C   UNL     1      46.552   3.988   7.438  0.00  0.00    +0.000 A 
ATOM     24  N   UNL     1      45.944   4.796   8.340  0.00  0.00    +0.000 NA
BRANCH  22  25
ATOM     25  C   UNL     1      47.203   1.791   6.500  0.00  0.00    +0.000 C 
ATOM     26  N   UNL     1      47.937   2.482   5.580  0.00  0.00    +0.000 N 
ATOM     27  O   UNL     1      47.143   0.566   6.481  0.00  0.00    +0.000 OA
ATOM     28  H   UNL     1      47.975   3.494   5.610  0.00  0.00    +0.000 HD
ATOM     29  H   UNL     1      48.434   1.975   4.860  0.00  0.00    +0.000 HD
ENDBRANCH  22  25
ENDBRANCH  18  19
ENDBRANCH  17  18
ENDBRANCH   5  16
TORSDOF 6
ENDMDL
MODEL 3
REMARK VINA RESULT:    -7.424      3.024      8.446
REMARK INTER + INTRA:         -10.470
REMARK INTER:                  -9.830
REMARK INTRA:                  -0.640
REMARK UNBOUND:                -0.442
REMARK  Name = 
REMARK  8 active torsions:
REMARK  status: ('A' for Active; 'I' for Inactive)
REMARK    1  A    between atoms: C_1  and  C_2
REMARK    2  A    between atoms: C_2  and  C_3
REMARK    3  A    between atoms: C_2  and  C_4
REMARK    4  A    between atoms: N_6  and  C_7
REMARK    5  A    between atoms: C_11  and  C_12
REMARK    6  A    between atoms: C_13  and  O_14
REMARK    7  A    between atoms: O_14  and  C_15
REMARK    8  A    between atoms: C_18  and  C_19
REMARK                            x       y       z     vdW  Elec       q    Type
REMARK                         _______ _______ _______ _____ _____    ______ ____
ROOT
ATOM      1  C   UNL     1      46.542   6.178  12.461  0.00  0.00    +0.000 A 
ATOM      2  C   UNL     1      47.213   7.182  11.752  0.00  0.00    +0.000 A 
ATOM      3  C   UNL     1      48.350   7.813  12.265  0.00  0.00    +0.000 A 
ATOM      4  C   UNL     1      48.837   7.463  13.520  0.00  0.00    +0.000 A 
ATOM      5  C   UNL     1      48.197   6.473  14.270  0.00  0.00    +0.000 A 
ATOM      6  C   UNL     1      47.064   5.843  13.726  0.00  0.00    +0.000 A 
ENDROOT
BRANCH   1   9
ATOM      7  C   UNL     1      44.518   4.740   9.804  0.00  0.00    +0.000 C 
ATOM      8  C   UNL     1      45.547   4.467  10.928  0.00  0.00    +0.000 C 
ATOM      9  N   UNL     1      45.442   5.528  11.944  0.00  0.00    +0.000 N 
ATOM     10  C   UNL     1      44.085   5.672  12.488  0.00  0.00    +0.000 C 
ATOM     11  C   UNL     1      43.115   5.909  11.319  0.00  0.00    +0.000 C 
ATOM     12  O   UNL     1      43.184   4.848  10.350  0.00  0.00    +0.000 OA
BRANCH   7  14
ATOM     13  C   UNL     1      45.703   3.790   7.735  0.00  0.00    +0.000 C 
ATOM     14  C   UNL     1      44.531   3.646   8.712  0.00  0.00    +0.000 C 
ATOM     15  C   UNL     1      44.575   2.252   9.348  0.00  0.00    +0.000 C 
ENDBRANCH   7  14
ENDBRANCH   1   9
BRANCH   5  16
ATOM     16  C   UNL     1      48.619   6.130  15.637  0.00  0.00    +0.000 C 
ATOM     17  C   UNL     1      48.152   5.078  16.320  0.00  0.00    +0.000 C 
BRANCH  17  18
ATOM     18  O   UNL     1      48.598   4.749  17.583  0.00  0.00    +0.000 OA
BRANCH  18  19
ATOM     19  C   UNL     1      49.644   3.846  17.641  0.00  0.00    +0.000 A 
ATOM     20  C   UNL     1      49.458   2.566  17.133  0.00  0.00    +0.000 A 
ATOM     21  N   UNL     1      50.442   1.626  17.121  0.00  0.00    +0.000 NA
ATOM     22  C   UNL     1      51.635   2.053  17.631  0.00  0.00    +0.000 A 
ATOM     23  C   UNL     1      51.824   3.334  18.127  0.00  0.00    +0.000 A 
ATOM     24  N   UNL     1      50.833   4.258  18.146  0.00  0.00    +0.000 NA
BRANCH  22  25
ATOM     25  C   UNL     1      52.775   1.097  17.658  0.00  0.00    +0.000 C 
ATOM     26  N   UNL     1      52.513  -0.142  18.167  0.00  0.00    +0.000 N 
ATOM     27  O   UNL     1      53.888   1.394  17.238  0.00  0.00    +0.000 OA
ATOM     28  H   UNL     1      51.588  -0.370  18.510  0.00  0.00    +0.000 HD
ATOM     29  H   UNL     1      53.255  -0.828  18.208  0.00  0.00    +0.000 HD
ENDBRANCH  22  25
ENDBRANCH  18  19
ENDBRANCH  17  18
ENDBRANCH   5  16
TORSDOF 6
ENDMDL
MODEL 4
REMARK VINA RESULT:    -7.150      1.932      4.196
REMARK INTER + INTRA:         -10.100
REMARK INTER:                  -9.416
REMARK INTRA:                  -0.684
REMARK UNBOUND:                -0.442
REMARK  Name = 
REMARK  8 active torsions:
REMARK  status: ('A' for Active; 'I' for Inactive)
REMARK    1  A    between atoms: C_1  and  C_2
REMARK    2  A    between atoms: C_2  and  C_3
REMARK    3  A    between atoms: C_2  and  C_4
REMARK    4  A    between atoms: N_6  and  C_7
REMARK    5  A    between atoms: C_11  and  C_12
REMARK    6  A    between atoms: C_13  and  O_14
REMARK    7  A    between atoms: O_14  and  C_15
REMARK    8  A    between atoms: C_18  and  C_19
REMARK                            x       y       z     vdW  Elec       q    Type
REMARK                         _______ _______ _______ _____ _____    ______ ____
ROOT
ATOM      1  C   UNL     1      48.013   6.557  14.389  0.00  0.00    +0.000 A 
ATOM      2  C   UNL     1      48.126   5.833  15.583  0.00  0.00    +0.000 A 
ATOM      3  C   UNL     1      47.528   4.580  15.745  0.00  0.00    +0.000 A 
ATOM      4  C   UNL     1      46.782   4.024  14.711  0.00  0.00    +0.000 A 
ATOM      5  C   UNL     1      46.632   4.711  13.504  0.00  0.00    +0.000 A 
ATOM      6  C   UNL     1      47.255   5.963  13.362  0.00  0.00    +0.000 A 
ENDROOT
BRANCH   1   9
ATOM      7  C   UNL     1      48.823   9.606  12.579  0.00  0.00    +0.000 C 
ATOM      8  C   UNL     1      47.933   8.952  13.665  0.00  0.00    +0.000 C 
ATOM      9  N   UNL     1      48.630   7.776  14.214  0.00  0.00    +0.000 N 
ATOM     10  C   UNL     1      49.966   8.092  14.739  0.00  0.00    +0.000 C 
ATOM     11  C   UNL     1      50.782   8.763  13.622  0.00  0.00    +0.000 C 
ATOM     12  O   UNL     1      50.123   9.939  13.118  0.00  0.00    +0.000 OA
BRANCH   7  14
ATOM     13  C   UNL     1      48.749  11.236  10.599  0.00  0.00    +0.000 C 
ATOM     14  C   UNL     1      48.183  10.877  11.977  0.00  0.00    +0.000 C 
ATOM     15  C   UNL     1      46.663  10.714  11.869  0.00  0.00    +0.000 C 
ENDBRANCH   7  14
ENDBRANCH   1   9
BRANCH   5  16
ATOM     16  C   UNL     1      45.780   4.207  12.416  0.00  0.00    +0.000 C 
ATOM     17  C   UNL     1      45.154   4.994  11.533  0.00  0.00    +0.000 C 
BRANCH  17  18
ATOM     18  O   UNL     1      44.399   4.497  10.493  0.00  0.00    +0.000 OA
BRANCH  18  19
ATOM     19  C   UNL     1      45.094   3.815   9.510  0.00  0.00    +0.000 A 
ATOM     20  C   UNL     1      45.779   4.541   8.542  0.00  0.00    +0.000 A 
ATOM     21  N   UNL     1      46.514   3.952   7.560  0.00  0.00    +0.000 NA
ATOM     22  C   UNL     1      46.539   2.587   7.617  0.00  0.00    +0.000 A 
ATOM     23  C   UNL     1      45.864   1.863   8.589  0.00  0.00    +0.000 A 
ATOM     24  N   UNL     1      45.125   2.461   9.555  0.00  0.00    +0.000 NA
BRANCH  22  25
ATOM     25  C   UNL     1      47.319   1.851   6.585  0.00  0.00    +0.000 C 
ATOM     26  N   UNL     1      48.322   2.547   5.975  0.00  0.00    +0.000 N 
ATOM     27  O   UNL     1      47.087   0.681   6.302  0.00  0.00    +0.000 OA
ATOM     28  H   UNL     1      48.498   3.514   6.221  0.00  0.00    +0.000 HD
ATOM     29  H   UNL     1      48.880   2.091   5.265  0.00  0.00    +0.000 HD
ENDBRANCH  22  25
ENDBRANCH  18  19
ENDBRANCH  17  18
ENDBRANCH   5  16
TORSDOF 6
ENDMDL
MODEL 5
REMARK VINA RESULT:    -6.973      1.499      2.525
REMARK INTER + INTRA:          -9.860
REMARK INTER:                  -9.255
REMARK INTRA:                  -0.605
REMARK UNBOUND:                -0.442
REMARK  Name = 
REMARK  8 active torsions:
REMARK  status: ('A' for Active; 'I' for Inactive)
REMARK    1  A    between atoms: C_1  and  C_2
REMARK    2  A    between atoms: C_2  and  C_3
REMARK    3  A    between atoms: C_2  and  C_4
REMARK    4  A    between atoms: N_6  and  C_7
REMARK    5  A    between atoms: C_11  and  C_12
REMARK    6  A    between atoms: C_13  and  O_14
REMARK    7  A    between atoms: O_14  and  C_15
REMARK    8  A    between atoms: C_18  and  C_19
REMARK                            x       y       z     vdW  Elec       q    Type
REMARK                         _______ _______ _______ _____ _____    ______ ____
ROOT
ATOM      1  C   UNL     1      48.469   6.772  14.414  0.00  0.00    +0.000 A 
ATOM      2  C   UNL     1      49.034   7.892  13.791  0.00  0.00    +0.000 A 
ATOM      3  C   UNL     1      48.681   8.270  12.492  0.00  0.00    +0.000 A 
ATOM      4  C   UNL     1      47.758   7.518  11.773  0.00  0.00    +0.000 A 
ATOM      5  C   UNL     1      47.174   6.387  12.348  0.00  0.00    +0.000 A 
ATOM      6  C   UNL     1      47.535   6.036  13.660  0.00  0.00    +0.000 A 
ENDROOT
BRANCH   1   9
ATOM      7  C   UNL     1      50.658   6.488  17.305  0.00  0.00    +0.000 C 
ATOM      8  C   UNL     1      49.535   7.303  16.616  0.00  0.00    +0.000 C 
ATOM      9  N   UNL     1      48.788   6.418  15.707  0.00  0.00    +0.000 N 
ATOM     10  C   UNL     1      48.247   5.227  16.378  0.00  0.00    +0.000 C 
ATOM     11  C   UNL     1      49.407   4.486  17.063  0.00  0.00    +0.000 C 
ATOM     12  O   UNL     1      50.108   5.338  17.986  0.00  0.00    +0.000 OA
BRANCH   7  14
ATOM     13  C   UNL     1      52.960   6.980  18.326  0.00  0.00    +0.000 C 
ATOM     14  C   UNL     1      51.470   7.334  18.312  0.00  0.00    +0.000 C 
ATOM     15  C   UNL     1      51.311   8.828  18.009  0.00  0.00    +0.000 C 
ENDBRANCH   7  14
ENDBRANCH   1   9
BRANCH   5  16
ATOM     16  C   UNL     1      46.261   5.509  11.598  0.00  0.00    +0.000 C 
ATOM     17  C   UNL     1      45.383   5.948  10.689  0.00  0.00    +0.000 C 
BRANCH  17  18
ATOM     18  O   UNL     1      44.571   5.101   9.964  0.00  0.00    +0.000 OA
BRANCH  18  19
ATOM     19  C   UNL     1      45.212   4.081   9.283  0.00  0.00    +0.000 A 
ATOM     20  C   UNL     1      44.996   2.767   9.680  0.00  0.00    +0.000 A 
ATOM     21  N   UNL     1      45.560   1.702   9.047  0.00  0.00    +0.000 NA
ATOM     22  C   UNL     1      46.340   2.033   7.975  0.00  0.00    +0.000 A 
ATOM     23  C   UNL     1      46.547   3.344   7.573  0.00  0.00    +0.000 A 
ATOM     24  N   UNL     1      45.990   4.397   8.219  0.00  0.00    +0.000 NA
BRANCH  22  25
ATOM     25  C   UNL     1      46.999   0.936   7.215  0.00  0.00    +0.000 C 
ATOM     26  N   UNL     1      46.694  -0.336   7.603  0.00  0.00    +0.000 N 
ATOM     27  O   UNL     1      47.766   1.155   6.284  0.00  0.00    +0.000 OA
ATOM     28  H   UNL     1      46.059  -0.499   8.375  0.00  0.00    +0.000 HD
ATOM     29  H   UNL     1      47.118  -1.117   7.118  0.00  0.00    +0.000 HD
ENDBRANCH  22  25
ENDBRANCH  18  19
ENDBRANCH  17  18
ENDBRANCH   5  16
TORSDOF 6
ENDMDL
MODEL 6
REMARK VINA RESULT:    -6.100      4.991      6.809
REMARK INTER + INTRA:          -8.681
REMARK INTER:                  -8.104
REMARK INTRA:                  -0.577
REMARK UNBOUND:                -0.442
REMARK  Name = 
REMARK  8 active torsions:
REMARK  status: ('A' for Active; 'I' for Inactive)
REMARK    1  A    between atoms: C_1  and  C_2
REMARK    2  A    between atoms: C_2  and  C_3
REMARK    3  A    between atoms: C_2  and  C_4
REMARK    4  A    between atoms: N_6  and  C_7
REMARK    5  A    between atoms: C_11  and  C_12
REMARK    6  A    between atoms: C_13  and  O_14
REMARK    7  A    between atoms: O_14  and  C_15
REMARK    8  A    between atoms: C_18  and  C_19
REMARK                            x       y       z     vdW  Elec       q    Type
REMARK                         _______ _______ _______ _____ _____    ______ ____
ROOT
ATOM      1  C   UNL     1      51.924   8.553  10.560  0.00  0.00    +0.000 A 
ATOM      2  C   UNL     1      51.815   9.909  10.224  0.00  0.00    +0.000 A 
ATOM      3  C   UNL     1      50.759  10.700  10.684  0.00  0.00    +0.000 A 
ATOM      4  C   UNL     1      49.768  10.144  11.486  0.00  0.00    +0.000 A 
ATOM      5  C   UNL     1      49.828   8.795  11.842  0.00  0.00    +0.000 A 
ATOM      6  C   UNL     1      50.908   8.024  11.378  0.00  0.00    +0.000 A 
ENDROOT
BRANCH   1   9
ATOM      7  C   UNL     1      53.475   5.793   8.771  0.00  0.00    +0.000 C 
ATOM      8  C   UNL     1      53.118   7.300   8.752  0.00  0.00    +0.000 C 
ATOM      9  N   UNL     1      52.983   7.779  10.138  0.00  0.00    +0.000 N 
ATOM     10  C   UNL     1      54.178   7.525  10.954  0.00  0.00    +0.000 C 
ATOM     11  C   UNL     1      54.491   6.021  10.903  0.00  0.00    +0.000 C 
ATOM     12  O   UNL     1      54.670   5.562   9.552  0.00  0.00    +0.000 OA
BRANCH   7  14
ATOM     13  C   UNL     1      53.995   6.290   6.308  0.00  0.00    +0.000 C 
ATOM     14  C   UNL     1      53.677   5.215   7.352  0.00  0.00    +0.000 C 
ATOM     15  C   UNL     1      54.797   4.169   7.352  0.00  0.00    +0.000 C 
ENDBRANCH   7  14
ENDBRANCH   1   9
BRANCH   5  16
ATOM     16  C   UNL     1      48.759   8.140  12.613  0.00  0.00    +0.000 C 
ATOM     17  C   UNL     1      48.725   6.828  12.875  0.00  0.00    +0.000 C 
BRANCH  17  18
ATOM     18  O   UNL     1      47.738   6.244  13.640  0.00  0.00    +0.000 OA
BRANCH  18  19
ATOM     19  C   UNL     1      46.852   5.424  12.964  0.00  0.00    +0.000 A 
ATOM     20  C   UNL     1      46.578   4.161  13.476  0.00  0.00    +0.000 A 
ATOM     21  N   UNL     1      45.697   3.303  12.893  0.00  0.00    +0.000 NA
ATOM     22  C   UNL     1      45.088   3.796  11.774  0.00  0.00    +0.000 A 
ATOM     23  C   UNL     1      45.353   5.060  11.269  0.00  0.00    +0.000 A 
ATOM     24  N   UNL     1      46.243   5.901  11.851  0.00  0.00    +0.000 NA
BRANCH  22  25
ATOM     25  C   UNL     1      44.104   2.932  11.067  0.00  0.00    +0.000 C 
ATOM     26  N   UNL     1      44.564   2.265   9.969  0.00  0.00    +0.000 N 
ATOM     27  O   UNL     1      42.945   2.812  11.449  0.00  0.00    +0.000 OA
ATOM     28  H   UNL     1      45.525   2.376   9.666  0.00  0.00    +0.000 HD
ATOM     29  H   UNL     1      43.934   1.665   9.453  0.00  0.00    +0.000 HD
ENDBRANCH  22  25
ENDBRANCH  18  19
ENDBRANCH  17  18
ENDBRANCH   5  16
TORSDOF 6
ENDMDL
MODEL 7
REMARK VINA RESULT:    -5.372      2.989      4.418
REMARK INTER + INTRA:          -7.698
REMARK INTER:                  -7.020
REMARK INTRA:                  -0.678
REMARK UNBOUND:                -0.442
REMARK  Name = 
REMARK  8 active torsions:
REMARK  status: ('A' for Active; 'I' for Inactive)
REMARK    1  A    between atoms: C_1  and  C_2
REMARK    2  A    between atoms: C_2  and  C_3
REMARK    3  A    between atoms: C_2  and  C_4
REMARK    4  A    between atoms: N_6  and  C_7
REMARK    5  A    between atoms: C_11  and  C_12
REMARK    6  A    between atoms: C_13  and  O_14
REMARK    7  A    between atoms: O_14  and  C_15
REMARK    8  A    between atoms: C_18  and  C_19
REMARK                            x       y       z     vdW  Elec       q    Type
REMARK                         _______ _______ _______ _____ _____    ______ ____
ROOT
ATOM      1  C   UNL     1      51.311   8.117  14.449  0.00  0.00    +0.000 A 
ATOM      2  C   UNL     1      52.141   8.847  13.589  0.00  0.00    +0.000 A 
ATOM      3  C   UNL     1      51.625   9.608  12.536  0.00  0.00    +0.000 A 
ATOM      4  C   UNL     1      50.254   9.643  12.306  0.00  0.00    +0.000 A 
ATOM      5  C   UNL     1      49.385   8.925  13.132  0.00  0.00    +0.000 A 
ATOM      6  C   UNL     1      49.928   8.179  14.192  0.00  0.00    +0.000 A 
ENDROOT
BRANCH   1   9
ATOM      7  C   UNL     1      51.304   6.826  17.849  0.00  0.00    +0.000 C 
ATOM      8  C   UNL     1      50.971   6.541  16.364  0.00  0.00    +0.000 C 
ATOM      9  N   UNL     1      51.813   7.395  15.510  0.00  0.00    +0.000 N 
ATOM     10  C   UNL     1      53.250   7.235  15.774  0.00  0.00    +0.000 C 
ATOM     11  C   UNL     1      53.503   7.502  17.267  0.00  0.00    +0.000 C 
ATOM     12  O   UNL     1      52.715   6.634  18.101  0.00  0.00    +0.000 OA
BRANCH   7  14
ATOM     13  C   UNL     1      49.056   6.433  19.022  0.00  0.00    +0.000 C 
ATOM     14  C   UNL     1      50.491   5.938  18.818  0.00  0.00    +0.000 C 
ATOM     15  C   UNL     1      50.457   4.489  18.320  0.00  0.00    +0.000 C 
ENDBRANCH   7  14
ENDBRANCH   1   9
BRANCH   5  16
ATOM     16  C   UNL     1      47.937   8.858  12.877  0.00  0.00    +0.000 C 
ATOM     17  C   UNL     1      47.202   7.751  13.037  0.00  0.00    +0.000 C 
BRANCH  17  18
ATOM     18  O   UNL     1      45.838   7.725  12.837  0.00  0.00    +0.000 OA
BRANCH  18  19
ATOM     19  C   UNL     1      45.311   6.520  12.408  0.00  0.00    +0.000 A 
ATOM     20  C   UNL     1      45.674   6.033  11.157  0.00  0.00    +0.000 A 
ATOM     21  N   UNL     1      45.229   4.843  10.670  0.00  0.00    +0.000 NA
ATOM     22  C   UNL     1      44.412   4.156  11.522  0.00  0.00    +0.000 A 
ATOM     23  C   UNL     1      44.058   4.636  12.775  0.00  0.00    +0.000 A 
ATOM     24  N   UNL     1      44.498   5.830  13.244  0.00  0.00    +0.000 NA
BRANCH  22  25
ATOM     25  C   UNL     1      43.875   2.841  11.080  0.00  0.00    +0.000 C 
ATOM     26  N   UNL     1      44.434   2.307   9.956  0.00  0.00    +0.000 N 
ATOM     27  O   UNL     1      42.987   2.257  11.693  0.00  0.00    +0.000 OA
ATOM     28  H   UNL     1      45.166   2.803   9.462  0.00  0.00    +0.000 HD
ATOM     29  H   UNL     1      44.103   1.414   9.614  0.00  0.00    +0.000 HD
ENDBRANCH  22  25
ENDBRANCH  18  19
ENDBRANCH  17  18
ENDBRANCH   5  16
TORSDOF 6
ENDMDL
MODEL 8
REMARK VINA RESULT:    -5.372      2.473      3.732
REMARK INTER + INTRA:          -7.698
REMARK INTER:                  -7.126
REMARK INTRA:                  -0.572
REMARK UNBOUND:                -0.442
REMARK  Name = 
REMARK  8 active torsions:
REMARK  status: ('A' for Active; 'I' for Inactive)
REMARK    1  A    between atoms: C_1  and  C_2
REMARK    2  A    between atoms: C_2  and  C_3
REMARK    3  A    between atoms: C_2  and  C_4
REMARK    4  A    between atoms: N_6  and  C_7
REMARK    5  A    between atoms: C_11  and  C_12
REMARK    6  A    between atoms: C_13  and  O_14
REMARK    7  A    between atoms: O_14  and  C_15
REMARK    8  A    between atoms: C_18  and  C_19
REMARK                            x       y       z     vdW  Elec       q    Type
REMARK                         _______ _______ _______ _____ _____    ______ ____
ROOT
ATOM      1  C   UNL     1      49.862   7.022  15.405  0.00  0.00    +0.000 A 
ATOM      2  C   UNL     1      50.563   7.859  14.528  0.00  0.00    +0.000 A 
ATOM      3  C   UNL     1      50.034   8.241  13.291  0.00  0.00    +0.000 A 
ATOM      4  C   UNL     1      48.785   7.775  12.893  0.00  0.00    +0.000 A 
ATOM      5  C   UNL     1      48.050   6.932  13.729  0.00  0.00    +0.000 A 
ATOM      6  C   UNL     1      48.599   6.574  14.974  0.00  0.00    +0.000 A 
ENDROOT
BRANCH   1   9
ATOM      7  C   UNL     1      52.347   5.650  17.678  0.00  0.00    +0.000 C 
ATOM      8  C   UNL     1      51.760   6.930  17.035  0.00  0.00    +0.000 C 
ATOM      9  N   UNL     1      50.365   6.673  16.640  0.00  0.00    +0.000 N 
ATOM     10  C   UNL     1      49.528   6.204  17.753  0.00  0.00    +0.000 C 
ATOM     11  C   UNL     1      50.184   4.954  18.362  0.00  0.00    +0.000 C 
ATOM     12  O   UNL     1      51.531   5.218  18.791  0.00  0.00    +0.000 OA
BRANCH   7  14
ATOM     13  C   UNL     1      53.976   5.574  19.660  0.00  0.00    +0.000 C 
ATOM     14  C   UNL     1      53.801   5.845  18.162  0.00  0.00    +0.000 C 
ATOM     15  C   UNL     1      54.756   4.941  17.373  0.00  0.00    +0.000 C 
ENDBRANCH   7  14
ENDBRANCH   1   9
BRANCH   5  16
ATOM     16  C   UNL     1      46.767   6.342  13.317  0.00  0.00    +0.000 C 
ATOM     17  C   UNL     1      45.748   7.050  12.816  0.00  0.00    +0.000 C 
BRANCH  17  18
ATOM     18  O   UNL     1      44.571   6.469  12.392  0.00  0.00    +0.000 OA
BRANCH  18  19
ATOM     19  C   UNL     1      44.700   5.420  11.499  0.00  0.00    +0.000 A 
ATOM     20  C   UNL     1      45.231   5.669  10.239  0.00  0.00    +0.000 A 
ATOM     21  N   UNL     1      45.422   4.691   9.312  0.00  0.00    +0.000 NA
ATOM     22  C   UNL     1      45.068   3.440   9.731  0.00  0.00    +0.000 A 
ATOM     23  C   UNL     1      44.549   3.190  10.993  0.00  0.00    +0.000 A 
ATOM     24  N   UNL     1      44.350   4.174  11.904  0.00  0.00    +0.000 NA
BRANCH  22  25
ATOM     25  C   UNL     1      45.242   2.303   8.788  0.00  0.00    +0.000 C 
ATOM     26  N   UNL     1      46.175   2.469   7.806  0.00  0.00    +0.000 N 
ATOM     27  O   UNL     1      44.596   1.265   8.888  0.00  0.00    +0.000 OA
ATOM     28  H   UNL     1      46.699   3.333   7.738  0.00  0.00    +0.000 HD
ATOM     29  H   UNL     1      46.330   1.724   7.139  0.00  0.00    +0.000 HD
ENDBRANCH  22  25
ENDBRANCH  18  19
ENDBRANCH  17  18
ENDBRANCH   5  16
TORSDOF 6
ENDMDL
MODEL 9
REMARK VINA RESULT:    -5.217      4.069      8.602
REMARK INTER + INTRA:          -7.489
REMARK INTER:                  -6.795
REMARK INTRA:                  -0.693
REMARK UNBOUND:                -0.442
REMARK  Name = 
REMARK  8 active torsions:
REMARK  status: ('A' for Active; 'I' for Inactive)
REMARK    1  A    between atoms: C_1  and  C_2
REMARK    2  A    between atoms: C_2  and  C_3
REMARK    3  A    between atoms: C_2  and  C_4
REMARK    4  A    between atoms: N_6  and  C_7
REMARK    5  A    between atoms: C_11  and  C_12
REMARK    6  A    between atoms: C_13  and  O_14
REMARK    7  A    between atoms: O_14  and  C_15
REMARK    8  A    between atoms: C_18  and  C_19
REMARK                            x       y       z     vdW  Elec       q    Type
REMARK                         _______ _______ _______ _____ _____    ______ ____
ROOT
ATOM      1  C   UNL     1      49.391   7.738  14.277  0.00  0.00    +0.000 A 
ATOM      2  C   UNL     1      50.393   8.564  13.751  0.00  0.00    +0.000 A 
ATOM      3  C   UNL     1      51.701   8.542  14.243  0.00  0.00    +0.000 A 
ATOM      4  C   UNL     1      52.037   7.696  15.295  0.00  0.00    +0.000 A 
ATOM      5  C   UNL     1      51.072   6.860  15.859  0.00  0.00    +0.000 A 
ATOM      6  C   UNL     1      49.767   6.890  15.337  0.00  0.00    +0.000 A 
ENDROOT
BRANCH   1   9
ATOM      7  C   UNL     1      46.686   6.504  12.184  0.00  0.00    +0.000 C 
ATOM      8  C   UNL     1      47.329   6.495  13.593  0.00  0.00    +0.000 C 
ATOM      9  N   UNL     1      48.110   7.731  13.772  0.00  0.00    +0.000 N 
ATOM     10  C   UNL     1      47.317   8.949  13.555  0.00  0.00    +0.000 C 
ATOM     11  C   UNL     1      46.685   8.876  12.155  0.00  0.00    +0.000 C 
ATOM     12  O   UNL     1      45.884   7.692  11.997  0.00  0.00    +0.000 OA
BRANCH   7  14
ATOM     13  C   UNL     1      45.037   4.800  13.169  0.00  0.00    +0.000 C 
ATOM     14  C   UNL     1      45.810   5.256  11.927  0.00  0.00    +0.000 C 
ATOM     15  C   UNL     1      44.820   5.521  10.788  0.00  0.00    +0.000 C 
ENDBRANCH   7  14
ENDBRANCH   1   9
BRANCH   5  16
ATOM     16  C   UNL     1      51.355   6.014  17.030  0.00  0.00    +0.000 C 
ATOM     17  C   UNL     1      50.540   5.047  17.466  0.00  0.00    +0.000 C 
BRANCH  17  18
ATOM     18  O   UNL     1      50.849   4.235  18.537  0.00  0.00    +0.000 OA
BRANCH  18  19
ATOM     19  C   UNL     1      51.635   3.133  18.256  0.00  0.00    +0.000 A 
ATOM     20  C   UNL     1      51.116   2.121  17.456  0.00  0.00    +0.000 A 
ATOM     21  N   UNL     1      51.832   1.018  17.104  0.00  0.00    +0.000 NA
ATOM     22  C   UNL     1      53.110   0.998  17.586  0.00  0.00    +0.000 A 
ATOM     23  C   UNL     1      53.631   2.013  18.375  0.00  0.00    +0.000 A 
ATOM     24  N   UNL     1      52.905   3.101  18.730  0.00  0.00    +0.000 NA
BRANCH  22  25
ATOM     25  C   UNL     1      53.973  -0.167  17.252  0.00  0.00    +0.000 C 
ATOM     26  N   UNL     1      53.959  -0.577  15.951  0.00  0.00    +0.000 N 
ATOM     27  O   UNL     1      54.669  -0.727  18.092  0.00  0.00    +0.000 OA
ATOM     28  H   UNL     1      53.376  -0.104  15.270  0.00  0.00    +0.000 HD
ATOM     29  H   UNL     1      54.528  -1.367  15.674  0.00  0.00    +0.000 HD
ENDBRANCH  22  25
ENDBRANCH  18  19
ENDBRANCH  17  18
ENDBRANCH   5  16
TORSDOF 6
ENDMDL
