MODEL 1
REMARK VINA RESULT:    -9.161      0.000      0.000
REMARK INTER + INTRA:         -11.903
REMARK INTER:                 -11.304
REMARK INTRA:                  -0.599
REMARK UNBOUND:                -0.599
REMARK  Name = 
REMARK  4 active torsions:
REMARK  status: ('A' for Active; 'I' for Inactive)
REMARK    1  A    between atoms: C_2  and  C_4
REMARK    2  A    between atoms: N_8  and  C_9
REMARK    3  A    between atoms: C_9  and  C_10
REMARK    4  A    between atoms: C_14  and  C_15
REMARK                            x       y       z     vdW  Elec       q    Type
REMARK                         _______ _______ _______ _____ _____    ______ ____
ROOT
ATOM      1  C   UNL     1      46.427   2.309   7.701  0.00  0.00    +0.000 A 
ATOM      2  C   UNL     1      45.607   1.821   8.711  0.00  0.00    +0.000 A 
ATOM      3  C   UNL     1      44.754   2.700   9.376  0.00  0.00    +0.000 A 
ATOM      4  C   UNL     1      44.754   4.051   9.045  0.00  0.00    +0.000 A 
ATOM      5  N   UNL     1      43.872   4.958   9.593  0.00  0.00    +0.000 N 
ATOM      6  N   UNL     1      45.562   4.539   8.083  0.00  0.00    +0.000 NA
ATOM      7  C   UNL     1      46.383   3.667   7.436  0.00  0.00    +0.000 A 
ATOM      8  H   UNL     1      44.123   5.889   9.266  0.00  0.00    +0.000 HD
ENDROOT
BRANCH   1  10
ATOM      9  N   UNL     1      48.463   2.009   6.420  0.00  0.00    +0.000 N 
ATOM     10  C   UNL     1      47.328   1.435   6.924  0.00  0.00    +0.000 C 
ATOM     11  O   UNL     1      47.086   0.245   6.762  0.00  0.00    +0.000 OA
ATOM     12  H   UNL     1      49.120   1.387   5.969  0.00  0.00    +0.000 HD
ATOM     13  H   UNL     1      48.812   2.901   6.737  0.00  0.00    +0.000 HD
ENDBRANCH   1  10
BRANCH   5  14
ATOM     14  C   UNL     1      43.494   4.887  10.992  0.00  0.00    +0.000 C 
BRANCH  14  15
ATOM     15  C   UNL     1      44.699   5.054  11.880  0.00  0.00    +0.000 A 
ATOM     16  C   UNL     1      44.844   4.274  13.018  0.00  0.00    +0.000 A 
ATOM     17  N   UNL     1      45.836   4.430  13.918  0.00  0.00    +0.000 NA
ATOM     18  C   UNL     1      46.729   5.421  13.675  0.00  0.00    +0.000 A 
ATOM     19  C   UNL     1      46.706   6.278  12.573  0.00  0.00    +0.000 A 
ATOM     20  C   UNL     1      45.648   6.069  11.676  0.00  0.00    +0.000 A 
BRANCH  19  21
ATOM     21  C   UNL     1      47.715   7.339  12.363  0.00  0.00    +0.000 A 
ATOM     22  C   UNL     1      47.345   8.681  12.197  0.00  0.00    +0.000 A 
ATOM     23  C   UNL     1      48.327   9.642  12.008  0.00  0.00    +0.000 A 
ATOM     24  N   UNL     1      49.646   9.373  11.975  0.00  0.00    +0.000 NA
ATOM     25  C   UNL     1      49.998   8.084  12.144  0.00  0.00    +0.000 A 
ATOM     26  C   UNL     1      49.089   7.053  12.333  0.00  0.00    +0.000 A 
ENDBRANCH  19  21
ENDBRANCH  14  15
ENDBRANCH   5  14
TORSDOF 4
ENDMDL
MODEL 2
REMARK VINA RESULT:    -8.769      1.758      3.057
REMARK INTER + INTRA:         -11.418
REMARK INTER:                 -10.696
REMARK INTRA:                  -0.722
REMARK UNBOUND:                -0.599
REMARK  Name = 
REMARK  4 active torsions:
REMARK  status: ('A' for Active; 'I' for Inactive)
REMARK    1  A    between atoms: C_2  and  C_4
REMARK    2  A    between atoms: N_8  and  C_9
REMARK    3  A    between atoms: C_9  and  C_10
REMARK    4  A    between atoms: C_14  and  C_15
REMARK                            x       y       z     vdW  Elec       q    Type
REMARK                         _______ _______ _______ _____ _____    ______ ____
ROOT
ATOM      1  C   UNL     1      46.414   2.273   7.702  0.00  0.00    +0.000 A 
ATOM      2  C   UNL     1      45.679   1.796   8.780  0.00  0.00    +0.000 A 
ATOM      3  C   UNL     1      44.828   2.667   9.459  0.00  0.00    +0.000 A 
ATOM      4  C   UNL     1      44.746   4.000   9.070  0.00  0.00    +0.000 A 
ATOM      5  N   UNL     1      43.857   4.892   9.633  0.00  0.00    +0.000 N 
ATOM      6  N   UNL     1      45.470   4.478   8.041  0.00  0.00    +0.000 NA
ATOM      7  C   UNL     1      46.291   3.615   7.382  0.00  0.00    +0.000 A 
ATOM      8  H   UNL     1      44.044   5.817   9.251  0.00  0.00    +0.000 HD
ENDROOT
BRANCH   1  10
ATOM      9  N   UNL     1      48.407   1.997   6.350  0.00  0.00    +0.000 N 
ATOM     10  C   UNL     1      47.307   1.406   6.909  0.00  0.00    +0.000 C 
ATOM     11  O   UNL     1      47.090   0.207   6.781  0.00  0.00    +0.000 OA
ATOM     12  H   UNL     1      49.063   1.381   5.887  0.00  0.00    +0.000 HD
ATOM     13  H   UNL     1      48.746   2.903   6.635  0.00  0.00    +0.000 HD
ENDBRANCH   1  10
BRANCH   5  14
ATOM     14  C   UNL     1      43.566   4.868  11.054  0.00  0.00    +0.000 C 
BRANCH  14  15
ATOM     15  C   UNL     1      44.593   5.658  11.822  0.00  0.00    +0.000 A 
ATOM     16  C   UNL     1      44.913   6.951  11.434  0.00  0.00    +0.000 A 
ATOM     17  N   UNL     1      45.890   7.689  12.002  0.00  0.00    +0.000 NA
ATOM     18  C   UNL     1      46.590   7.103  13.004  0.00  0.00    +0.000 A 
ATOM     19  C   UNL     1      46.376   5.814  13.495  0.00  0.00    +0.000 A 
ATOM     20  C   UNL     1      45.350   5.097  12.863  0.00  0.00    +0.000 A 
BRANCH  19  21
ATOM     21  C   UNL     1      47.174   5.235  14.597  0.00  0.00    +0.000 A 
ATOM     22  C   UNL     1      47.046   3.889  14.968  0.00  0.00    +0.000 A 
ATOM     23  C   UNL     1      47.819   3.389  16.005  0.00  0.00    +0.000 A 
ATOM     24  N   UNL     1      48.711   4.122  16.699  0.00  0.00    +0.000 NA
ATOM     25  C   UNL     1      48.838   5.412  16.335  0.00  0.00    +0.000 A 
ATOM     26  C   UNL     1      48.105   6.002  15.316  0.00  0.00    +0.000 A 
ENDBRANCH  19  21
ENDBRANCH  14  15
ENDBRANCH   5  14
TORSDOF 4
ENDMDL
MODEL 3
REMARK VINA RESULT:    -8.077      2.754      6.575
REMARK INTER + INTRA:         -10.564
REMARK INTER:                  -9.763
REMARK INTRA:                  -0.801
REMARK UNBOUND:                -0.599
REMARK  Name = 
REMARK  4 active torsions:
REMARK  status: ('A' for Active; 'I' for Inactive)
REMARK    1  A    between atoms: C_2  and  C_4
REMARK    2  A    between atoms: N_8  and  C_9
REMARK    3  A    between atoms: C_9  and  C_10
REMARK    4  A    between atoms: C_14  and  C_15
REMARK                            x       y       z     vdW  Elec       q    Type
REMARK                         _______ _______ _______ _____ _____    ______ ____
ROOT
ATOM      1  C   UNL     1      48.342   7.117  12.879  0.00  0.00    +0.000 A 
ATOM      2  C   UNL     1      47.651   7.627  11.786  0.00  0.00    +0.000 A 
ATOM      3  C   UNL     1      46.283   7.380  11.673  0.00  0.00    +0.000 A 
ATOM      4  C   UNL     1      45.636   6.609  12.633  0.00  0.00    +0.000 A 
ATOM      5  N   UNL     1      44.272   6.405  12.636  0.00  0.00    +0.000 N 
ATOM      6  N   UNL     1      46.300   6.091  13.683  0.00  0.00    +0.000 NA
ATOM      7  C   UNL     1      47.633   6.346  13.785  0.00  0.00    +0.000 A 
ATOM      8  H   UNL     1      44.048   5.742  13.375  0.00  0.00    +0.000 HD
ENDROOT
BRANCH   1  10
ATOM      9  N   UNL     1      50.575   7.387  11.975  0.00  0.00    +0.000 N 
ATOM     10  C   UNL     1      49.781   7.366  13.089  0.00  0.00    +0.000 C 
ATOM     11  O   UNL     1      50.240   7.573  14.205  0.00  0.00    +0.000 OA
ATOM     12  H   UNL     1      51.542   7.648  12.115  0.00  0.00    +0.000 HD
ATOM     13  H   UNL     1      50.203   7.468  11.040  0.00  0.00    +0.000 HD
ENDBRANCH   1  10
BRANCH   5  14
ATOM     14  C   UNL     1      43.539   6.210  11.399  0.00  0.00    +0.000 C 
BRANCH  14  15
ATOM     15  C   UNL     1      43.682   4.792  10.912  0.00  0.00    +0.000 A 
ATOM     16  C   UNL     1      43.061   3.754  11.591  0.00  0.00    +0.000 A 
ATOM     17  N   UNL     1      43.221   2.450  11.284  0.00  0.00    +0.000 NA
ATOM     18  C   UNL     1      44.049   2.165  10.249  0.00  0.00    +0.000 A 
ATOM     19  C   UNL     1      44.736   3.107   9.479  0.00  0.00    +0.000 A 
ATOM     20  C   UNL     1      44.532   4.444   9.850  0.00  0.00    +0.000 A 
BRANCH  19  21
ATOM     21  C   UNL     1      45.622   2.730   8.358  0.00  0.00    +0.000 A 
ATOM     22  C   UNL     1      45.928   3.632   7.329  0.00  0.00    +0.000 A 
ATOM     23  C   UNL     1      46.769   3.235   6.299  0.00  0.00    +0.000 A 
ATOM     24  N   UNL     1      47.330   2.013   6.216  0.00  0.00    +0.000 NA
ATOM     25  C   UNL     1      47.041   1.152   7.210  0.00  0.00    +0.000 A 
ATOM     26  C   UNL     1      46.208   1.456   8.277  0.00  0.00    +0.000 A 
ENDBRANCH  19  21
ENDBRANCH  14  15
ENDBRANCH   5  14
TORSDOF 4
ENDMDL
MODEL 4
REMARK VINA RESULT:    -7.897      3.108      7.103
REMARK INTER + INTRA:         -10.343
REMARK INTER:                  -9.937
REMARK INTRA:                  -0.406
REMARK UNBOUND:                -0.599
REMARK  Name = 
REMARK  4 active torsions:
REMARK  status: ('A' for Active; 'I' for Inactive)
REMARK    1  A    between atoms: C_2  and  C_4
REMARK    2  A    between atoms: N_8  and  C_9
REMARK    3  A    between atoms: C_9  and  C_10
REMARK    4  A    between atoms: C_14  and  C_15
REMARK                            x       y       z     vdW  Elec       q    Type
REMARK                         _______ _______ _______ _____ _____    ______ ____
ROOT
ATOM      1  C   UNL     1      47.746   5.393  15.276  0.00  0.00    +0.000 A 
ATOM      2  C   UNL     1      46.708   4.656  14.718  0.00  0.00    +0.000 A 
ATOM      3  C   UNL     1      46.172   5.058  13.496  0.00  0.00    +0.000 A 
ATOM      4  C   UNL     1      46.658   6.199  12.867  0.00  0.00    +0.000 A 
ATOM      5  N   UNL     1      46.242   6.600  11.615  0.00  0.00    +0.000 N 
ATOM      6  N   UNL     1      47.648   6.933  13.410  0.00  0.00    +0.000 NA
ATOM      7  C   UNL     1      48.168   6.525  14.599  0.00  0.00    +0.000 A 
ATOM      8  H   UNL     1      46.669   7.501  11.407  0.00  0.00    +0.000 HD
ENDROOT
BRANCH   1  10
ATOM      9  N   UNL     1      47.566   4.755  17.608  0.00  0.00    +0.000 N 
ATOM     10  C   UNL     1      48.391   5.010  16.547  0.00  0.00    +0.000 C 
ATOM     11  O   UNL     1      49.607   4.898  16.641  0.00  0.00    +0.000 OA
ATOM     12  H   UNL     1      48.007   4.405  18.449  0.00  0.00    +0.000 HD
ATOM     13  H   UNL     1      46.575   4.596  17.504  0.00  0.00    +0.000 HD
ENDBRANCH   1  10
BRANCH   5  14
ATOM     14  C   UNL     1      44.855   6.476  11.208  0.00  0.00    +0.000 C 
BRANCH  14  15
ATOM     15  C   UNL     1      44.586   5.107  10.640  0.00  0.00    +0.000 A 
ATOM     16  C   UNL     1      43.637   4.281  11.225  0.00  0.00    +0.000 A 
ATOM     17  N   UNL     1      43.408   3.007  10.843  0.00  0.00    +0.000 NA
ATOM     18  C   UNL     1      44.171   2.529   9.830  0.00  0.00    +0.000 A 
ATOM     19  C   UNL     1      45.159   3.247   9.152  0.00  0.00    +0.000 A 
ATOM     20  C   UNL     1      45.351   4.562   9.596  0.00  0.00    +0.000 A 
BRANCH  19  21
ATOM     21  C   UNL     1      45.954   2.666   8.049  0.00  0.00    +0.000 A 
ATOM     22  C   UNL     1      46.337   3.432   6.939  0.00  0.00    +0.000 A 
ATOM     23  C   UNL     1      47.087   2.845   5.930  0.00  0.00    +0.000 A 
ATOM     24  N   UNL     1      47.487   1.559   5.941  0.00  0.00    +0.000 NA
ATOM     25  C   UNL     1      47.125   0.829   7.013  0.00  0.00    +0.000 A 
ATOM     26  C   UNL     1      46.371   1.326   8.067  0.00  0.00    +0.000 A 
ENDBRANCH  19  21
ENDBRANCH  14  15
ENDBRANCH   5  14
TORSDOF 4
ENDMDL
MODEL 5
REMARK VINA RESULT:    -7.208      2.507      6.899
REMARK INTER + INTRA:          -9.492
REMARK INTER:                  -9.251
REMARK INTRA:                  -0.241
REMARK UNBOUND:                -0.599
REMARK  Name = 
REMARK  4 active torsions:
REMARK  status: ('A' for Active; 'I' for Inactive)
REMARK    1  A    between atoms: C_2  and  C_4
REMARK    2  A    between atoms: N_8  and  C_9
REMARK    3  A    between atoms: C_9  and  C_10
REMARK    4  A    between atoms: C_14  and  C_15
REMARK                            x       y       z     vdW  Elec       q    Type
REMARK                         _______ _______ _______ _____ _____    ______ ____
ROOT
ATOM      1  C   UNL     1      47.510   7.584  12.907  0.00  0.00    +0.000 A 
ATOM      2  C   UNL     1      46.121   7.553  12.871  0.00  0.00    +0.000 A 
ATOM      3  C   UNL     1      45.465   6.336  13.053  0.00  0.00    +0.000 A 
ATOM      4  C   UNL     1      46.202   5.171  13.239  0.00  0.00    +0.000 A 
ATOM      5  N   UNL     1      45.621   3.953  13.520  0.00  0.00    +0.000 N 
ATOM      6  N   UNL     1      47.549   5.187  13.253  0.00  0.00    +0.000 NA
ATOM      7  C   UNL     1      48.176   6.382  13.083  0.00  0.00    +0.000 A 
ATOM      8  H   UNL     1      46.350   3.243  13.525  0.00  0.00    +0.000 HD
ENDROOT
BRANCH   1  10
ATOM      9  N   UNL     1      47.646   9.994  13.132  0.00  0.00    +0.000 N 
ATOM     10  C   UNL     1      48.276   8.837  12.761  0.00  0.00    +0.000 C 
ATOM     11  O   UNL     1      49.431   8.840  12.355  0.00  0.00    +0.000 OA
ATOM     12  H   UNL     1      48.205  10.836  13.117  0.00  0.00    +0.000 HD
ATOM     13  H   UNL     1      46.807  10.004  13.693  0.00  0.00    +0.000 HD
ENDBRANCH   1  10
BRANCH   5  14
ATOM     14  C   UNL     1      44.380   3.548  12.885  0.00  0.00    +0.000 C 
BRANCH  14  15
ATOM     15  C   UNL     1      44.421   3.830  11.407  0.00  0.00    +0.000 A 
ATOM     16  C   UNL     1      43.538   4.740  10.843  0.00  0.00    +0.000 A 
ATOM     17  N   UNL     1      43.439   4.973   9.518  0.00  0.00    +0.000 NA
ATOM     18  C   UNL     1      44.260   4.257   8.711  0.00  0.00    +0.000 A 
ATOM     19  C   UNL     1      45.195   3.313   9.140  0.00  0.00    +0.000 A 
ATOM     20  C   UNL     1      45.247   3.112  10.527  0.00  0.00    +0.000 A 
BRANCH  19  21
ATOM     21  C   UNL     1      46.066   2.569   8.205  0.00  0.00    +0.000 A 
ATOM     22  C   UNL     1      46.865   3.231   7.262  0.00  0.00    +0.000 A 
ATOM     23  C   UNL     1      47.670   2.490   6.409  0.00  0.00    +0.000 A 
ATOM     24  N   UNL     1      47.743   1.146   6.423  0.00  0.00    +0.000 NA
ATOM     25  C   UNL     1      46.981   0.514   7.335  0.00  0.00    +0.000 A 
ATOM     26  C   UNL     1      46.142   1.167   8.225  0.00  0.00    +0.000 A 
ENDBRANCH  19  21
ENDBRANCH  14  15
ENDBRANCH   5  14
TORSDOF 4
ENDMDL
MODEL 6
REMARK VINA RESULT:    -6.863      3.793      7.793
REMARK INTER + INTRA:          -9.067
REMARK INTER:                  -8.617
REMARK INTRA:                  -0.450
REMARK UNBOUND:                -0.599
REMARK  Name = 
REMARK  4 active torsions:
REMARK  status: ('A' for Active; 'I' for Inactive)
REMARK    1  A    between atoms: C_2  and  C_4
REMARK    2  A    between atoms: N_8  and  C_9
REMARK    3  A    between atoms: C_9  and  C_10
REMARK    4  A    between atoms: C_14  and  C_15
REMARK                            x       y       z     vdW  Elec       q    Type
REMARK                         _______ _______ _______ _____ _____    ______ ____
ROOT
ATOM      1  C   UNL     1      48.650   4.628  16.962  0.00  0.00    +0.000 A 
ATOM      2  C   UNL     1      47.866   3.543  16.589  0.00  0.00    +0.000 A 
ATOM      3  C   UNL     1      47.140   3.609  15.401  0.00  0.00    +0.000 A 
ATOM      4  C   UNL     1      47.184   4.761  14.622  0.00  0.00    +0.000 A 
ATOM      5  N   UNL     1      46.569   4.859  13.392  0.00  0.00    +0.000 N 
ATOM      6  N   UNL     1      47.923   5.826  14.986  0.00  0.00    +0.000 NA
ATOM      7  C   UNL     1      48.634   5.746  16.144  0.00  0.00    +0.000 A 
ATOM      8  H   UNL     1      46.666   5.816  13.059  0.00  0.00    +0.000 HD
ENDROOT
BRANCH   1  10
ATOM      9  N   UNL     1      49.409   3.504  18.971  0.00  0.00    +0.000 N 
ATOM     10  C   UNL     1      49.478   4.622  18.184  0.00  0.00    +0.000 C 
ATOM     11  O   UNL     1      50.213   5.559  18.467  0.00  0.00    +0.000 OA
ATOM     12  H   UNL     1      50.046   3.466  19.756  0.00  0.00    +0.000 HD
ATOM     13  H   UNL     1      49.019   2.632  18.649  0.00  0.00    +0.000 HD
ENDBRANCH   1  10
BRANCH   5  14
ATOM     14  C   UNL     1      45.269   4.260  13.152  0.00  0.00    +0.000 C 
BRANCH  14  15
ATOM     15  C   UNL     1      44.917   4.317  11.689  0.00  0.00    +0.000 A 
ATOM     16  C   UNL     1      43.796   5.016  11.266  0.00  0.00    +0.000 A 
ATOM     17  N   UNL     1      43.354   5.032   9.991  0.00  0.00    +0.000 NA
ATOM     18  C   UNL     1      44.064   4.307   9.092  0.00  0.00    +0.000 A 
ATOM     19  C   UNL     1      45.209   3.560   9.377  0.00  0.00    +0.000 A 
ATOM     20  C   UNL     1      45.615   3.580  10.719  0.00  0.00    +0.000 A 
BRANCH  19  21
ATOM     21  C   UNL     1      45.941   2.793   8.346  0.00  0.00    +0.000 A 
ATOM     22  C   UNL     1      46.535   3.427   7.245  0.00  0.00    +0.000 A 
ATOM     23  C   UNL     1      47.216   2.667   6.305  0.00  0.00    +0.000 A 
ATOM     24  N   UNL     1      47.354   1.329   6.377  0.00  0.00    +0.000 NA
ATOM     25  C   UNL     1      46.789   0.725   7.440  0.00  0.00    +0.000 A 
ATOM     26  C   UNL     1      46.085   1.399   8.427  0.00  0.00    +0.000 A 
ENDBRANCH  19  21
ENDBRANCH  14  15
ENDBRANCH   5  14
TORSDOF 4
ENDMDL
MODEL 7
REMARK VINA RESULT:    -6.751      5.262      7.187
REMARK INTER + INTRA:          -8.929
REMARK INTER:                  -8.364
REMARK INTRA:                  -0.565
REMARK UNBOUND:                -0.599
REMARK  Name = 
REMARK  4 active torsions:
REMARK  status: ('A' for Active; 'I' for Inactive)
REMARK    1  A    between atoms: C_2  and  C_4
REMARK    2  A    between atoms: N_8  and  C_9
REMARK    3  A    between atoms: C_9  and  C_10
REMARK    4  A    between atoms: C_14  and  C_15
REMARK                            x       y       z     vdW  Elec       q    Type
REMARK                         _______ _______ _______ _____ _____    ______ ____
ROOT
ATOM      1  C   UNL     1      45.570   4.846  11.572  0.00  0.00    +0.000 A 
ATOM      2  C   UNL     1      46.157   5.806  12.387  0.00  0.00    +0.000 A 
ATOM      3  C   UNL     1      46.678   5.421  13.621  0.00  0.00    +0.000 A 
ATOM      4  C   UNL     1      46.580   4.096  14.033  0.00  0.00    +0.000 A 
ATOM      5  N   UNL     1      47.156   3.627  15.195  0.00  0.00    +0.000 N 
ATOM      6  N   UNL     1      45.992   3.162  13.261  0.00  0.00    +0.000 NA
ATOM      7  C   UNL     1      45.495   3.550  12.055  0.00  0.00    +0.000 A 
ATOM      8  H   UNL     1      46.875   2.657  15.325  0.00  0.00    +0.000 HD
ENDROOT
BRANCH   1  10
ATOM      9  N   UNL     1      43.669   5.163  10.102  0.00  0.00    +0.000 N 
ATOM     10  C   UNL     1      45.031   5.167  10.236  0.00  0.00    +0.000 C 
ATOM     11  O   UNL     1      45.765   5.452   9.299  0.00  0.00    +0.000 OA
ATOM     12  H   UNL     1      43.303   5.473   9.211  0.00  0.00    +0.000 HD
ATOM     13  H   UNL     1      43.041   5.180  10.891  0.00  0.00    +0.000 HD
ENDBRANCH   1  10
BRANCH   5  14
ATOM     14  C   UNL     1      47.162   4.426  16.406  0.00  0.00    +0.000 C 
BRANCH  14  15
ATOM     15  C   UNL     1      48.573   4.713  16.848  0.00  0.00    +0.000 A 
ATOM     16  C   UNL     1      49.061   6.012  16.830  0.00  0.00    +0.000 A 
ATOM     17  N   UNL     1      50.338   6.342  17.111  0.00  0.00    +0.000 NA
ATOM     18  C   UNL     1      51.176   5.322  17.419  0.00  0.00    +0.000 A 
ATOM     19  C   UNL     1      50.822   3.972  17.476  0.00  0.00    +0.000 A 
ATOM     20  C   UNL     1      49.482   3.693  17.171  0.00  0.00    +0.000 A 
BRANCH  19  21
ATOM     21  C   UNL     1      51.786   2.907  17.825  0.00  0.00    +0.000 A 
ATOM     22  C   UNL     1      52.939   3.178  18.577  0.00  0.00    +0.000 A 
ATOM     23  C   UNL     1      53.812   2.145  18.884  0.00  0.00    +0.000 A 
ATOM     24  N   UNL     1      53.627   0.866  18.505  0.00  0.00    +0.000 NA
ATOM     25  C   UNL     1      52.515   0.608  17.791  0.00  0.00    +0.000 A 
ATOM     26  C   UNL     1      51.588   1.574  17.431  0.00  0.00    +0.000 A 
ENDBRANCH  19  21
ENDBRANCH  14  15
ENDBRANCH   5  14
TORSDOF 4
ENDMDL
