MODEL 1
REMARK VINA RESULT:    -8.392      0.000      0.000
REMARK INTER + INTRA:         -11.801
REMARK INTER:                 -10.845
REMARK INTRA:                  -0.955
REMARK UNBOUND:                -0.955
REMARK  Name = 
REMARK  5 active torsions:
REMARK  status: ('A' for Active; 'I' for Inactive)
REMARK    1  A    between atoms: C_2  and  C_4
REMARK    2  A    between atoms: C_7  and  O_8
REMARK    3  A    between atoms: O_8  and  C_9
REMARK    4  A    between atoms: C_9  and  C_10
REMARK    5  A    between atoms: C_14  and  C_15
REMARK                            x       y       z     vdW  Elec       q    Type
REMARK                         _______ _______ _______ _____ _____    ______ ____
ROOT
ATOM      1  C   UNL     1      43.813   4.894  11.365  0.00  0.00    +0.000 C 
ATOM      2  C   UNL     1      42.496   5.256  12.043  0.00  0.00    +0.000 C 
ATOM      3  C   UNL     1      43.032   6.122  10.951  0.00  0.00    +0.000 C 
ENDROOT
BRANCH   1   4
ATOM      4  C   UNL     1      45.091   5.023  12.182  0.00  0.00    +0.000 A 
ATOM      5  C   UNL     1      45.606   3.917  12.878  0.00  0.00    +0.000 A 
ATOM      6  C   UNL     1      46.802   3.999  13.589  0.00  0.00    +0.000 A 
ATOM      7  C   UNL     1      47.517   5.193  13.615  0.00  0.00    +0.000 A 
ATOM      8  C   UNL     1      47.051   6.322  12.929  0.00  0.00    +0.000 A 
ATOM      9  C   UNL     1      45.835   6.221  12.229  0.00  0.00    +0.000 A 
BRANCH   8  10
ATOM     10  C   UNL     1      47.881   7.597  12.861  0.00  0.00    +0.000 C 
ATOM     11  C   UNL     1      46.973   8.801  12.559  0.00  0.00    +0.000 C 
ATOM     12  C   UNL     1      47.776  10.064  12.298  0.00  0.00    +0.000 C 
ATOM     13  O   UNL     1      48.741   9.845  11.271  0.00  0.00    +0.000 OA
ATOM     14  C   UNL     1      49.701   8.860  11.650  0.00  0.00    +0.000 C 
ATOM     15  C   UNL     1      49.034   7.505  11.848  0.00  0.00    +0.000 C 
ENDBRANCH   8  10
ENDBRANCH   1   4
BRANCH   1  16
ATOM     16  O   UNL     1      43.652   3.684  10.586  0.00  0.00    +0.000 OA
BRANCH  16  20
ATOM     17  C   UNL     1      46.382   2.731   7.658  0.00  0.00    +0.000 A 
ATOM     18  C   UNL     1      45.832   1.728   8.459  0.00  0.00    +0.000 A 
ATOM     19  C   UNL     1      44.920   2.082   9.449  0.00  0.00    +0.000 A 
ATOM     20  C   UNL     1      44.590   3.422   9.605  0.00  0.00    +0.000 A 
ATOM     21  N   UNL     1      45.101   4.417   8.850  0.00  0.00    +0.000 NA
ATOM     22  C   UNL     1      46.005   4.048   7.905  0.00  0.00    +0.000 A 
BRANCH  17  24
ATOM     23  N   UNL     1      47.186   3.116   5.396  0.00  0.00    +0.000 N 
ATOM     24  C   UNL     1      47.355   2.453   6.580  0.00  0.00    +0.000 C 
ATOM     25  O   UNL     1      48.288   1.684   6.750  0.00  0.00    +0.000 OA
ATOM     26  H   UNL     1      47.916   2.986   4.706  0.00  0.00    +0.000 HD
ATOM     27  H   UNL     1      46.594   3.927   5.301  0.00  0.00    +0.000 HD
ENDBRANCH  17  24
ENDBRANCH  16  20
ENDBRANCH   1  16
TORSDOF 5
ENDMDL
MODEL 2
REMARK VINA RESULT:    -8.271      2.157      3.341
REMARK INTER + INTRA:         -11.644
REMARK INTER:                 -11.102
REMARK INTRA:                  -0.542
REMARK UNBOUND:                -0.955
REMARK  Name = 
REMARK  5 active torsions:
REMARK  status: ('A' for Active; 'I' for Inactive)
REMARK    1  A    between atoms: C_2  and  C_4
REMARK    2  A    between atoms: C_7  and  O_8
REMARK    3  A    between atoms: O_8  and  C_9
REMARK    4  A    between atoms: C_9  and  C_10
REMARK    5  A    between atoms: C_14  and  C_15
REMARK                            x       y       z     vdW  Elec       q    Type
REMARK                         _______ _______ _______ _____ _____    ______ ____
ROOT
ATOM      1  C   UNL     1      43.955   5.043  11.385  0.00  0.00    +0.000 C 
ATOM      2  C   UNL     1      42.693   5.334  12.190  0.00  0.00    +0.000 C 
ATOM      3  C   UNL     1      42.991   6.131  10.963  0.00  0.00    +0.000 C 
ENDROOT
BRANCH   1   4
ATOM      4  C   UNL     1      45.295   5.392  12.015  0.00  0.00    +0.000 A 
ATOM      5  C   UNL     1      46.154   6.315  11.396  0.00  0.00    +0.000 A 
ATOM      6  C   UNL     1      47.362   6.690  11.982  0.00  0.00    +0.000 A 
ATOM      7  C   UNL     1      47.737   6.152  13.210  0.00  0.00    +0.000 A 
ATOM      8  C   UNL     1      46.910   5.236  13.873  0.00  0.00    +0.000 A 
ATOM      9  C   UNL     1      45.702   4.861  13.257  0.00  0.00    +0.000 A 
BRANCH   8  10
ATOM     10  C   UNL     1      47.259   4.729  15.266  0.00  0.00    +0.000 C 
ATOM     11  C   UNL     1      48.344   5.620  15.895  0.00  0.00    +0.000 C 
ATOM     12  C   UNL     1      48.857   5.046  17.205  0.00  0.00    +0.000 C 
ATOM     13  O   UNL     1      49.298   3.702  17.029  0.00  0.00    +0.000 OA
ATOM     14  C   UNL     1      48.230   2.842  16.635  0.00  0.00    +0.000 C 
ATOM     15  C   UNL     1      47.683   3.251  15.274  0.00  0.00    +0.000 C 
ENDBRANCH   8  10
ENDBRANCH   1   4
BRANCH   1  16
ATOM     16  O   UNL     1      43.846   3.746  10.749  0.00  0.00    +0.000 OA
BRANCH  16  20
ATOM     17  C   UNL     1      46.362   2.740   7.652  0.00  0.00    +0.000 A 
ATOM     18  C   UNL     1      45.869   1.752   8.505  0.00  0.00    +0.000 A 
ATOM     19  C   UNL     1      45.030   2.124   9.552  0.00  0.00    +0.000 A 
ATOM     20  C   UNL     1      44.712   3.467   9.709  0.00  0.00    +0.000 A 
ATOM     21  N   UNL     1      45.170   4.448   8.903  0.00  0.00    +0.000 NA
ATOM     22  C   UNL     1      46.004   4.062   7.903  0.00  0.00    +0.000 A 
BRANCH  17  24
ATOM     23  N   UNL     1      47.100   3.194   5.379  0.00  0.00    +0.000 N 
ATOM     24  C   UNL     1      47.256   2.443   6.512  0.00  0.00    +0.000 C 
ATOM     25  O   UNL     1      48.119   1.583   6.589  0.00  0.00    +0.000 OA
ATOM     26  H   UNL     1      47.783   3.042   4.647  0.00  0.00    +0.000 HD
ATOM     27  H   UNL     1      46.584   4.060   5.362  0.00  0.00    +0.000 HD
ENDBRANCH  17  24
ENDBRANCH  16  20
ENDBRANCH   1  16
TORSDOF 5
ENDMDL
MODEL 3
REMARK VINA RESULT:    -7.547      3.505      7.221
REMARK INTER + INTRA:         -10.708
REMARK INTER:                  -9.746
REMARK INTRA:                  -0.962
REMARK UNBOUND:                -0.955
REMARK  Name = 
REMARK  5 active torsions:
REMARK  status: ('A' for Active; 'I' for Inactive)
REMARK    1  A    between atoms: C_2  and  C_4
REMARK    2  A    between atoms: C_7  and  O_8
REMARK    3  A    between atoms: O_8  and  C_9
REMARK    4  A    between atoms: C_9  and  C_10
REMARK    5  A    between atoms: C_14  and  C_15
REMARK                            x       y       z     vdW  Elec       q    Type
REMARK                         _______ _______ _______ _____ _____    ______ ____
ROOT
ATOM      1  C   UNL     1      46.518   7.142  12.536  0.00  0.00    +0.000 C 
ATOM      2  C   UNL     1      46.838   8.502  11.924  0.00  0.00    +0.000 C 
ATOM      3  C   UNL     1      46.186   8.425  13.265  0.00  0.00    +0.000 C 
ENDROOT
BRANCH   1   4
ATOM      4  C   UNL     1      45.422   6.311  11.885  0.00  0.00    +0.000 A 
ATOM      5  C   UNL     1      44.084   6.457  12.286  0.00  0.00    +0.000 A 
ATOM      6  C   UNL     1      43.058   5.745  11.667  0.00  0.00    +0.000 A 
ATOM      7  C   UNL     1      43.347   4.872  10.623  0.00  0.00    +0.000 A 
ATOM      8  C   UNL     1      44.664   4.700  10.178  0.00  0.00    +0.000 A 
ATOM      9  C   UNL     1      45.686   5.417  10.826  0.00  0.00    +0.000 A 
BRANCH   8  10
ATOM     10  C   UNL     1      44.975   3.832   8.965  0.00  0.00    +0.000 C 
ATOM     11  C   UNL     1      45.322   2.402   9.415  0.00  0.00    +0.000 C 
ATOM     12  C   UNL     1      45.820   1.551   8.259  0.00  0.00    +0.000 C 
ATOM     13  O   UNL     1      46.910   2.188   7.596  0.00  0.00    +0.000 OA
ATOM     14  C   UNL     1      46.520   3.428   7.009  0.00  0.00    +0.000 C 
ATOM     15  C   UNL     1      46.088   4.420   8.081  0.00  0.00    +0.000 C 
ENDBRANCH   8  10
ENDBRANCH   1   4
BRANCH   1  16
ATOM     16  O   UNL     1      47.746   6.455  12.881  0.00  0.00    +0.000 OA
BRANCH  16  20
ATOM     17  C   UNL     1      47.899   4.483  16.490  0.00  0.00    +0.000 A 
ATOM     18  C   UNL     1      47.130   3.973  15.443  0.00  0.00    +0.000 A 
ATOM     19  C   UNL     1      47.087   4.668  14.238  0.00  0.00    +0.000 A 
ATOM     20  C   UNL     1      47.813   5.846  14.120  0.00  0.00    +0.000 A 
ATOM     21  N   UNL     1      48.567   6.368  15.110  0.00  0.00    +0.000 NA
ATOM     22  C   UNL     1      48.575   5.683  16.283  0.00  0.00    +0.000 A 
BRANCH  17  24
ATOM     23  N   UNL     1      47.124   2.807  18.072  0.00  0.00    +0.000 N 
ATOM     24  C   UNL     1      48.009   3.815  17.804  0.00  0.00    +0.000 C 
ATOM     25  O   UNL     1      48.873   4.130  18.606  0.00  0.00    +0.000 OA
ATOM     26  H   UNL     1      47.276   2.298  18.934  0.00  0.00    +0.000 HD
ATOM     27  H   UNL     1      46.573   2.356  17.357  0.00  0.00    +0.000 HD
ENDBRANCH  17  24
ENDBRANCH  16  20
ENDBRANCH   1  16
TORSDOF 5
ENDMDL
MODEL 4
REMARK VINA RESULT:    -6.745      3.659      7.633
REMARK INTER + INTRA:          -9.671
REMARK INTER:                  -8.779
REMARK INTRA:                  -0.892
REMARK UNBOUND:                -0.955
REMARK  Name = 
REMARK  5 active torsions:
REMARK  status: ('A' for Active; 'I' for Inactive)
REMARK    1  A    between atoms: C_2  and  C_4
REMARK    2  A    between atoms: C_7  and  O_8
REMARK    3  A    between atoms: O_8  and  C_9
REMARK    4  A    between atoms: C_9  and  C_10
REMARK    5  A    between atoms: C_14  and  C_15
REMARK                            x       y       z     vdW  Elec       q    Type
REMARK                         _______ _______ _______ _____ _____    ______ ____
ROOT
ATOM      1  C   UNL     1      47.855   7.286  12.400  0.00  0.00    +0.000 C 
ATOM      2  C   UNL     1      48.636   8.145  11.411  0.00  0.00    +0.000 C 
ATOM      3  C   UNL     1      48.111   8.752  12.669  0.00  0.00    +0.000 C 
ENDROOT
BRANCH   1   4
ATOM      4  C   UNL     1      46.473   6.801  11.983  0.00  0.00    +0.000 A 
ATOM      5  C   UNL     1      45.319   7.406  12.505  0.00  0.00    +0.000 A 
ATOM      6  C   UNL     1      44.045   7.014  12.097  0.00  0.00    +0.000 A 
ATOM      7  C   UNL     1      43.896   6.007  11.147  0.00  0.00    +0.000 A 
ATOM      8  C   UNL     1      45.017   5.381  10.587  0.00  0.00    +0.000 A 
ATOM      9  C   UNL     1      46.293   5.782  11.024  0.00  0.00    +0.000 A 
BRANCH   8  10
ATOM     10  C   UNL     1      44.868   4.358   9.468  0.00  0.00    +0.000 C 
ATOM     11  C   UNL     1      44.877   2.935  10.050  0.00  0.00    +0.000 C 
ATOM     12  C   UNL     1      44.917   1.878   8.959  0.00  0.00    +0.000 C 
ATOM     13  O   UNL     1      46.012   2.107   8.075  0.00  0.00    +0.000 OA
ATOM     14  C   UNL     1      45.887   3.351   7.389  0.00  0.00    +0.000 C 
ATOM     15  C   UNL     1      45.933   4.515   8.370  0.00  0.00    +0.000 C 
ENDBRANCH   8  10
ENDBRANCH   1   4
BRANCH   1  16
ATOM     16  O   UNL     1      48.736   6.312  13.010  0.00  0.00    +0.000 OA
BRANCH  16  20
ATOM     17  C   UNL     1      48.029   5.412  16.963  0.00  0.00    +0.000 A 
ATOM     18  C   UNL     1      48.864   6.477  16.624  0.00  0.00    +0.000 A 
ATOM     19  C   UNL     1      49.095   6.750  15.280  0.00  0.00    +0.000 A 
ATOM     20  C   UNL     1      48.483   5.952  14.321  0.00  0.00    +0.000 A 
ATOM     21  N   UNL     1      47.670   4.915  14.612  0.00  0.00    +0.000 NA
ATOM     22  C   UNL     1      47.478   4.655  15.932  0.00  0.00    +0.000 A 
BRANCH  17  24
ATOM     23  N   UNL     1      46.536   5.489  18.882  0.00  0.00    +0.000 N 
ATOM     24  C   UNL     1      47.722   5.046  18.363  0.00  0.00    +0.000 C 
ATOM     25  O   UNL     1      48.482   4.354  19.020  0.00  0.00    +0.000 OA
ATOM     26  H   UNL     1      46.300   5.149  19.806  0.00  0.00    +0.000 HD
ATOM     27  H   UNL     1      45.783   5.840  18.309  0.00  0.00    +0.000 HD
ENDBRANCH  17  24
ENDBRANCH  16  20
ENDBRANCH   1  16
TORSDOF 5
ENDMDL
MODEL 5
REMARK VINA RESULT:    -6.540      3.544      6.064
REMARK INTER + INTRA:          -9.407
REMARK INTER:                  -8.495
REMARK INTRA:                  -0.912
REMARK UNBOUND:                -0.955
REMARK  Name = 
REMARK  5 active torsions:
REMARK  status: ('A' for Active; 'I' for Inactive)
REMARK    1  A    between atoms: C_2  and  C_4
REMARK    2  A    between atoms: C_7  and  O_8
REMARK    3  A    between atoms: O_8  and  C_9
REMARK    4  A    between atoms: C_9  and  C_10
REMARK    5  A    between atoms: C_14  and  C_15
REMARK                            x       y       z     vdW  Elec       q    Type
REMARK                         _______ _______ _______ _____ _____    ______ ____
ROOT
ATOM      1  C   UNL     1      48.116   7.913  12.904  0.00  0.00    +0.000 C 
ATOM      2  C   UNL     1      48.997   8.801  12.031  0.00  0.00    +0.000 C 
ATOM      3  C   UNL     1      49.135   7.316  11.957  0.00  0.00    +0.000 C 
ENDROOT
BRANCH   1   4
ATOM      4  C   UNL     1      48.364   7.925  14.406  0.00  0.00    +0.000 A 
ATOM      5  C   UNL     1      48.134   9.089  15.156  0.00  0.00    +0.000 A 
ATOM      6  C   UNL     1      48.303   9.108  16.540  0.00  0.00    +0.000 A 
ATOM      7  C   UNL     1      48.701   7.954  17.208  0.00  0.00    +0.000 A 
ATOM      8  C   UNL     1      48.932   6.764  16.506  0.00  0.00    +0.000 A 
ATOM      9  C   UNL     1      48.770   6.771  15.109  0.00  0.00    +0.000 A 
BRANCH   8  10
ATOM     10  C   UNL     1      49.260   5.470  17.241  0.00  0.00    +0.000 C 
ATOM     11  C   UNL     1      50.760   5.156  17.112  0.00  0.00    +0.000 C 
ATOM     12  C   UNL     1      51.100   3.784  17.668  0.00  0.00    +0.000 C 
ATOM     13  O   UNL     1      50.285   2.780  17.069  0.00  0.00    +0.000 OA
ATOM     14  C   UNL     1      48.903   2.974  17.366  0.00  0.00    +0.000 C 
ATOM     15  C   UNL     1      48.403   4.283  16.771  0.00  0.00    +0.000 C 
ENDBRANCH   8  10
ENDBRANCH   1   4
BRANCH   1  16
ATOM     16  O   UNL     1      46.739   8.000  12.464  0.00  0.00    +0.000 OA
BRANCH  16  20
ATOM     17  C   UNL     1      44.771   4.475  11.665  0.00  0.00    +0.000 A 
ATOM     18  C   UNL     1      45.116   5.339  10.624  0.00  0.00    +0.000 A 
ATOM     19  C   UNL     1      45.770   6.529  10.926  0.00  0.00    +0.000 A 
ATOM     20  C   UNL     1      46.057   6.816  12.254  0.00  0.00    +0.000 A 
ATOM     21  N   UNL     1      45.739   6.005  13.285  0.00  0.00    +0.000 NA
ATOM     22  C   UNL     1      45.082   4.859  12.966  0.00  0.00    +0.000 A 
BRANCH  17  24
ATOM     23  N   UNL     1      43.802   2.425  12.544  0.00  0.00    +0.000 N 
ATOM     24  C   UNL     1      44.078   3.188  11.443  0.00  0.00    +0.000 C 
ATOM     25  O   UNL     1      43.740   2.834  10.325  0.00  0.00    +0.000 OA
ATOM     26  H   UNL     1      43.243   1.597  12.383  0.00  0.00    +0.000 HD
ATOM     27  H   UNL     1      43.836   2.788  13.485  0.00  0.00    +0.000 HD
ENDBRANCH  17  24
ENDBRANCH  16  20
ENDBRANCH   1  16
TORSDOF 5
ENDMDL
MODEL 6
REMARK VINA RESULT:    -6.392      4.027      8.359
REMARK INTER + INTRA:          -9.216
REMARK INTER:                  -8.201
REMARK INTRA:                  -1.014
REMARK UNBOUND:                -0.955
REMARK  Name = 
REMARK  5 active torsions:
REMARK  status: ('A' for Active; 'I' for Inactive)
REMARK    1  A    between atoms: C_2  and  C_4
REMARK    2  A    between atoms: C_7  and  O_8
REMARK    3  A    between atoms: O_8  and  C_9
REMARK    4  A    between atoms: C_9  and  C_10
REMARK    5  A    between atoms: C_14  and  C_15
REMARK                            x       y       z     vdW  Elec       q    Type
REMARK                         _______ _______ _______ _____ _____    ______ ____
ROOT
ATOM      1  C   UNL     1      49.127   7.880  13.077  0.00  0.00    +0.000 C 
ATOM      2  C   UNL     1      49.982   8.118  11.836  0.00  0.00    +0.000 C 
ATOM      3  C   UNL     1      49.699   9.247  12.770  0.00  0.00    +0.000 C 
ENDROOT
BRANCH   1   4
ATOM      4  C   UNL     1      47.646   7.594  12.874  0.00  0.00    +0.000 A 
ATOM      5  C   UNL     1      46.709   8.639  12.896  0.00  0.00    +0.000 A 
ATOM      6  C   UNL     1      45.355   8.407  12.661  0.00  0.00    +0.000 A 
ATOM      7  C   UNL     1      44.906   7.117  12.390  0.00  0.00    +0.000 A 
ATOM      8  C   UNL     1      45.803   6.042  12.346  0.00  0.00    +0.000 A 
ATOM      9  C   UNL     1      47.163   6.297  12.600  0.00  0.00    +0.000 A 
BRANCH   8  10
ATOM     10  C   UNL     1      45.339   4.649  11.941  0.00  0.00    +0.000 C 
ATOM     11  C   UNL     1      44.931   4.639  10.458  0.00  0.00    +0.000 C 
ATOM     12  C   UNL     1      44.287   3.322  10.058  0.00  0.00    +0.000 C 
ATOM     13  O   UNL     1      43.195   3.012  10.921  0.00  0.00    +0.000 OA
ATOM     14  C   UNL     1      43.622   2.827  12.269  0.00  0.00    +0.000 C 
ATOM     15  C   UNL     1      44.204   4.116  12.832  0.00  0.00    +0.000 C 
ENDBRANCH   8  10
ENDBRANCH   1   4
BRANCH   1  16
ATOM     16  O   UNL     1      49.839   7.033  14.011  0.00  0.00    +0.000 OA
BRANCH  16  20
ATOM     17  C   UNL     1      48.237   6.825  17.796  0.00  0.00    +0.000 A 
ATOM     18  C   UNL     1      48.628   8.055  17.265  0.00  0.00    +0.000 A 
ATOM     19  C   UNL     1      49.178   8.093  15.988  0.00  0.00    +0.000 A 
ATOM     20  C   UNL     1      49.318   6.903  15.285  0.00  0.00    +0.000 A 
ATOM     21  N   UNL     1      48.951   5.697  15.766  0.00  0.00    +0.000 NA
ATOM     22  C   UNL     1      48.437   5.684  17.023  0.00  0.00    +0.000 A 
BRANCH  17  24
ATOM     23  N   UNL     1      47.052   5.488  19.446  0.00  0.00    +0.000 N 
ATOM     24  C   UNL     1      47.641   6.685  19.142  0.00  0.00    +0.000 C 
ATOM     25  O   UNL     1      47.697   7.590  19.959  0.00  0.00    +0.000 OA
ATOM     26  H   UNL     1      46.737   5.378  20.402  0.00  0.00    +0.000 HD
ATOM     27  H   UNL     1      47.203   4.650  18.906  0.00  0.00    +0.000 HD
ENDBRANCH  17  24
ENDBRANCH  16  20
ENDBRANCH   1  16
TORSDOF 5
ENDMDL
MODEL 7
REMARK VINA RESULT:    -6.258      5.649      8.359
REMARK INTER + INTRA:          -9.042
REMARK INTER:                  -8.898
REMARK INTRA:                  -0.144
REMARK UNBOUND:                -0.955
REMARK  Name = 
REMARK  5 active torsions:
REMARK  status: ('A' for Active; 'I' for Inactive)
REMARK    1  A    between atoms: C_2  and  C_4
REMARK    2  A    between atoms: C_7  and  O_8
REMARK    3  A    between atoms: O_8  and  C_9
REMARK    4  A    between atoms: C_9  and  C_10
REMARK    5  A    between atoms: C_14  and  C_15
REMARK                            x       y       z     vdW  Elec       q    Type
REMARK                         _______ _______ _______ _____ _____    ______ ____
ROOT
ATOM      1  C   UNL     1      48.103   4.640  16.936  0.00  0.00    +0.000 C 
ATOM      2  C   UNL     1      47.068   4.799  18.045  0.00  0.00    +0.000 C 
ATOM      3  C   UNL     1      47.307   3.455  17.439  0.00  0.00    +0.000 C 
ENDROOT
BRANCH   1   4
ATOM      4  C   UNL     1      47.796   5.266  15.583  0.00  0.00    +0.000 A 
ATOM      5  C   UNL     1      48.530   6.372  15.127  0.00  0.00    +0.000 A 
ATOM      6  C   UNL     1      48.301   6.928  13.869  0.00  0.00    +0.000 A 
ATOM      7  C   UNL     1      47.332   6.383  13.032  0.00  0.00    +0.000 A 
ATOM      8  C   UNL     1      46.580   5.272  13.437  0.00  0.00    +0.000 A 
ATOM      9  C   UNL     1      46.817   4.736  14.715  0.00  0.00    +0.000 A 
BRANCH   8  10
ATOM     10  C   UNL     1      45.597   4.602  12.486  0.00  0.00    +0.000 C 
ATOM     11  C   UNL     1      45.678   5.257  11.096  0.00  0.00    +0.000 C 
ATOM     12  C   UNL     1      44.588   4.748  10.168  0.00  0.00    +0.000 C 
ATOM     13  O   UNL     1      43.303   4.906  10.765  0.00  0.00    +0.000 OA
ATOM     14  C   UNL     1      43.174   4.130  11.955  0.00  0.00    +0.000 C 
ATOM     15  C   UNL     1      44.154   4.608  13.018  0.00  0.00    +0.000 C 
ENDBRANCH   8  10
ENDBRANCH   1   4
BRANCH   1  16
ATOM     16  O   UNL     1      49.433   4.848  17.469  0.00  0.00    +0.000 OA
BRANCH  16  20
ATOM     17  C   UNL     1      52.104   1.720  17.605  0.00  0.00    +0.000 A 
ATOM     18  C   UNL     1      52.439   2.954  18.163  0.00  0.00    +0.000 A 
ATOM     19  C   UNL     1      51.521   3.997  18.091  0.00  0.00    +0.000 A 
ATOM     20  C   UNL     1      50.301   3.772  17.466  0.00  0.00    +0.000 A 
ATOM     21  N   UNL     1      49.943   2.592  16.916  0.00  0.00    +0.000 NA
ATOM     22  C   UNL     1      50.866   1.597  16.980  0.00  0.00    +0.000 A 
BRANCH  17  24
ATOM     23  N   UNL     1      52.688  -0.472  18.481  0.00  0.00    +0.000 N 
ATOM     24  C   UNL     1      53.012   0.552  17.635  0.00  0.00    +0.000 C 
ATOM     25  O   UNL     1      53.993   0.493  16.912  0.00  0.00    +0.000 OA
ATOM     26  H   UNL     1      53.266  -1.301  18.417  0.00  0.00    +0.000 HD
ATOM     27  H   UNL     1      51.775  -0.573  18.898  0.00  0.00    +0.000 HD
ENDBRANCH  17  24
ENDBRANCH  16  20
ENDBRANCH   1  16
TORSDOF 5
ENDMDL
MODEL 8
REMARK VINA RESULT:    -5.865      3.599      6.253
REMARK INTER + INTRA:          -8.535
REMARK INTER:                  -7.596
REMARK INTRA:                  -0.939
REMARK UNBOUND:                -0.955
REMARK  Name = 
REMARK  5 active torsions:
REMARK  status: ('A' for Active; 'I' for Inactive)
REMARK    1  A    between atoms: C_2  and  C_4
REMARK    2  A    between atoms: C_7  and  O_8
REMARK    3  A    between atoms: O_8  and  C_9
REMARK    4  A    between atoms: C_9  and  C_10
REMARK    5  A    between atoms: C_14  and  C_15
REMARK                            x       y       z     vdW  Elec       q    Type
REMARK                         _______ _______ _______ _____ _____    ______ ____
ROOT
ATOM      1  C   UNL     1      48.830   7.387  13.514  0.00  0.00    +0.000 C 
ATOM      2  C   UNL     1      49.456   7.263  14.899  0.00  0.00    +0.000 C 
ATOM      3  C   UNL     1      48.126   7.922  14.742  0.00  0.00    +0.000 C 
ENDROOT
BRANCH   1   4
ATOM      4  C   UNL     1      49.487   8.333  12.520  0.00  0.00    +0.000 A 
ATOM      5  C   UNL     1      49.023   9.651  12.377  0.00  0.00    +0.000 A 
ATOM      6  C   UNL     1      49.643  10.550  11.511  0.00  0.00    +0.000 A 
ATOM      7  C   UNL     1      50.752  10.152  10.770  0.00  0.00    +0.000 A 
ATOM      8  C   UNL     1      51.261   8.851  10.886  0.00  0.00    +0.000 A 
ATOM      9  C   UNL     1      50.611   7.956  11.754  0.00  0.00    +0.000 A 
BRANCH   8  10
ATOM     10  C   UNL     1      52.538   8.441  10.164  0.00  0.00    +0.000 C 
ATOM     11  C   UNL     1      52.462   6.959   9.759  0.00  0.00    +0.000 C 
ATOM     12  C   UNL     1      53.784   6.456   9.204  0.00  0.00    +0.000 C 
ATOM     13  O   UNL     1      54.846   6.713  10.120  0.00  0.00    +0.000 OA
ATOM     14  C   UNL     1      55.036   8.111  10.332  0.00  0.00    +0.000 C 
ATOM     15  C   UNL     1      53.806   8.728  10.985  0.00  0.00    +0.000 C 
ENDBRANCH   8  10
ENDBRANCH   1   4
BRANCH   1  16
ATOM     16  O   UNL     1      48.453   6.077  13.024  0.00  0.00    +0.000 OA
BRANCH  16  20
ATOM     17  C   UNL     1      44.527   5.482  11.945  0.00  0.00    +0.000 A 
ATOM     18  C   UNL     1      45.359   6.276  11.155  0.00  0.00    +0.000 A 
ATOM     19  C   UNL     1      46.679   6.470  11.552  0.00  0.00    +0.000 A 
ATOM     20  C   UNL     1      47.122   5.864  12.721  0.00  0.00    +0.000 A 
ATOM     21  N   UNL     1      46.346   5.090  13.508  0.00  0.00    +0.000 NA
ATOM     22  C   UNL     1      45.055   4.934  13.111  0.00  0.00    +0.000 A 
BRANCH  17  24
ATOM     23  N   UNL     1      42.230   6.252  11.735  0.00  0.00    +0.000 N 
ATOM     24  C   UNL     1      43.112   5.216  11.605  0.00  0.00    +0.000 C 
ATOM     25  O   UNL     1      42.753   4.124  11.196  0.00  0.00    +0.000 OA
ATOM     26  H   UNL     1      41.288   6.079  11.406  0.00  0.00    +0.000 HD
ATOM     27  H   UNL     1      42.522   7.214  11.825  0.00  0.00    +0.000 HD
ENDBRANCH  17  24
ENDBRANCH  16  20
ENDBRANCH   1  16
TORSDOF 5
ENDMDL
