MODEL 1
REMARK VINA RESULT:    -8.672      0.000      0.000
REMARK INTER + INTRA:         -13.330
REMARK INTER:                 -12.220
REMARK INTRA:                  -1.110
REMARK UNBOUND:                -1.110
REMARK  Name = 
REMARK  7 active torsions:
REMARK  status: ('A' for Active; 'I' for Inactive)
REMARK    1  A    between atoms: C_2  and  C_4
REMARK    2  A    between atoms: C_7  and  C_8
REMARK    3  A    between atoms: C_8  and  N_9
REMARK    4  A    between atoms: N_9  and  C_10
REMARK    5  A    between atoms: C_10  and  C_11
REMARK    6  A    between atoms: C_11  and  C_12
REMARK    7  A    between atoms: C_15  and  C_16
REMARK                            x       y       z     vdW  Elec       q    Type
REMARK                         _______ _______ _______ _____ _____    ______ ____
ROOT
ATOM      1  N   UNL     1      45.663   4.893  11.847  0.00  0.00    +0.000 NA
ATOM      2  H   UNL     1      46.199   4.029  11.954  0.00  0.00    +0.000 HD
ENDROOT
BRANCH   1   3
ATOM      3  C   UNL     1      46.420   6.019  12.385  0.00  0.00    +0.000 C 
ATOM      4  C   UNL     1      47.226   7.001  11.566  0.00  0.00    +0.000 C 
ATOM      5  C   UNL     1      45.963   7.455  12.231  0.00  0.00    +0.000 C 
BRANCH   3   9
ATOM      6  C   UNL     1      48.084   4.951  16.285  0.00  0.00    +0.000 A 
ATOM      7  C   UNL     1      48.535   6.099  15.623  0.00  0.00    +0.000 A 
ATOM      8  C   UNL     1      48.006   6.435  14.372  0.00  0.00    +0.000 A 
ATOM      9  C   UNL     1      47.019   5.645  13.754  0.00  0.00    +0.000 A 
ATOM     10  C   UNL     1      46.618   4.473  14.421  0.00  0.00    +0.000 A 
ATOM     11  C   UNL     1      47.139   4.129  15.669  0.00  0.00    +0.000 A 
BRANCH   6  13
ATOM     12  N   UNL     1      47.671   4.110  18.533  0.00  0.00    +0.000 N 
ATOM     13  C   UNL     1      48.589   4.558  17.625  0.00  0.00    +0.000 C 
ATOM     14  O   UNL     1      49.782   4.584  17.897  0.00  0.00    +0.000 OA
ATOM     15  H   UNL     1      48.050   3.724  19.389  0.00  0.00    +0.000 HD
ATOM     16  H   UNL     1      46.742   3.823  18.262  0.00  0.00    +0.000 HD
ENDBRANCH   6  13
ENDBRANCH   3   9
ENDBRANCH   1   3
BRANCH   1  17
ATOM     17  C   UNL     1      44.226   4.599  11.738  0.00  0.00    +0.000 C 
ATOM     18  C   UNL     1      43.205   5.049  12.756  0.00  0.00    +0.000 C 
ATOM     19  C   UNL     1      43.531   3.594  12.629  0.00  0.00    +0.000 C 
BRANCH  17  20
ATOM     20  C   UNL     1      43.749   4.588  10.270  0.00  0.00    +0.000 C 
BRANCH  20  21
ATOM     21  C   UNL     1      44.702   3.848   9.356  0.00  0.00    +0.000 A 
ATOM     22  C   UNL     1      44.796   2.460   9.398  0.00  0.00    +0.000 A 
ATOM     23  C   UNL     1      45.702   1.814   8.560  0.00  0.00    +0.000 A 
ATOM     24  C   UNL     1      46.504   2.560   7.694  0.00  0.00    +0.000 A 
ATOM     25  C   UNL     1      46.345   3.937   7.715  0.00  0.00    +0.000 A 
ATOM     26  N   UNL     1      45.473   4.596   8.524  0.00  0.00    +0.000 NA
BRANCH  24  27
ATOM     27  C   UNL     1      47.470   1.843   6.827  0.00  0.00    +0.000 C 
ATOM     28  N   UNL     1      48.582   2.504   6.380  0.00  0.00    +0.000 N 
ATOM     29  O   UNL     1      47.289   0.673   6.510  0.00  0.00    +0.000 OA
ATOM     30  H   UNL     1      48.818   3.464   6.567  0.00  0.00    +0.000 HD
ATOM     31  H   UNL     1      49.212   1.970   5.793  0.00  0.00    +0.000 HD
ENDBRANCH  24  27
ENDBRANCH  20  21
ENDBRANCH  17  20
ENDBRANCH   1  17
TORSDOF 7
ENDMDL
MODEL 2
REMARK VINA RESULT:    -8.207      1.319      7.605
REMARK INTER + INTRA:         -12.675
REMARK INTER:                 -11.450
REMARK INTRA:                  -1.225
REMARK UNBOUND:                -1.110
REMARK  Name = 
REMARK  7 active torsions:
REMARK  status: ('A' for Active; 'I' for Inactive)
REMARK    1  A    between atoms: C_2  and  C_4
REMARK    2  A    between atoms: C_7  and  C_8
REMARK    3  A    between atoms: C_8  and  N_9
REMARK    4  A    between atoms: N_9  and  C_10
REMARK    5  A    between atoms: C_10  and  C_11
REMARK    6  A    between atoms: C_11  and  C_12
REMARK    7  A    between atoms: C_15  and  C_16
REMARK                            x       y       z     vdW  Elec       q    Type
REMARK                         _______ _______ _______ _____ _____    ______ ____
ROOT
ATOM      1  N   UNL     1      45.240   6.355  10.655  0.00  0.00    +0.000 NA
ATOM      2  H   UNL     1      44.812   7.007   9.994  0.00  0.00    +0.000 HD
ENDROOT
BRANCH   1   3
ATOM      3  C   UNL     1      44.565   5.062  10.588  0.00  0.00    +0.000 C 
ATOM      4  C   UNL     1      43.933   4.344  11.758  0.00  0.00    +0.000 C 
ATOM      5  C   UNL     1      43.060   4.923  10.688  0.00  0.00    +0.000 C 
BRANCH   3   9
ATOM      6  C   UNL     1      46.548   2.482   7.667  0.00  0.00    +0.000 A 
ATOM      7  C   UNL     1      46.568   3.871   7.500  0.00  0.00    +0.000 A 
ATOM      8  C   UNL     1      45.926   4.695   8.433  0.00  0.00    +0.000 A 
ATOM      9  C   UNL     1      45.258   4.160   9.549  0.00  0.00    +0.000 A 
ATOM     10  C   UNL     1      45.215   2.759   9.666  0.00  0.00    +0.000 A 
ATOM     11  C   UNL     1      45.851   1.929   8.743  0.00  0.00    +0.000 A 
BRANCH   6  13
ATOM     12  N   UNL     1      48.236   2.080   5.958  0.00  0.00    +0.000 N 
ATOM     13  C   UNL     1      47.232   1.560   6.726  0.00  0.00    +0.000 C 
ATOM     14  O   UNL     1      46.948   0.370   6.669  0.00  0.00    +0.000 OA
ATOM     15  H   UNL     1      48.775   1.410   5.423  0.00  0.00    +0.000 HD
ATOM     16  H   UNL     1      48.669   2.966   6.169  0.00  0.00    +0.000 HD
ENDBRANCH   6  13
ENDBRANCH   3   9
ENDBRANCH   1   3
BRANCH   1  17
ATOM     17  C   UNL     1      45.920   7.087  11.735  0.00  0.00    +0.000 C 
ATOM     18  C   UNL     1      45.198   7.669  12.927  0.00  0.00    +0.000 C 
ATOM     19  C   UNL     1      45.796   8.585  11.905  0.00  0.00    +0.000 C 
BRANCH  17  20
ATOM     20  C   UNL     1      47.331   6.526  12.012  0.00  0.00    +0.000 C 
BRANCH  20  21
ATOM     21  C   UNL     1      47.403   5.757  13.313  0.00  0.00    +0.000 A 
ATOM     22  C   UNL     1      46.775   4.522  13.445  0.00  0.00    +0.000 A 
ATOM     23  C   UNL     1      46.841   3.852  14.665  0.00  0.00    +0.000 A 
ATOM     24  C   UNL     1      47.531   4.423  15.736  0.00  0.00    +0.000 A 
ATOM     25  C   UNL     1      48.130   5.654  15.517  0.00  0.00    +0.000 A 
ATOM     26  N   UNL     1      48.078   6.334  14.341  0.00  0.00    +0.000 NA
BRANCH  24  27
ATOM     27  C   UNL     1      47.569   3.693  17.027  0.00  0.00    +0.000 C 
ATOM     28  N   UNL     1      48.702   3.749  17.792  0.00  0.00    +0.000 N 
ATOM     29  O   UNL     1      46.603   3.047  17.416  0.00  0.00    +0.000 OA
ATOM     30  H   UNL     1      49.552   4.235  17.560  0.00  0.00    +0.000 HD
ATOM     31  H   UNL     1      48.676   3.235  18.664  0.00  0.00    +0.000 HD
ENDBRANCH  24  27
ENDBRANCH  20  21
ENDBRANCH  17  20
ENDBRANCH   1  17
TORSDOF 7
ENDMDL
MODEL 3
REMARK VINA RESULT:    -7.945      2.743      3.968
REMARK INTER + INTRA:         -12.306
REMARK INTER:                 -11.237
REMARK INTRA:                  -1.069
REMARK UNBOUND:                -1.110
REMARK  Name = 
REMARK  7 active torsions:
REMARK  status: ('A' for Active; 'I' for Inactive)
REMARK    1  A    between atoms: C_2  and  C_4
REMARK    2  A    between atoms: C_7  and  C_8
REMARK    3  A    between atoms: C_8  and  N_9
REMARK    4  A    between atoms: N_9  and  C_10
REMARK    5  A    between atoms: C_10  and  C_11
REMARK    6  A    between atoms: C_11  and  C_12
REMARK    7  A    between atoms: C_15  and  C_16
REMARK                            x       y       z     vdW  Elec       q    Type
REMARK                         _______ _______ _______ _____ _____    ______ ____
ROOT
ATOM      1  N   UNL     1      45.546   4.804  11.802  0.00  0.00    +0.000 NA
ATOM      2  H   UNL     1      46.069   4.148  11.219  0.00  0.00    +0.000 HD
ENDROOT
BRANCH   1   3
ATOM      3  C   UNL     1      46.393   5.290  12.888  0.00  0.00    +0.000 C 
ATOM      4  C   UNL     1      46.238   4.926  14.347  0.00  0.00    +0.000 C 
ATOM      5  C   UNL     1      47.415   4.412  13.578  0.00  0.00    +0.000 C 
BRANCH   3   9
ATOM      6  C   UNL     1      47.598   9.413  12.072  0.00  0.00    +0.000 A 
ATOM      7  C   UNL     1      48.473   8.360  11.786  0.00  0.00    +0.000 A 
ATOM      8  C   UNL     1      48.087   7.041  12.054  0.00  0.00    +0.000 A 
ATOM      9  C   UNL     1      46.829   6.741  12.607  0.00  0.00    +0.000 A 
ATOM     10  C   UNL     1      45.989   7.823  12.927  0.00  0.00    +0.000 A 
ATOM     11  C   UNL     1      46.363   9.140  12.663  0.00  0.00    +0.000 A 
BRANCH   6  13
ATOM     12  N   UNL     1      49.076  11.328  12.359  0.00  0.00    +0.000 N 
ATOM     13  C   UNL     1      47.940  10.830  11.785  0.00  0.00    +0.000 C 
ATOM     14  O   UNL     1      47.265  11.515  11.028  0.00  0.00    +0.000 OA
ATOM     15  H   UNL     1      49.361  12.248  12.046  0.00  0.00    +0.000 HD
ATOM     16  H   UNL     1      49.784  10.729  12.757  0.00  0.00    +0.000 HD
ENDBRANCH   6  13
ENDBRANCH   3   9
ENDBRANCH   1   3
BRANCH   1  17
ATOM     17  C   UNL     1      44.099   4.570  11.673  0.00  0.00    +0.000 C 
ATOM     18  C   UNL     1      43.083   5.083  12.665  0.00  0.00    +0.000 C 
ATOM     19  C   UNL     1      43.348   3.613  12.570  0.00  0.00    +0.000 C 
BRANCH  17  20
ATOM     20  C   UNL     1      43.648   4.552  10.197  0.00  0.00    +0.000 C 
BRANCH  20  21
ATOM     21  C   UNL     1      44.620   3.814   9.303  0.00  0.00    +0.000 A 
ATOM     22  C   UNL     1      44.725   2.427   9.356  0.00  0.00    +0.000 A 
ATOM     23  C   UNL     1      45.648   1.783   8.536  0.00  0.00    +0.000 A 
ATOM     24  C   UNL     1      46.455   2.529   7.675  0.00  0.00    +0.000 A 
ATOM     25  C   UNL     1      46.283   3.905   7.683  0.00  0.00    +0.000 A 
ATOM     26  N   UNL     1      45.395   4.563   8.475  0.00  0.00    +0.000 NA
BRANCH  24  27
ATOM     27  C   UNL     1      47.439   1.815   6.827  0.00  0.00    +0.000 C 
ATOM     28  N   UNL     1      48.561   2.476   6.405  0.00  0.00    +0.000 N 
ATOM     29  O   UNL     1      47.264   0.646   6.502  0.00  0.00    +0.000 OA
ATOM     30  H   UNL     1      48.793   3.436   6.601  0.00  0.00    +0.000 HD
ATOM     31  H   UNL     1      49.203   1.944   5.830  0.00  0.00    +0.000 HD
ENDBRANCH  24  27
ENDBRANCH  20  21
ENDBRANCH  17  20
ENDBRANCH   1  17
TORSDOF 7
ENDMDL
MODEL 4
REMARK VINA RESULT:    -7.226      3.900      5.993
REMARK INTER + INTRA:         -11.293
REMARK INTER:                  -9.844
REMARK INTRA:                  -1.449
REMARK UNBOUND:                -1.110
REMARK  Name = 
REMARK  7 active torsions:
REMARK  status: ('A' for Active; 'I' for Inactive)
REMARK    1  A    between atoms: C_2  and  C_4
REMARK    2  A    between atoms: C_7  and  C_8
REMARK    3  A    between atoms: C_8  and  N_9
REMARK    4  A    between atoms: N_9  and  C_10
REMARK    5  A    between atoms: C_10  and  C_11
REMARK    6  A    between atoms: C_11  and  C_12
REMARK    7  A    between atoms: C_15  and  C_16
REMARK                            x       y       z     vdW  Elec       q    Type
REMARK                         _______ _______ _______ _____ _____    ______ ____
ROOT
ATOM      1  N   UNL     1      48.198   6.050  16.006  0.00  0.00    +0.000 NA
ATOM      2  H   UNL     1      47.205   6.021  15.764  0.00  0.00    +0.000 HD
ENDROOT
BRANCH   1   3
ATOM      3  C   UNL     1      48.386   5.613  17.387  0.00  0.00    +0.000 C 
ATOM      4  C   UNL     1      48.336   6.511  18.602  0.00  0.00    +0.000 C 
ATOM      5  C   UNL     1      47.241   5.516  18.373  0.00  0.00    +0.000 C 
BRANCH   3   9
ATOM      6  C   UNL     1      51.303   2.361  17.565  0.00  0.00    +0.000 A 
ATOM      7  C   UNL     1      51.704   3.675  17.832  0.00  0.00    +0.000 A 
ATOM      8  C   UNL     1      50.770   4.715  17.767  0.00  0.00    +0.000 A 
ATOM      9  C   UNL     1      49.422   4.475  17.443  0.00  0.00    +0.000 A 
ATOM     10  C   UNL     1      49.058   3.151  17.135  0.00  0.00    +0.000 A 
ATOM     11  C   UNL     1      49.980   2.107  17.196  0.00  0.00    +0.000 A 
BRANCH   6  13
ATOM     12  N   UNL     1      51.759   0.042  18.155  0.00  0.00    +0.000 N 
ATOM     13  C   UNL     1      52.242   1.213  17.643  0.00  0.00    +0.000 C 
ATOM     14  O   UNL     1      53.389   1.290  17.223  0.00  0.00    +0.000 OA
ATOM     15  H   UNL     1      52.372  -0.760  18.077  0.00  0.00    +0.000 HD
ATOM     16  H   UNL     1      50.770  -0.133  18.254  0.00  0.00    +0.000 HD
ENDBRANCH   6  13
ENDBRANCH   3   9
ENDBRANCH   1   3
BRANCH   1  17
ATOM     17  C   UNL     1      48.915   6.995  15.137  0.00  0.00    +0.000 C 
ATOM     18  C   UNL     1      50.262   7.586  15.483  0.00  0.00    +0.000 C 
ATOM     19  C   UNL     1      49.049   8.464  15.469  0.00  0.00    +0.000 C 
BRANCH  17  20
ATOM     20  C   UNL     1      48.677   6.697  13.641  0.00  0.00    +0.000 C 
BRANCH  20  21
ATOM     21  C   UNL     1      47.367   5.981  13.394  0.00  0.00    +0.000 A 
ATOM     22  C   UNL     1      46.225   6.691  13.036  0.00  0.00    +0.000 A 
ATOM     23  C   UNL     1      45.029   6.002  12.840  0.00  0.00    +0.000 A 
ATOM     24  C   UNL     1      44.989   4.617  13.006  0.00  0.00    +0.000 A 
ATOM     25  C   UNL     1      46.173   3.989  13.361  0.00  0.00    +0.000 A 
ATOM     26  N   UNL     1      47.353   4.633  13.564  0.00  0.00    +0.000 NA
BRANCH  24  27
ATOM     27  C   UNL     1      43.698   3.915  12.807  0.00  0.00    +0.000 C 
ATOM     28  N   UNL     1      43.703   2.579  12.513  0.00  0.00    +0.000 N 
ATOM     29  O   UNL     1      42.632   4.513  12.904  0.00  0.00    +0.000 OA
ATOM     30  H   UNL     1      44.517   2.000  12.397  0.00  0.00    +0.000 HD
ATOM     31  H   UNL     1      42.796   2.146  12.389  0.00  0.00    +0.000 HD
ENDBRANCH  24  27
ENDBRANCH  20  21
ENDBRANCH  17  20
ENDBRANCH   1  17
TORSDOF 7
ENDMDL
MODEL 5
REMARK VINA RESULT:    -7.147      2.775      3.318
REMARK INTER + INTRA:         -11.181
REMARK INTER:                 -10.388
REMARK INTRA:                  -0.793
REMARK UNBOUND:                -1.110
REMARK  Name = 
REMARK  7 active torsions:
REMARK  status: ('A' for Active; 'I' for Inactive)
REMARK    1  A    between atoms: C_2  and  C_4
REMARK    2  A    between atoms: C_7  and  C_8
REMARK    3  A    between atoms: C_8  and  N_9
REMARK    4  A    between atoms: N_9  and  C_10
REMARK    5  A    between atoms: C_10  and  C_11
REMARK    6  A    between atoms: C_11  and  C_12
REMARK    7  A    between atoms: C_15  and  C_16
REMARK                            x       y       z     vdW  Elec       q    Type
REMARK                         _______ _______ _______ _____ _____    ______ ____
ROOT
ATOM      1  N   UNL     1      45.448   6.034  11.169  0.00  0.00    +0.000 NA
ATOM      2  H   UNL     1      46.346   5.674  10.838  0.00  0.00    +0.000 HD
ENDROOT
BRANCH   1   3
ATOM      3  C   UNL     1      45.615   7.391  11.683  0.00  0.00    +0.000 C 
ATOM      4  C   UNL     1      44.842   8.602  11.216  0.00  0.00    +0.000 C 
ATOM      5  C   UNL     1      44.593   8.050  12.585  0.00  0.00    +0.000 C 
BRANCH   3   9
ATOM      6  C   UNL     1      49.813   8.115  12.667  0.00  0.00    +0.000 A 
ATOM      7  C   UNL     1      49.246   6.858  12.905  0.00  0.00    +0.000 A 
ATOM      8  C   UNL     1      47.900   6.630  12.595  0.00  0.00    +0.000 A 
ATOM      9  C   UNL     1      47.092   7.640  12.041  0.00  0.00    +0.000 A 
ATOM     10  C   UNL     1      47.676   8.906  11.856  0.00  0.00    +0.000 A 
ATOM     11  C   UNL     1      49.016   9.144  12.161  0.00  0.00    +0.000 A 
BRANCH   6  13
ATOM     12  N   UNL     1      51.807   7.783  14.025  0.00  0.00    +0.000 N 
ATOM     13  C   UNL     1      51.241   8.408  12.950  0.00  0.00    +0.000 C 
ATOM     14  O   UNL     1      51.904   9.140  12.227  0.00  0.00    +0.000 OA
ATOM     15  H   UNL     1      52.809   7.892  14.121  0.00  0.00    +0.000 HD
ATOM     16  H   UNL     1      51.379   6.984  14.468  0.00  0.00    +0.000 HD
ENDBRANCH   6  13
ENDBRANCH   3   9
ENDBRANCH   1   3
BRANCH   1  17
ATOM     17  C   UNL     1      44.541   4.927  11.508  0.00  0.00    +0.000 C 
ATOM     18  C   UNL     1      43.760   4.857  12.799  0.00  0.00    +0.000 C 
ATOM     19  C   UNL     1      44.878   3.891  12.557  0.00  0.00    +0.000 C 
BRANCH  17  20
ATOM     20  C   UNL     1      43.826   4.364  10.260  0.00  0.00    +0.000 C 
BRANCH  20  21
ATOM     21  C   UNL     1      44.792   3.772   9.257  0.00  0.00    +0.000 A 
ATOM     22  C   UNL     1      45.005   2.398   9.198  0.00  0.00    +0.000 A 
ATOM     23  C   UNL     1      45.920   1.890   8.278  0.00  0.00    +0.000 A 
ATOM     24  C   UNL     1      46.611   2.759   7.432  0.00  0.00    +0.000 A 
ATOM     25  C   UNL     1      46.337   4.112   7.555  0.00  0.00    +0.000 A 
ATOM     26  N   UNL     1      45.454   4.638   8.446  0.00  0.00    +0.000 NA
BRANCH  24  27
ATOM     27  C   UNL     1      47.590   2.188   6.476  0.00  0.00    +0.000 C 
ATOM     28  N   UNL     1      47.939   2.910   5.367  0.00  0.00    +0.000 N 
ATOM     29  O   UNL     1      48.090   1.085   6.666  0.00  0.00    +0.000 OA
ATOM     30  H   UNL     1      47.579   3.814   5.110  0.00  0.00    +0.000 HD
ATOM     31  H   UNL     1      48.613   2.478   4.747  0.00  0.00    +0.000 HD
ENDBRANCH  24  27
ENDBRANCH  20  21
ENDBRANCH  17  20
ENDBRANCH   1  17
TORSDOF 7
ENDMDL
MODEL 6
REMARK VINA RESULT:    -6.932      2.804      7.560
REMARK INTER + INTRA:         -10.879
REMARK INTER:                  -9.884
REMARK INTRA:                  -0.995
REMARK UNBOUND:                -1.110
REMARK  Name = 
REMARK  7 active torsions:
REMARK  status: ('A' for Active; 'I' for Inactive)
REMARK    1  A    between atoms: C_2  and  C_4
REMARK    2  A    between atoms: C_7  and  C_8
REMARK    3  A    between atoms: C_8  and  N_9
REMARK    4  A    between atoms: N_9  and  C_10
REMARK    5  A    between atoms: C_10  and  C_11
REMARK    6  A    between atoms: C_11  and  C_12
REMARK    7  A    between atoms: C_15  and  C_16
REMARK                            x       y       z     vdW  Elec       q    Type
REMARK                         _______ _______ _______ _____ _____    ______ ____
ROOT
ATOM      1  N   UNL     1      45.491   5.637  11.474  0.00  0.00    +0.000 NA
ATOM      2  H   UNL     1      45.327   6.590  11.141  0.00  0.00    +0.000 HD
ENDROOT
BRANCH   1   3
ATOM      3  C   UNL     1      44.551   4.718  10.837  0.00  0.00    +0.000 C 
ATOM      4  C   UNL     1      43.479   3.930  11.553  0.00  0.00    +0.000 C 
ATOM      5  C   UNL     1      43.087   5.055  10.646  0.00  0.00    +0.000 C 
BRANCH   3   9
ATOM      6  C   UNL     1      46.513   2.645   7.525  0.00  0.00    +0.000 A 
ATOM      7  C   UNL     1      46.512   4.044   7.571  0.00  0.00    +0.000 A 
ATOM      8  C   UNL     1      45.877   4.705   8.629  0.00  0.00    +0.000 A 
ATOM      9  C   UNL     1      45.236   3.996   9.661  0.00  0.00    +0.000 A 
ATOM     10  C   UNL     1      45.214   2.593   9.564  0.00  0.00    +0.000 A 
ATOM     11  C   UNL     1      45.843   1.924   8.515  0.00  0.00    +0.000 A 
BRANCH   6  13
ATOM     12  N   UNL     1      47.894   2.609   5.519  0.00  0.00    +0.000 N 
ATOM     13  C   UNL     1      47.192   1.888   6.443  0.00  0.00    +0.000 C 
ATOM     14  O   UNL     1      47.168   0.665   6.400  0.00  0.00    +0.000 OA
ATOM     15  H   UNL     1      48.456   2.070   4.871  0.00  0.00    +0.000 HD
ATOM     16  H   UNL     1      48.156   3.571   5.675  0.00  0.00    +0.000 HD
ENDBRANCH   6  13
ENDBRANCH   3   9
ENDBRANCH   1   3
BRANCH   1  17
ATOM     17  C   UNL     1      46.158   5.656  12.785  0.00  0.00    +0.000 C 
ATOM     18  C   UNL     1      47.083   4.561  13.262  0.00  0.00    +0.000 C 
ATOM     19  C   UNL     1      45.749   4.741  13.918  0.00  0.00    +0.000 C 
BRANCH  17  20
ATOM     20  C   UNL     1      46.531   7.088  13.222  0.00  0.00    +0.000 C 
BRANCH  20  21
ATOM     21  C   UNL     1      47.974   7.428  12.922  0.00  0.00    +0.000 A 
ATOM     22  C   UNL     1      48.873   7.692  13.951  0.00  0.00    +0.000 A 
ATOM     23  C   UNL     1      50.189   8.026  13.637  0.00  0.00    +0.000 A 
ATOM     24  C   UNL     1      50.589   8.095  12.302  0.00  0.00    +0.000 A 
ATOM     25  C   UNL     1      49.631   7.816  11.340  0.00  0.00    +0.000 A 
ATOM     26  N   UNL     1      48.339   7.492  11.615  0.00  0.00    +0.000 NA
BRANCH  24  27
ATOM     27  C   UNL     1      51.992   8.471  12.000  0.00  0.00    +0.000 C 
ATOM     28  N   UNL     1      52.795   7.579  11.343  0.00  0.00    +0.000 N 
ATOM     29  O   UNL     1      52.438   9.564  12.328  0.00  0.00    +0.000 OA
ATOM     30  H   UNL     1      52.534   6.654  11.044  0.00  0.00    +0.000 HD
ATOM     31  H   UNL     1      53.743   7.884  11.159  0.00  0.00    +0.000 HD
ENDBRANCH  24  27
ENDBRANCH  20  21
ENDBRANCH  17  20
ENDBRANCH   1  17
TORSDOF 7
ENDMDL
MODEL 7
REMARK VINA RESULT:    -6.750      2.784      7.217
REMARK INTER + INTRA:         -10.622
REMARK INTER:                  -9.056
REMARK INTRA:                  -1.566
REMARK UNBOUND:                -1.110
REMARK  Name = 
REMARK  7 active torsions:
REMARK  status: ('A' for Active; 'I' for Inactive)
REMARK    1  A    between atoms: C_2  and  C_4
REMARK    2  A    between atoms: C_7  and  C_8
REMARK    3  A    between atoms: C_8  and  N_9
REMARK    4  A    between atoms: N_9  and  C_10
REMARK    5  A    between atoms: C_10  and  C_11
REMARK    6  A    between atoms: C_11  and  C_12
REMARK    7  A    between atoms: C_15  and  C_16
REMARK                            x       y       z     vdW  Elec       q    Type
REMARK                         _______ _______ _______ _____ _____    ______ ____
ROOT
ATOM      1  N   UNL     1      46.901   8.343  13.029  0.00  0.00    +0.000 NA
ATOM      2  H   UNL     1      46.752   7.891  13.933  0.00  0.00    +0.000 HD
ENDROOT
BRANCH   1   3
ATOM      3  C   UNL     1      45.646   8.392  12.284  0.00  0.00    +0.000 C 
ATOM      4  C   UNL     1      44.548   9.411  12.487  0.00  0.00    +0.000 C 
ATOM      5  C   UNL     1      45.364   9.444  11.232  0.00  0.00    +0.000 C 
BRANCH   3   9
ATOM      6  C   UNL     1      44.315   4.327  11.377  0.00  0.00    +0.000 A 
ATOM      7  C   UNL     1      45.255   4.955  10.552  0.00  0.00    +0.000 A 
ATOM      8  C   UNL     1      45.674   6.259  10.841  0.00  0.00    +0.000 A 
ATOM      9  C   UNL     1      45.175   6.964  11.951  0.00  0.00    +0.000 A 
ATOM     10  C   UNL     1      44.197   6.325  12.735  0.00  0.00    +0.000 A 
ATOM     11  C   UNL     1      43.772   5.026  12.457  0.00  0.00    +0.000 A 
BRANCH   6  13
ATOM     12  N   UNL     1      44.428   2.254  10.103  0.00  0.00    +0.000 N 
ATOM     13  C   UNL     1      43.851   2.937  11.136  0.00  0.00    +0.000 C 
ATOM     14  O   UNL     1      43.023   2.400  11.860  0.00  0.00    +0.000 OA
ATOM     15  H   UNL     1      44.197   1.271  10.040  0.00  0.00    +0.000 HD
ATOM     16  H   UNL     1      45.286   2.561   9.669  0.00  0.00    +0.000 HD
ENDBRANCH   6  13
ENDBRANCH   3   9
ENDBRANCH   1   3
BRANCH   1  17
ATOM     17  C   UNL     1      48.313   8.245  12.628  0.00  0.00    +0.000 C 
ATOM     18  C   UNL     1      49.330   9.328  12.896  0.00  0.00    +0.000 C 
ATOM     19  C   UNL     1      48.894   9.054  11.491  0.00  0.00    +0.000 C 
BRANCH  17  20
ATOM     20  C   UNL     1      48.837   6.795  12.715  0.00  0.00    +0.000 C 
BRANCH  20  21
ATOM     21  C   UNL     1      48.384   6.090  13.975  0.00  0.00    +0.000 A 
ATOM     22  C   UNL     1      48.895   6.454  15.217  0.00  0.00    +0.000 A 
ATOM     23  C   UNL     1      48.475   5.766  16.354  0.00  0.00    +0.000 A 
ATOM     24  C   UNL     1      47.554   4.724  16.236  0.00  0.00    +0.000 A 
ATOM     25  C   UNL     1      47.095   4.428  14.962  0.00  0.00    +0.000 A 
ATOM     26  N   UNL     1      47.489   5.078  13.834  0.00  0.00    +0.000 NA
BRANCH  24  27
ATOM     27  C   UNL     1      47.140   4.000  17.462  0.00  0.00    +0.000 C 
ATOM     28  N   UNL     1      47.266   4.618  18.676  0.00  0.00    +0.000 N 
ATOM     29  O   UNL     1      46.686   2.863  17.402  0.00  0.00    +0.000 OA
ATOM     30  H   UNL     1      47.638   5.539  18.838  0.00  0.00    +0.000 HD
ATOM     31  H   UNL     1      46.967   4.083  19.482  0.00  0.00    +0.000 HD
ENDBRANCH  24  27
ENDBRANCH  20  21
ENDBRANCH  17  20
ENDBRANCH   1  17
TORSDOF 7
ENDMDL
MODEL 8
REMARK VINA RESULT:    -6.672      4.002      7.717
REMARK INTER + INTRA:         -10.512
REMARK INTER:                  -8.768
REMARK INTRA:                  -1.745
REMARK UNBOUND:                -1.110
REMARK  Name = 
REMARK  7 active torsions:
REMARK  status: ('A' for Active; 'I' for Inactive)
REMARK    1  A    between atoms: C_2  and  C_4
REMARK    2  A    between atoms: C_7  and  C_8
REMARK    3  A    between atoms: C_8  and  N_9
REMARK    4  A    between atoms: N_9  and  C_10
REMARK    5  A    between atoms: C_10  and  C_11
REMARK    6  A    between atoms: C_11  and  C_12
REMARK    7  A    between atoms: C_15  and  C_16
REMARK                            x       y       z     vdW  Elec       q    Type
REMARK                         _______ _______ _______ _____ _____    ______ ____
ROOT
ATOM      1  N   UNL     1      49.216   7.275  14.822  0.00  0.00    +0.000 NA
ATOM      2  H   UNL     1      50.140   6.838  14.824  0.00  0.00    +0.000 HD
ENDROOT
BRANCH   1   3
ATOM      3  C   UNL     1      48.701   7.343  13.456  0.00  0.00    +0.000 C 
ATOM      4  C   UNL     1      48.817   8.537  12.538  0.00  0.00    +0.000 C 
ATOM      5  C   UNL     1      49.606   7.299  12.243  0.00  0.00    +0.000 C 
BRANCH   3   9
ATOM      6  C   UNL     1      44.995   5.045  13.134  0.00  0.00    +0.000 A 
ATOM      7  C   UNL     1      45.034   6.374  12.698  0.00  0.00    +0.000 A 
ATOM      8  C   UNL     1      46.220   7.110  12.809  0.00  0.00    +0.000 A 
ATOM      9  C   UNL     1      47.389   6.544  13.348  0.00  0.00    +0.000 A 
ATOM     10  C   UNL     1      47.308   5.221  13.820  0.00  0.00    +0.000 A 
ATOM     11  C   UNL     1      46.132   4.479  13.714  0.00  0.00    +0.000 A 
BRANCH   6  13
ATOM     12  N   UNL     1      43.945   2.897  12.671  0.00  0.00    +0.000 N 
ATOM     13  C   UNL     1      43.775   4.207  13.019  0.00  0.00    +0.000 C 
ATOM     14  O   UNL     1      42.662   4.652  13.271  0.00  0.00    +0.000 OA
ATOM     15  H   UNL     1      43.119   2.314  12.728  0.00  0.00    +0.000 HD
ATOM     16  H   UNL     1      44.843   2.440  12.722  0.00  0.00    +0.000 HD
ENDBRANCH   6  13
ENDBRANCH   3   9
ENDBRANCH   1   3
BRANCH   1  17
ATOM     17  C   UNL     1      49.039   8.119  16.013  0.00  0.00    +0.000 C 
ATOM     18  C   UNL     1      48.516   9.535  15.958  0.00  0.00    +0.000 C 
ATOM     19  C   UNL     1      49.947   9.288  16.323  0.00  0.00    +0.000 C 
BRANCH  17  20
ATOM     20  C   UNL     1      48.615   7.294  17.247  0.00  0.00    +0.000 C 
BRANCH  20  21
ATOM     21  C   UNL     1      49.261   5.926  17.278  0.00  0.00    +0.000 A 
ATOM     22  C   UNL     1      48.483   4.771  17.287  0.00  0.00    +0.000 A 
ATOM     23  C   UNL     1      49.111   3.528  17.342  0.00  0.00    +0.000 A 
ATOM     24  C   UNL     1      50.504   3.454  17.389  0.00  0.00    +0.000 A 
ATOM     25  C   UNL     1      51.201   4.651  17.374  0.00  0.00    +0.000 A 
ATOM     26  N   UNL     1      50.618   5.879  17.326  0.00  0.00    +0.000 NA
BRANCH  24  27
ATOM     27  C   UNL     1      51.141   2.117  17.464  0.00  0.00    +0.000 C 
ATOM     28  N   UNL     1      52.204   1.930  18.305  0.00  0.00    +0.000 N 
ATOM     29  O   UNL     1      50.728   1.181  16.787  0.00  0.00    +0.000 OA
ATOM     30  H   UNL     1      52.628   2.630  18.890  0.00  0.00    +0.000 HD
ATOM     31  H   UNL     1      52.601   0.999  18.321  0.00  0.00    +0.000 HD
ENDBRANCH  24  27
ENDBRANCH  20  21
ENDBRANCH  17  20
ENDBRANCH   1  17
TORSDOF 7
ENDMDL
MODEL 9
REMARK VINA RESULT:    -6.428      2.857      7.458
REMARK INTER + INTRA:         -10.169
REMARK INTER:                  -8.716
REMARK INTRA:                  -1.453
REMARK UNBOUND:                -1.110
REMARK  Name = 
REMARK  7 active torsions:
REMARK  status: ('A' for Active; 'I' for Inactive)
REMARK    1  A    between atoms: C_2  and  C_4
REMARK    2  A    between atoms: C_7  and  C_8
REMARK    3  A    between atoms: C_8  and  N_9
REMARK    4  A    between atoms: N_9  and  C_10
REMARK    5  A    between atoms: C_10  and  C_11
REMARK    6  A    between atoms: C_11  and  C_12
REMARK    7  A    between atoms: C_15  and  C_16
REMARK                            x       y       z     vdW  Elec       q    Type
REMARK                         _______ _______ _______ _____ _____    ______ ____
ROOT
ATOM      1  N   UNL     1      45.393   5.549  12.131  0.00  0.00    +0.000 NA
ATOM      2  H   UNL     1      45.158   6.515  12.369  0.00  0.00    +0.000 HD
ENDROOT
BRANCH   1   3
ATOM      3  C   UNL     1      44.363   4.987  11.260  0.00  0.00    +0.000 C 
ATOM      4  C   UNL     1      43.065   4.373  11.728  0.00  0.00    +0.000 C 
ATOM      5  C   UNL     1      43.044   5.684  11.006  0.00  0.00    +0.000 C 
BRANCH   3   9
ATOM      6  C   UNL     1      46.235   3.050   7.816  0.00  0.00    +0.000 A 
ATOM      7  C   UNL     1      46.311   4.439   7.964  0.00  0.00    +0.000 A 
ATOM      8  C   UNL     1      45.705   5.058   9.064  0.00  0.00    +0.000 A 
ATOM      9  C   UNL     1      45.017   4.314  10.039  0.00  0.00    +0.000 A 
ATOM     10  C   UNL     1      44.917   2.925   9.841  0.00  0.00    +0.000 A 
ATOM     11  C   UNL     1      45.517   2.298   8.749  0.00  0.00    +0.000 A 
BRANCH   6  13
ATOM     12  N   UNL     1      47.098   3.046   5.539  0.00  0.00    +0.000 N 
ATOM     13  C   UNL     1      46.879   2.335   6.685  0.00  0.00    +0.000 C 
ATOM     14  O   UNL     1      47.247   1.172   6.784  0.00  0.00    +0.000 OA
ATOM     15  H   UNL     1      47.655   2.582   4.832  0.00  0.00    +0.000 HD
ATOM     16  H   UNL     1      47.059   4.054   5.516  0.00  0.00    +0.000 HD
ENDBRANCH   6  13
ENDBRANCH   3   9
ENDBRANCH   1   3
BRANCH   1  17
ATOM     17  C   UNL     1      46.290   4.971  13.143  0.00  0.00    +0.000 C 
ATOM     18  C   UNL     1      47.107   3.721  12.912  0.00  0.00    +0.000 C 
ATOM     19  C   UNL     1      45.966   3.691  13.880  0.00  0.00    +0.000 C 
BRANCH  17  20
ATOM     20  C   UNL     1      46.957   6.058  14.012  0.00  0.00    +0.000 C 
BRANCH  20  21
ATOM     21  C   UNL     1      47.443   7.235  13.195  0.00  0.00    +0.000 A 
ATOM     22  C   UNL     1      48.678   7.195  12.553  0.00  0.00    +0.000 A 
ATOM     23  C   UNL     1      49.105   8.307  11.830  0.00  0.00    +0.000 A 
ATOM     24  C   UNL     1      48.297   9.443  11.758  0.00  0.00    +0.000 A 
ATOM     25  C   UNL     1      47.082   9.397  12.423  0.00  0.00    +0.000 A 
ATOM     26  N   UNL     1      46.640   8.330  13.141  0.00  0.00    +0.000 NA
BRANCH  24  27
ATOM     27  C   UNL     1      48.787  10.616  10.994  0.00  0.00    +0.000 C 
ATOM     28  N   UNL     1      47.883  11.515  10.498  0.00  0.00    +0.000 N 
ATOM     29  O   UNL     1      49.986  10.790  10.805  0.00  0.00    +0.000 OA
ATOM     30  H   UNL     1      46.882  11.458  10.583  0.00  0.00    +0.000 HD
ATOM     31  H   UNL     1      48.269  12.299   9.986  0.00  0.00    +0.000 HD
ENDBRANCH  24  27
ENDBRANCH  20  21
ENDBRANCH  17  20
ENDBRANCH   1  17
TORSDOF 7
ENDMDL
