MODEL 1
REMARK VINA RESULT:    -7.253      0.000      0.000
REMARK INTER + INTRA:         -10.735
REMARK INTER:                  -9.797
REMARK INTRA:                  -0.938
REMARK UNBOUND:                -0.938
REMARK  Name = 
REMARK  7 active torsions:
REMARK  status: ('A' for Active; 'I' for Inactive)
REMARK    1  A    between atoms: C_1  and  C_2
REMARK    2  A    between atoms: C_2  and  N_3
REMARK    3  A    between atoms: C_2  and  C_16
REMARK    4  A    between atoms: C_4  and  C_6
REMARK    5  A    between atoms: C_19  and  C_20
REMARK    6  A    between atoms: C_20  and  N_21
REMARK    7  A    between atoms: C_22  and  C_24
REMARK                            x       y       z     vdW  Elec       q    Type
REMARK                         _______ _______ _______ _____ _____    ______ ____
ROOT
ATOM      1  C   UNL     1      49.105   7.447  12.783  0.00  0.00    +0.000 C 
ATOM      2  C   UNL     1      47.893   6.929  13.563  0.00  0.00    +0.000 C 
ENDROOT
BRANCH   2   3
ATOM      3  C   UNL     1      48.283   6.214  14.848  0.00  0.00    +0.000 A 
ATOM      4  C   UNL     1      47.532   5.110  15.277  0.00  0.00    +0.000 A 
ATOM      5  C   UNL     1      47.875   4.416  16.442  0.00  0.00    +0.000 A 
ATOM      6  C   UNL     1      48.975   4.811  17.214  0.00  0.00    +0.000 A 
ATOM      7  C   UNL     1      49.745   5.897  16.776  0.00  0.00    +0.000 A 
ATOM      8  C   UNL     1      49.399   6.595  15.610  0.00  0.00    +0.000 A 
BRANCH   6   9
ATOM      9  C   UNL     1      49.297   4.100  18.500  0.00  0.00    +0.000 C 
BRANCH   9  10
ATOM     10  N   UNL     1      50.557   3.404  18.472  0.00  0.00    +0.000 N 
ATOM     11  C   UNL     1      50.736   2.309  17.658  0.00  0.00    +0.000 C 
ATOM     12  O   UNL     1      49.843   1.857  16.945  0.00  0.00    +0.000 OA
ATOM     13  H   UNL     1      51.358   3.735  19.002  0.00  0.00    +0.000 HD
BRANCH  11  14
ATOM     14  C   UNL     1      52.066   1.731  17.704  0.00  0.00    +0.000 A 
ATOM     15  N   UNL     1      53.167   2.364  18.075  0.00  0.00    +0.000 NA
ATOM     16  C   UNL     1      54.174   1.437  17.967  0.00  0.00    +0.000 A 
ATOM     17  C   UNL     1      53.687   0.230  17.522  0.00  0.00    +0.000 A 
ATOM     18  N   UNL     1      52.345   0.433  17.356  0.00  0.00    +0.000 N 
ATOM     19  H   UNL     1      51.655  -0.236  17.038  0.00  0.00    +0.000 HD
ENDBRANCH  11  14
ENDBRANCH   9  10
ENDBRANCH   6   9
ENDBRANCH   2   3
BRANCH   2  20
ATOM     20  N   UNL     1      47.097   6.044  12.735  0.00  0.00    +0.000 N 
ATOM     21  C   UNL     1      46.185   6.503  11.822  0.00  0.00    +0.000 C 
ATOM     22  O   UNL     1      45.845   7.680  11.751  0.00  0.00    +0.000 OA
ATOM     23  H   UNL     1      47.440   5.098  12.645  0.00  0.00    +0.000 HD
BRANCH  21  24
ATOM     24  C   UNL     1      45.597   5.479  10.954  0.00  0.00    +0.000 A 
ATOM     25  C   UNL     1      45.769   5.542   9.578  0.00  0.00    +0.000 A 
ATOM     26  S   UNL     1      45.002   4.270   8.739  0.00  0.00    +0.000 S 
ATOM     27  C   UNL     1      44.448   3.570  10.189  0.00  0.00    +0.000 A 
ATOM     28  N   UNL     1      43.726   2.418  10.183  0.00  0.00    +0.000 NA
ATOM     29  C   UNL     1      43.403   1.984  11.355  0.00  0.00    +0.000 A 
ATOM     30  N   UNL     1      43.735   2.599  12.535  0.00  0.00    +0.000 N 
ATOM     31  C   UNL     1      44.423   3.787  12.590  0.00  0.00    +0.000 A 
ATOM     32  O   UNL     1      44.630   4.352  13.659  0.00  0.00    +0.000 OA
ATOM     33  C   UNL     1      44.828   4.306  11.297  0.00  0.00    +0.000 A 
ATOM     34  H   UNL     1      43.434   2.217  13.419  0.00  0.00    +0.000 HD
ENDBRANCH  21  24
ENDBRANCH   2  20
TORSDOF 6
ENDMDL
MODEL 2
REMARK VINA RESULT:    -7.244      4.149      8.792
REMARK INTER + INTRA:         -10.722
REMARK INTER:                  -9.799
REMARK INTRA:                  -0.924
REMARK UNBOUND:                -0.938
REMARK  Name = 
REMARK  7 active torsions:
REMARK  status: ('A' for Active; 'I' for Inactive)
REMARK    1  A    between atoms: C_1  and  C_2
REMARK    2  A    between atoms: C_2  and  N_3
REMARK    3  A    between atoms: C_2  and  C_16
REMARK    4  A    between atoms: C_4  and  C_6
REMARK    5  A    between atoms: C_19  and  C_20
REMARK    6  A    between atoms: C_20  and  N_21
REMARK    7  A    between atoms: C_22  and  C_24
REMARK                            x       y       z     vdW  Elec       q    Type
REMARK                         _______ _______ _______ _____ _____    ______ ____
ROOT
ATOM      1  C   UNL     1      47.524   3.551  15.448  0.00  0.00    +0.000 C 
ATOM      2  C   UNL     1      46.893   4.866  14.982  0.00  0.00    +0.000 C 
ENDROOT
BRANCH   2   3
ATOM      3  C   UNL     1      46.118   4.717  13.682  0.00  0.00    +0.000 A 
ATOM      4  C   UNL     1      45.996   3.450  13.094  0.00  0.00    +0.000 A 
ATOM      5  C   UNL     1      45.272   3.273  11.910  0.00  0.00    +0.000 A 
ATOM      6  C   UNL     1      44.655   4.360  11.278  0.00  0.00    +0.000 A 
ATOM      7  C   UNL     1      44.750   5.623  11.875  0.00  0.00    +0.000 A 
ATOM      8  C   UNL     1      45.479   5.802  13.060  0.00  0.00    +0.000 A 
BRANCH   6   9
ATOM      9  C   UNL     1      43.935   4.171   9.971  0.00  0.00    +0.000 C 
BRANCH   9  10
ATOM     10  N   UNL     1      44.703   3.447   8.991  0.00  0.00    +0.000 N 
ATOM     11  C   UNL     1      45.726   4.061   8.308  0.00  0.00    +0.000 C 
ATOM     12  O   UNL     1      46.020   5.244   8.470  0.00  0.00    +0.000 OA
ATOM     13  H   UNL     1      44.551   2.456   8.824  0.00  0.00    +0.000 HD
BRANCH  11  14
ATOM     14  C   UNL     1      46.438   3.202   7.380  0.00  0.00    +0.000 A 
ATOM     15  N   UNL     1      46.766   1.940   7.600  0.00  0.00    +0.000 NA
ATOM     16  C   UNL     1      47.416   1.529   6.462  0.00  0.00    +0.000 A 
ATOM     17  C   UNL     1      47.491   2.549   5.542  0.00  0.00    +0.000 A 
ATOM     18  N   UNL     1      46.866   3.608   6.141  0.00  0.00    +0.000 N 
ATOM     19  H   UNL     1      46.728   4.536   5.762  0.00  0.00    +0.000 HD
ENDBRANCH  11  14
ENDBRANCH   9  10
ENDBRANCH   6   9
ENDBRANCH   2   3
BRANCH   2  20
ATOM     20  N   UNL     1      47.909   5.890  14.829  0.00  0.00    +0.000 N 
ATOM     21  C   UNL     1      48.650   6.362  15.879  0.00  0.00    +0.000 C 
ATOM     22  O   UNL     1      48.401   6.089  17.050  0.00  0.00    +0.000 OA
ATOM     23  H   UNL     1      48.252   6.033  13.889  0.00  0.00    +0.000 HD
BRANCH  21  24
ATOM     24  C   UNL     1      49.745   7.267  15.518  0.00  0.00    +0.000 A 
ATOM     25  C   UNL     1      51.038   7.012  15.953  0.00  0.00    +0.000 A 
ATOM     26  S   UNL     1      52.170   8.182  15.439  0.00  0.00    +0.000 S 
ATOM     27  C   UNL     1      50.976   9.045  14.585  0.00  0.00    +0.000 A 
ATOM     28  N   UNL     1      51.287  10.169  13.885  0.00  0.00    +0.000 NA
ATOM     29  C   UNL     1      50.292  10.700  13.258  0.00  0.00    +0.000 A 
ATOM     30  N   UNL     1      49.010  10.211  13.269  0.00  0.00    +0.000 N 
ATOM     31  C   UNL     1      48.640   9.106  13.997  0.00  0.00    +0.000 A 
ATOM     32  O   UNL     1      47.468   8.746  14.051  0.00  0.00    +0.000 OA
ATOM     33  C   UNL     1      49.729   8.460  14.705  0.00  0.00    +0.000 A 
ATOM     34  H   UNL     1      48.272  10.686  12.772  0.00  0.00    +0.000 HD
ENDBRANCH  21  24
ENDBRANCH   2  20
TORSDOF 6
ENDMDL
MODEL 3
REMARK VINA RESULT:    -7.194      2.992      9.329
REMARK INTER + INTRA:         -10.655
REMARK INTER:                  -9.535
REMARK INTRA:                  -1.120
REMARK UNBOUND:                -0.938
REMARK  Name = 
REMARK  7 active torsions:
REMARK  status: ('A' for Active; 'I' for Inactive)
REMARK    1  A    between atoms: C_1  and  C_2
REMARK    2  A    between atoms: C_2  and  N_3
REMARK    3  A    between atoms: C_2  and  C_16
REMARK    4  A    between atoms: C_4  and  C_6
REMARK    5  A    between atoms: C_19  and  C_20
REMARK    6  A    between atoms: C_20  and  N_21
REMARK    7  A    between atoms: C_22  and  C_24
REMARK                            x       y       z     vdW  Elec       q    Type
REMARK                         _______ _______ _______ _____ _____    ______ ____
ROOT
ATOM      1  C   UNL     1      47.782   3.200  17.834  0.00  0.00    +0.000 C 
ATOM      2  C   UNL     1      48.544   4.470  17.443  0.00  0.00    +0.000 C 
ENDROOT
BRANCH   2   3
ATOM      3  C   UNL     1      48.068   5.058  16.124  0.00  0.00    +0.000 A 
ATOM      4  C   UNL     1      48.609   6.273  15.676  0.00  0.00    +0.000 A 
ATOM      5  C   UNL     1      48.209   6.832  14.458  0.00  0.00    +0.000 A 
ATOM      6  C   UNL     1      47.253   6.196  13.657  0.00  0.00    +0.000 A 
ATOM      7  C   UNL     1      46.729   4.969  14.086  0.00  0.00    +0.000 A 
ATOM      8  C   UNL     1      47.126   4.410  15.309  0.00  0.00    +0.000 A 
BRANCH   6   9
ATOM      9  C   UNL     1      46.782   6.838  12.380  0.00  0.00    +0.000 C 
BRANCH   9  10
ATOM     10  N   UNL     1      46.527   5.895  11.322  0.00  0.00    +0.000 N 
ATOM     11  C   UNL     1      45.239   5.584  10.954  0.00  0.00    +0.000 C 
ATOM     12  O   UNL     1      44.253   6.062  11.512  0.00  0.00    +0.000 OA
ATOM     13  H   UNL     1      47.284   5.484  10.784  0.00  0.00    +0.000 HD
BRANCH  11  14
ATOM     14  C   UNL     1      45.133   4.650   9.849  0.00  0.00    +0.000 A 
ATOM     15  N   UNL     1      45.661   4.817   8.648  0.00  0.00    +0.000 NA
ATOM     16  C   UNL     1      45.313   3.694   7.938  0.00  0.00    +0.000 A 
ATOM     17  C   UNL     1      44.564   2.837   8.708  0.00  0.00    +0.000 A 
ATOM     18  N   UNL     1      44.455   3.459   9.921  0.00  0.00    +0.000 N 
ATOM     19  H   UNL     1      43.969   3.124  10.743  0.00  0.00    +0.000 HD
ENDBRANCH  11  14
ENDBRANCH   9  10
ENDBRANCH   6   9
ENDBRANCH   2   3
BRANCH   2  20
ATOM     20  N   UNL     1      49.968   4.205  17.374  0.00  0.00    +0.000 N 
ATOM     21  C   UNL     1      50.785   4.244  18.472  0.00  0.00    +0.000 C 
ATOM     22  O   UNL     1      50.417   4.669  19.564  0.00  0.00    +0.000 OA
ATOM     23  H   UNL     1      50.285   3.711  16.550  0.00  0.00    +0.000 HD
BRANCH  21  24
ATOM     24  C   UNL     1      52.158   3.785  18.250  0.00  0.00    +0.000 A 
ATOM     25  C   UNL     1      53.231   4.621  18.525  0.00  0.00    +0.000 A 
ATOM     26  S   UNL     1      54.747   3.911  18.194  0.00  0.00    +0.000 S 
ATOM     27  C   UNL     1      54.022   2.449  17.709  0.00  0.00    +0.000 A 
ATOM     28  N   UNL     1      54.775   1.388  17.313  0.00  0.00    +0.000 NA
ATOM     29  C   UNL     1      54.094   0.335  17.007  0.00  0.00    +0.000 A 
ATOM     30  N   UNL     1      52.726   0.246  17.059  0.00  0.00    +0.000 N 
ATOM     31  C   UNL     1      51.922   1.303  17.410  0.00  0.00    +0.000 A 
ATOM     32  O   UNL     1      50.700   1.213  17.364  0.00  0.00    +0.000 OA
ATOM     33  C   UNL     1      52.642   2.507  17.783  0.00  0.00    +0.000 A 
ATOM     34  H   UNL     1      52.254  -0.603  16.788  0.00  0.00    +0.000 HD
ENDBRANCH  21  24
ENDBRANCH   2  20
TORSDOF 6
ENDMDL
MODEL 4
REMARK VINA RESULT:    -7.000      3.794      9.285
REMARK INTER + INTRA:         -10.394
REMARK INTER:                  -9.203
REMARK INTRA:                  -1.190
REMARK UNBOUND:                -0.938
REMARK  Name = 
REMARK  7 active torsions:
REMARK  status: ('A' for Active; 'I' for Inactive)
REMARK    1  A    between atoms: C_1  and  C_2
REMARK    2  A    between atoms: C_2  and  N_3
REMARK    3  A    between atoms: C_2  and  C_16
REMARK    4  A    between atoms: C_4  and  C_6
REMARK    5  A    between atoms: C_19  and  C_20
REMARK    6  A    between atoms: C_20  and  N_21
REMARK    7  A    between atoms: C_22  and  C_24
REMARK                            x       y       z     vdW  Elec       q    Type
REMARK                         _______ _______ _______ _____ _____    ______ ____
ROOT
ATOM      1  C   UNL     1      47.894   3.015  15.701  0.00  0.00    +0.000 C 
ATOM      2  C   UNL     1      47.165   4.362  15.706  0.00  0.00    +0.000 C 
ENDROOT
BRANCH   2   3
ATOM      3  C   UNL     1      46.732   4.801  14.316  0.00  0.00    +0.000 A 
ATOM      4  C   UNL     1      45.728   4.084  13.648  0.00  0.00    +0.000 A 
ATOM      5  C   UNL     1      45.292   4.472  12.377  0.00  0.00    +0.000 A 
ATOM      6  C   UNL     1      45.851   5.584  11.736  0.00  0.00    +0.000 A 
ATOM      7  C   UNL     1      46.835   6.320  12.409  0.00  0.00    +0.000 A 
ATOM      8  C   UNL     1      47.277   5.929  13.681  0.00  0.00    +0.000 A 
BRANCH   6   9
ATOM      9  C   UNL     1      45.422   5.955  10.342  0.00  0.00    +0.000 C 
BRANCH   9  10
ATOM     10  N   UNL     1      46.013   5.129   9.320  0.00  0.00    +0.000 N 
ATOM     11  C   UNL     1      45.302   4.096   8.754  0.00  0.00    +0.000 C 
ATOM     12  O   UNL     1      44.158   3.808   9.099  0.00  0.00    +0.000 OA
ATOM     13  H   UNL     1      46.939   5.323   8.950  0.00  0.00    +0.000 HD
BRANCH  11  14
ATOM     14  C   UNL     1      46.007   3.374   7.712  0.00  0.00    +0.000 A 
ATOM     15  N   UNL     1      46.372   3.874   6.543  0.00  0.00    +0.000 NA
ATOM     16  C   UNL     1      47.006   2.846   5.889  0.00  0.00    +0.000 A 
ATOM     17  C   UNL     1      47.026   1.709   6.662  0.00  0.00    +0.000 A 
ATOM     18  N   UNL     1      46.385   2.059   7.818  0.00  0.00    +0.000 N 
ATOM     19  H   UNL     1      46.207   1.475   8.625  0.00  0.00    +0.000 HD
ENDBRANCH  11  14
ENDBRANCH   9  10
ENDBRANCH   6   9
ENDBRANCH   2   3
BRANCH   2  20
ATOM     20  N   UNL     1      47.997   5.387  16.304  0.00  0.00    +0.000 N 
ATOM     21  C   UNL     1      47.996   5.653  17.648  0.00  0.00    +0.000 C 
ATOM     22  O   UNL     1      47.176   5.172  18.424  0.00  0.00    +0.000 OA
ATOM     23  H   UNL     1      48.783   5.697  15.749  0.00  0.00    +0.000 HD
BRANCH  21  24
ATOM     24  C   UNL     1      49.019   6.599  18.101  0.00  0.00    +0.000 A 
ATOM     25  C   UNL     1      48.652   7.799  18.695  0.00  0.00    +0.000 A 
ATOM     26  S   UNL     1      49.983   8.768  19.145  0.00  0.00    +0.000 S 
ATOM     27  C   UNL     1      51.093   7.599  18.598  0.00  0.00    +0.000 A 
ATOM     28  N   UNL     1      52.434   7.797  18.711  0.00  0.00    +0.000 NA
ATOM     29  C   UNL     1      53.156   6.814  18.287  0.00  0.00    +0.000 A 
ATOM     30  N   UNL     1      52.659   5.650  17.758  0.00  0.00    +0.000 N 
ATOM     31  C   UNL     1      51.315   5.424  17.583  0.00  0.00    +0.000 A 
ATOM     32  O   UNL     1      50.909   4.407  17.030  0.00  0.00    +0.000 OA
ATOM     33  C   UNL     1      50.459   6.493  18.063  0.00  0.00    +0.000 A 
ATOM     34  H   UNL     1      53.280   4.927  17.428  0.00  0.00    +0.000 HD
ENDBRANCH  21  24
ENDBRANCH   2  20
TORSDOF 6
ENDMDL
MODEL 5
REMARK VINA RESULT:    -6.828      5.469      8.569
REMARK INTER + INTRA:         -10.161
REMARK INTER:                  -9.043
REMARK INTRA:                  -1.117
REMARK UNBOUND:                -0.938
REMARK  Name = 
REMARK  7 active torsions:
REMARK  status: ('A' for Active; 'I' for Inactive)
REMARK    1  A    between atoms: C_1  and  C_2
REMARK    2  A    between atoms: C_2  and  N_3
REMARK    3  A    between atoms: C_2  and  C_16
REMARK    4  A    between atoms: C_4  and  C_6
REMARK    5  A    between atoms: C_19  and  C_20
REMARK    6  A    between atoms: C_20  and  N_21
REMARK    7  A    between atoms: C_22  and  C_24
REMARK                            x       y       z     vdW  Elec       q    Type
REMARK                         _______ _______ _______ _____ _____    ______ ____
ROOT
ATOM      1  C   UNL     1      47.590   8.325  14.586  0.00  0.00    +0.000 C 
ATOM      2  C   UNL     1      46.977   8.593  13.208  0.00  0.00    +0.000 C 
ENDROOT
BRANCH   2   3
ATOM      3  C   UNL     1      46.198   7.403  12.670  0.00  0.00    +0.000 A 
ATOM      4  C   UNL     1      46.567   6.106  13.057  0.00  0.00    +0.000 A 
ATOM      5  C   UNL     1      45.860   4.990  12.598  0.00  0.00    +0.000 A 
ATOM      6  C   UNL     1      44.768   5.140  11.734  0.00  0.00    +0.000 A 
ATOM      7  C   UNL     1      44.378   6.433  11.365  0.00  0.00    +0.000 A 
ATOM      8  C   UNL     1      45.089   7.553  11.821  0.00  0.00    +0.000 A 
BRANCH   6   9
ATOM      9  C   UNL     1      44.055   3.930  11.193  0.00  0.00    +0.000 C 
BRANCH   9  10
ATOM     10  N   UNL     1      44.882   3.103  10.352  0.00  0.00    +0.000 N 
ATOM     11  C   UNL     1      45.005   3.371   9.009  0.00  0.00    +0.000 C 
ATOM     12  O   UNL     1      44.409   4.293   8.456  0.00  0.00    +0.000 OA
ATOM     13  H   UNL     1      45.439   2.346  10.736  0.00  0.00    +0.000 HD
BRANCH  11  14
ATOM     14  C   UNL     1      45.900   2.481   8.293  0.00  0.00    +0.000 A 
ATOM     15  N   UNL     1      45.968   1.170   8.451  0.00  0.00    +0.000 NA
ATOM     16  C   UNL     1      46.939   0.747   7.576  0.00  0.00    +0.000 A 
ATOM     17  C   UNL     1      47.471   1.808   6.881  0.00  0.00    +0.000 A 
ATOM     18  N   UNL     1      46.802   2.905   7.349  0.00  0.00    +0.000 N 
ATOM     19  H   UNL     1      46.927   3.869   7.068  0.00  0.00    +0.000 HD
ENDBRANCH  11  14
ENDBRANCH   9  10
ENDBRANCH   6   9
ENDBRANCH   2   3
BRANCH   2  20
ATOM     20  N   UNL     1      48.006   8.972  12.260  0.00  0.00    +0.000 N 
ATOM     21  C   UNL     1      48.552  10.227  12.218  0.00  0.00    +0.000 C 
ATOM     22  O   UNL     1      48.099  11.174  12.855  0.00  0.00    +0.000 OA
ATOM     23  H   UNL     1      48.511   8.209  11.830  0.00  0.00    +0.000 HD
BRANCH  21  24
ATOM     24  C   UNL     1      49.696  10.385  11.316  0.00  0.00    +0.000 A 
ATOM     25  C   UNL     1      49.737  11.437  10.412  0.00  0.00    +0.000 A 
ATOM     26  S   UNL     1      51.143  11.446   9.444  0.00  0.00    +0.000 S 
ATOM     27  C   UNL     1      51.761  10.067  10.229  0.00  0.00    +0.000 A 
ATOM     28  N   UNL     1      52.971   9.548   9.888  0.00  0.00    +0.000 NA
ATOM     29  C   UNL     1      53.329   8.524  10.588  0.00  0.00    +0.000 A 
ATOM     30  N   UNL     1      52.586   7.970  11.599  0.00  0.00    +0.000 N 
ATOM     31  C   UNL     1      51.340   8.432  11.949  0.00  0.00    +0.000 A 
ATOM     32  O   UNL     1      50.668   7.860  12.801  0.00  0.00    +0.000 OA
ATOM     33  C   UNL     1      50.900   9.596  11.203  0.00  0.00    +0.000 A 
ATOM     34  H   UNL     1      52.916   7.157  12.096  0.00  0.00    +0.000 HD
ENDBRANCH  21  24
ENDBRANCH   2  20
TORSDOF 6
ENDMDL
MODEL 6
REMARK VINA RESULT:    -6.591      3.501      9.736
REMARK INTER + INTRA:          -9.841
REMARK INTER:                  -8.742
REMARK INTRA:                  -1.100
REMARK UNBOUND:                -0.938
REMARK  Name = 
REMARK  7 active torsions:
REMARK  status: ('A' for Active; 'I' for Inactive)
REMARK    1  A    between atoms: C_1  and  C_2
REMARK    2  A    between atoms: C_2  and  N_3
REMARK    3  A    between atoms: C_2  and  C_16
REMARK    4  A    between atoms: C_4  and  C_6
REMARK    5  A    between atoms: C_19  and  C_20
REMARK    6  A    between atoms: C_20  and  N_21
REMARK    7  A    between atoms: C_22  and  C_24
REMARK                            x       y       z     vdW  Elec       q    Type
REMARK                         _______ _______ _______ _____ _____    ______ ____
ROOT
ATOM      1  C   UNL     1      47.177   3.280  17.445  0.00  0.00    +0.000 C 
ATOM      2  C   UNL     1      47.986   4.525  17.072  0.00  0.00    +0.000 C 
ENDROOT
BRANCH   2   3
ATOM      3  C   UNL     1      47.707   5.005  15.656  0.00  0.00    +0.000 A 
ATOM      4  C   UNL     1      46.801   4.295  14.854  0.00  0.00    +0.000 A 
ATOM      5  C   UNL     1      46.506   4.720  13.555  0.00  0.00    +0.000 A 
ATOM      6  C   UNL     1      47.112   5.863  13.019  0.00  0.00    +0.000 A 
ATOM      7  C   UNL     1      47.997   6.591  13.825  0.00  0.00    +0.000 A 
ATOM      8  C   UNL     1      48.297   6.163  15.126  0.00  0.00    +0.000 A 
BRANCH   6   9
ATOM      9  C   UNL     1      46.838   6.274  11.598  0.00  0.00    +0.000 C 
BRANCH   9  10
ATOM     10  N   UNL     1      46.120   7.518  11.487  0.00  0.00    +0.000 N 
ATOM     11  C   UNL     1      44.747   7.530  11.401  0.00  0.00    +0.000 C 
ATOM     12  O   UNL     1      44.071   6.503  11.386  0.00  0.00    +0.000 OA
ATOM     13  H   UNL     1      46.599   8.413  11.531  0.00  0.00    +0.000 HD
BRANCH  11  14
ATOM     14  C   UNL     1      44.156   8.853  11.334  0.00  0.00    +0.000 A 
ATOM     15  N   UNL     1      44.664   9.950  11.870  0.00  0.00    +0.000 NA
ATOM     16  C   UNL     1      43.780  10.953  11.556  0.00  0.00    +0.000 A 
ATOM     17  C   UNL     1      42.721  10.465  10.826  0.00  0.00    +0.000 A 
ATOM     18  N   UNL     1      42.973   9.128  10.695  0.00  0.00    +0.000 N 
ATOM     19  H   UNL     1      42.407   8.439  10.216  0.00  0.00    +0.000 HD
ENDBRANCH  11  14
ENDBRANCH   9  10
ENDBRANCH   6   9
ENDBRANCH   2   3
BRANCH   2  20
ATOM     20  N   UNL     1      49.405   4.275  17.232  0.00  0.00    +0.000 N 
ATOM     21  C   UNL     1      50.067   4.483  18.412  0.00  0.00    +0.000 C 
ATOM     22  O   UNL     1      49.559   5.056  19.372  0.00  0.00    +0.000 OA
ATOM     23  H   UNL     1      49.827   3.672  16.539  0.00  0.00    +0.000 HD
BRANCH  21  24
ATOM     24  C   UNL     1      51.456   4.017  18.444  0.00  0.00    +0.000 A 
ATOM     25  C   UNL     1      52.449   4.807  19.006  0.00  0.00    +0.000 A 
ATOM     26  S   UNL     1      54.000   4.098  18.940  0.00  0.00    +0.000 S 
ATOM     27  C   UNL     1      53.389   2.695  18.194  0.00  0.00    +0.000 A 
ATOM     28  N   UNL     1      54.206   1.655  17.876  0.00  0.00    +0.000 NA
ATOM     29  C   UNL     1      53.603   0.644  17.347  0.00  0.00    +0.000 A 
ATOM     30  N   UNL     1      52.255   0.577  17.105  0.00  0.00    +0.000 N 
ATOM     31  C   UNL     1      51.397   1.618  17.367  0.00  0.00    +0.000 A 
ATOM     32  O   UNL     1      50.211   1.555  17.060  0.00  0.00    +0.000 OA
ATOM     33  C   UNL     1      52.024   2.773  17.982  0.00  0.00    +0.000 A 
ATOM     34  H   UNL     1      51.848  -0.238  16.670  0.00  0.00    +0.000 HD
ENDBRANCH  21  24
ENDBRANCH   2  20
TORSDOF 6
ENDMDL
MODEL 7
REMARK VINA RESULT:    -6.520      3.920      8.852
REMARK INTER + INTRA:          -9.746
REMARK INTER:                  -8.527
REMARK INTRA:                  -1.219
REMARK UNBOUND:                -0.938
REMARK  Name = 
REMARK  7 active torsions:
REMARK  status: ('A' for Active; 'I' for Inactive)
REMARK    1  A    between atoms: C_1  and  C_2
REMARK    2  A    between atoms: C_2  and  N_3
REMARK    3  A    between atoms: C_2  and  C_16
REMARK    4  A    between atoms: C_4  and  C_6
REMARK    5  A    between atoms: C_19  and  C_20
REMARK    6  A    between atoms: C_20  and  N_21
REMARK    7  A    between atoms: C_22  and  C_24
REMARK                            x       y       z     vdW  Elec       q    Type
REMARK                         _______ _______ _______ _____ _____    ______ ____
ROOT
ATOM      1  C   UNL     1      47.853   4.794  15.986  0.00  0.00    +0.000 C 
ATOM      2  C   UNL     1      47.515   5.905  14.988  0.00  0.00    +0.000 C 
ENDROOT
BRANCH   2   3
ATOM      3  C   UNL     1      46.662   5.414  13.829  0.00  0.00    +0.000 A 
ATOM      4  C   UNL     1      46.143   6.342  12.914  0.00  0.00    +0.000 A 
ATOM      5  C   UNL     1      45.372   5.924  11.825  0.00  0.00    +0.000 A 
ATOM      6  C   UNL     1      45.094   4.566  11.623  0.00  0.00    +0.000 A 
ATOM      7  C   UNL     1      45.632   3.632  12.518  0.00  0.00    +0.000 A 
ATOM      8  C   UNL     1      46.401   4.052  13.613  0.00  0.00    +0.000 A 
BRANCH   6   9
ATOM      9  C   UNL     1      44.210   4.131  10.486  0.00  0.00    +0.000 C 
BRANCH   9  10
ATOM     10  N   UNL     1      44.887   3.319   9.508  0.00  0.00    +0.000 N 
ATOM     11  C   UNL     1      45.650   3.900   8.522  0.00  0.00    +0.000 C 
ATOM     12  O   UNL     1      45.773   5.117   8.404  0.00  0.00    +0.000 OA
ATOM     13  H   UNL     1      44.870   2.305   9.557  0.00  0.00    +0.000 HD
BRANCH  11  14
ATOM     14  C   UNL     1      46.305   2.961   7.631  0.00  0.00    +0.000 A 
ATOM     15  N   UNL     1      46.781   3.245   6.430  0.00  0.00    +0.000 NA
ATOM     16  C   UNL     1      47.310   2.068   5.959  0.00  0.00    +0.000 A 
ATOM     17  C   UNL     1      47.153   1.056   6.877  0.00  0.00    +0.000 A 
ATOM     18  N   UNL     1      46.510   1.638   7.934  0.00  0.00    +0.000 N 
ATOM     19  H   UNL     1      46.225   1.198   8.800  0.00  0.00    +0.000 HD
ENDBRANCH  11  14
ENDBRANCH   9  10
ENDBRANCH   6   9
ENDBRANCH   2   3
BRANCH   2  20
ATOM     20  N   UNL     1      48.728   6.515  14.478  0.00  0.00    +0.000 N 
ATOM     21  C   UNL     1      48.985   7.856  14.582  0.00  0.00    +0.000 C 
ATOM     22  O   UNL     1      48.145   8.671  14.955  0.00  0.00    +0.000 OA
ATOM     23  H   UNL     1      49.499   5.885  14.307  0.00  0.00    +0.000 HD
BRANCH  21  24
ATOM     24  C   UNL     1      50.328   8.272  14.168  0.00  0.00    +0.000 A 
ATOM     25  C   UNL     1      50.493   9.179  13.131  0.00  0.00    +0.000 A 
ATOM     26  S   UNL     1      52.129   9.530  12.791  0.00  0.00    +0.000 S 
ATOM     27  C   UNL     1      52.668   8.512  14.045  0.00  0.00    +0.000 A 
ATOM     28  N   UNL     1      53.993   8.371  14.315  0.00  0.00    +0.000 NA
ATOM     29  C   UNL     1      54.255   7.595  15.313  0.00  0.00    +0.000 A 
ATOM     30  N   UNL     1      53.311   6.946  16.067  0.00  0.00    +0.000 N 
ATOM     31  C   UNL     1      51.965   7.023  15.805  0.00  0.00    +0.000 A 
ATOM     32  O   UNL     1      51.155   6.362  16.447  0.00  0.00    +0.000 OA
ATOM     33  C   UNL     1      51.616   7.899  14.702  0.00  0.00    +0.000 A 
ATOM     34  H   UNL     1      53.585   6.338  16.824  0.00  0.00    +0.000 HD
ENDBRANCH  21  24
ENDBRANCH   2  20
TORSDOF 6
ENDMDL
MODEL 8
REMARK VINA RESULT:    -6.416      2.020      2.601
REMARK INTER + INTRA:          -9.605
REMARK INTER:                  -8.540
REMARK INTRA:                  -1.065
REMARK UNBOUND:                -0.938
REMARK  Name = 
REMARK  7 active torsions:
REMARK  status: ('A' for Active; 'I' for Inactive)
REMARK    1  A    between atoms: C_1  and  C_2
REMARK    2  A    between atoms: C_2  and  N_3
REMARK    3  A    between atoms: C_2  and  C_16
REMARK    4  A    between atoms: C_4  and  C_6
REMARK    5  A    between atoms: C_19  and  C_20
REMARK    6  A    between atoms: C_20  and  N_21
REMARK    7  A    between atoms: C_22  and  C_24
REMARK                            x       y       z     vdW  Elec       q    Type
REMARK                         _______ _______ _______ _____ _____    ______ ____
ROOT
ATOM      1  C   UNL     1      48.655   7.827  11.599  0.00  0.00    +0.000 C 
ATOM      2  C   UNL     1      47.847   7.420  12.835  0.00  0.00    +0.000 C 
ENDROOT
BRANCH   2   3
ATOM      3  C   UNL     1      48.725   7.137  14.043  0.00  0.00    +0.000 A 
ATOM      4  C   UNL     1      48.251   6.292  15.058  0.00  0.00    +0.000 A 
ATOM      5  C   UNL     1      49.039   5.994  16.173  0.00  0.00    +0.000 A 
ATOM      6  C   UNL     1      50.324   6.536  16.308  0.00  0.00    +0.000 A 
ATOM      7  C   UNL     1      50.814   7.358  15.286  0.00  0.00    +0.000 A 
ATOM      8  C   UNL     1      50.022   7.662  14.169  0.00  0.00    +0.000 A 
BRANCH   6   9
ATOM      9  C   UNL     1      51.139   6.262  17.543  0.00  0.00    +0.000 C 
BRANCH   9  10
ATOM     10  N   UNL     1      51.860   5.016  17.491  0.00  0.00    +0.000 N 
ATOM     11  C   UNL     1      52.875   4.755  18.382  0.00  0.00    +0.000 C 
ATOM     12  O   UNL     1      53.235   5.562  19.237  0.00  0.00    +0.000 OA
ATOM     13  H   UNL     1      51.601   4.280  16.841  0.00  0.00    +0.000 HD
BRANCH  11  14
ATOM     14  C   UNL     1      53.486   3.447  18.238  0.00  0.00    +0.000 A 
ATOM     15  N   UNL     1      54.599   3.189  17.572  0.00  0.00    +0.000 NA
ATOM     16  C   UNL     1      54.799   1.836  17.706  0.00  0.00    +0.000 A 
ATOM     17  C   UNL     1      53.798   1.264  18.456  0.00  0.00    +0.000 A 
ATOM     18  N   UNL     1      52.969   2.300  18.785  0.00  0.00    +0.000 N 
ATOM     19  H   UNL     1      52.120   2.258  19.334  0.00  0.00    +0.000 HD
ENDBRANCH  11  14
ENDBRANCH   9  10
ENDBRANCH   6   9
ENDBRANCH   2   3
BRANCH   2  20
ATOM     20  N   UNL     1      47.027   6.260  12.545  0.00  0.00    +0.000 N 
ATOM     21  C   UNL     1      45.662   6.320  12.452  0.00  0.00    +0.000 C 
ATOM     22  O   UNL     1      45.013   7.312  12.773  0.00  0.00    +0.000 OA
ATOM     23  H   UNL     1      47.508   5.474  12.129  0.00  0.00    +0.000 HD
BRANCH  21  24
ATOM     24  C   UNL     1      45.010   5.094  11.985  0.00  0.00    +0.000 A 
ATOM     25  C   UNL     1      44.245   4.331  12.855  0.00  0.00    +0.000 A 
ATOM     26  S   UNL     1      43.577   2.938  12.129  0.00  0.00    +0.000 S 
ATOM     27  C   UNL     1      44.255   3.331  10.618  0.00  0.00    +0.000 A 
ATOM     28  N   UNL     1      44.047   2.544   9.528  0.00  0.00    +0.000 NA
ATOM     29  C   UNL     1      44.591   2.981   8.442  0.00  0.00    +0.000 A 
ATOM     30  N   UNL     1      45.328   4.133   8.346  0.00  0.00    +0.000 N 
ATOM     31  C   UNL     1      45.603   4.936   9.427  0.00  0.00    +0.000 A 
ATOM     32  O   UNL     1      46.335   5.914   9.321  0.00  0.00    +0.000 OA
ATOM     33  C   UNL     1      44.995   4.498  10.670  0.00  0.00    +0.000 A 
ATOM     34  H   UNL     1      45.743   4.409   7.469  0.00  0.00    +0.000 HD
ENDBRANCH  21  24
ENDBRANCH   2  20
TORSDOF 6
ENDMDL
MODEL 9
REMARK VINA RESULT:    -6.225      3.326      9.493
REMARK INTER + INTRA:          -9.346
REMARK INTER:                  -8.318
REMARK INTRA:                  -1.028
REMARK UNBOUND:                -0.938
REMARK  Name = 
REMARK  7 active torsions:
REMARK  status: ('A' for Active; 'I' for Inactive)
REMARK    1  A    between atoms: C_1  and  C_2
REMARK    2  A    between atoms: C_2  and  N_3
REMARK    3  A    between atoms: C_2  and  C_16
REMARK    4  A    between atoms: C_4  and  C_6
REMARK    5  A    between atoms: C_19  and  C_20
REMARK    6  A    between atoms: C_20  and  N_21
REMARK    7  A    between atoms: C_22  and  C_24
REMARK                            x       y       z     vdW  Elec       q    Type
REMARK                         _______ _______ _______ _____ _____    ______ ____
ROOT
ATOM      1  C   UNL     1      48.663   4.392  20.313  0.00  0.00    +0.000 C 
ATOM      2  C   UNL     1      49.706   4.981  19.360  0.00  0.00    +0.000 C 
ENDROOT
BRANCH   2   3
ATOM      3  C   UNL     1      49.150   5.242  17.969  0.00  0.00    +0.000 A 
ATOM      4  C   UNL     1      49.620   6.340  17.234  0.00  0.00    +0.000 A 
ATOM      5  C   UNL     1      49.146   6.598  15.944  0.00  0.00    +0.000 A 
ATOM      6  C   UNL     1      48.184   5.767  15.354  0.00  0.00    +0.000 A 
ATOM      7  C   UNL     1      47.731   4.653  16.073  0.00  0.00    +0.000 A 
ATOM      8  C   UNL     1      48.203   4.398  17.369  0.00  0.00    +0.000 A 
BRANCH   6   9
ATOM      9  C   UNL     1      47.632   6.090  13.992  0.00  0.00    +0.000 C 
BRANCH   9  10
ATOM     10  N   UNL     1      46.606   5.177  13.557  0.00  0.00    +0.000 N 
ATOM     11  C   UNL     1      46.038   5.303  12.311  0.00  0.00    +0.000 C 
ATOM     12  O   UNL     1      46.345   6.199  11.526  0.00  0.00    +0.000 OA
ATOM     13  H   UNL     1      46.322   4.387  14.128  0.00  0.00    +0.000 HD
BRANCH  11  14
ATOM     14  C   UNL     1      45.047   4.293  11.991  0.00  0.00    +0.000 A 
ATOM     15  N   UNL     1      44.241   3.706  12.860  0.00  0.00    +0.000 NA
ATOM     16  C   UNL     1      43.481   2.834  12.119  0.00  0.00    +0.000 A 
ATOM     17  C   UNL     1      43.829   2.884  10.790  0.00  0.00    +0.000 A 
ATOM     18  N   UNL     1      44.828   3.815  10.723  0.00  0.00    +0.000 N 
ATOM     19  H   UNL     1      45.332   4.119   9.901  0.00  0.00    +0.000 HD
ENDBRANCH  11  14
ENDBRANCH   9  10
ENDBRANCH   6   9
ENDBRANCH   2   3
BRANCH   2  20
ATOM     20  N   UNL     1      50.860   4.108  19.269  0.00  0.00    +0.000 N 
ATOM     21  C   UNL     1      52.147   4.577  19.262  0.00  0.00    +0.000 C 
ATOM     22  O   UNL     1      52.424   5.768  19.159  0.00  0.00    +0.000 OA
ATOM     23  H   UNL     1      50.698   3.138  19.502  0.00  0.00    +0.000 HD
BRANCH  21  24
ATOM     24  C   UNL     1      53.190   3.550  19.337  0.00  0.00    +0.000 A 
ATOM     25  C   UNL     1      54.269   3.707  20.194  0.00  0.00    +0.000 A 
ATOM     26  S   UNL     1      55.380   2.413  20.133  0.00  0.00    +0.000 S 
ATOM     27  C   UNL     1      54.433   1.580  18.989  0.00  0.00    +0.000 A 
ATOM     28  N   UNL     1      54.812   0.363  18.516  0.00  0.00    +0.000 NA
ATOM     29  C   UNL     1      53.983  -0.167  17.681  0.00  0.00    +0.000 A 
ATOM     30  N   UNL     1      52.808   0.410  17.273  0.00  0.00    +0.000 N 
ATOM     31  C   UNL     1      52.406   1.657  17.688  0.00  0.00    +0.000 A 
ATOM     32  O   UNL     1      51.391   2.178  17.238  0.00  0.00    +0.000 OA
ATOM     33  C   UNL     1      53.296   2.287  18.645  0.00  0.00    +0.000 A 
ATOM     34  H   UNL     1      52.212  -0.050  16.601  0.00  0.00    +0.000 HD
ENDBRANCH  21  24
ENDBRANCH   2  20
TORSDOF 6
ENDMDL
