MODEL 1
REMARK VINA RESULT:    -8.116      0.000      0.000
REMARK INTER + INTRA:         -12.024
REMARK INTER:                 -10.963
REMARK INTRA:                  -1.061
REMARK UNBOUND:                -1.061
REMARK  Name = 
REMARK  6 active torsions:
REMARK  status: ('A' for Active; 'I' for Inactive)
REMARK    1  A    between atoms: C_2  and  C_25
REMARK    2  A    between atoms: N_3  and  C_4
REMARK    3  A    between atoms: C_4  and  C_5
REMARK    4  A    between atoms: C_8  and  C_9
REMARK    5  A    between atoms: C_9  and  N_10
REMARK    6  A    between atoms: C_11  and  C_13
REMARK                            x       y       z     vdW  Elec       q    Type
REMARK                         _______ _______ _______ _____ _____    ______ ____
ROOT
ATOM      1  C   UNL     1      45.072   6.355  11.306  0.00  0.00    +0.000 A 
ATOM      2  C   UNL     1      44.661   7.632  11.689  0.00  0.00    +0.000 A 
ATOM      3  C   UNL     1      45.452   8.393  12.546  0.00  0.00    +0.000 A 
ATOM      4  C   UNL     1      46.643   7.852  13.023  0.00  0.00    +0.000 A 
ATOM      5  N   UNL     1      47.069   6.615  12.661  0.00  0.00    +0.000 NA
ATOM      6  C   UNL     1      46.279   5.899  11.822  0.00  0.00    +0.000 A 
ENDROOT
BRANCH   1   7
ATOM      7  C   UNL     1      44.238   5.524  10.380  0.00  0.00    +0.000 C 
BRANCH   7  10
ATOM      8  O   UNL     1      44.115   2.755  10.071  0.00  0.00    +0.000 OA
ATOM      9  C   UNL     1      44.875   3.397   9.352  0.00  0.00    +0.000 C 
ATOM     10  N   UNL     1      45.019   4.767   9.437  0.00  0.00    +0.000 N 
ATOM     11  H   UNL     1      45.689   5.209   8.812  0.00  0.00    +0.000 HD
BRANCH   9  12
ATOM     12  C   UNL     1      45.712   2.726   8.310  0.00  0.00    +0.000 A 
ATOM     13  C   UNL     1      46.080   3.438   7.174  0.00  0.00    +0.000 A 
ATOM     14  C   UNL     1      46.843   2.790   6.209  0.00  0.00    +0.000 A 
ATOM     15  C   UNL     1      47.198   1.458   6.407  0.00  0.00    +0.000 A 
ATOM     16  C   UNL     1      46.790   0.829   7.575  0.00  0.00    +0.000 A 
ATOM     17  N   UNL     1      46.059   1.429   8.541  0.00  0.00    +0.000 NA
ENDBRANCH   9  12
ENDBRANCH   7  10
ENDBRANCH   1   7
BRANCH   4  18
ATOM     18  C   UNL     1      47.504   8.632  13.992  0.00  0.00    +0.000 C 
BRANCH  18  19
ATOM     19  N   UNL     1      47.872   7.867  15.159  0.00  0.00    +0.000 N 
ATOM     20  C   UNL     1      49.151   7.445  15.397  0.00  0.00    +0.000 C 
ATOM     21  O   UNL     1      50.073   7.668  14.616  0.00  0.00    +0.000 OA
ATOM     22  H   UNL     1      47.102   7.427  15.654  0.00  0.00    +0.000 HD
BRANCH  20  23
ATOM     23  C   UNL     1      49.377   6.774  16.683  0.00  0.00    +0.000 A 
ATOM     24  C   UNL     1      50.139   7.390  17.665  0.00  0.00    +0.000 A 
ATOM     25  S   UNL     1      50.264   6.477  19.102  0.00  0.00    +0.000 S 
ATOM     26  C   UNL     1      49.338   5.208  18.445  0.00  0.00    +0.000 A 
ATOM     27  N   UNL     1      49.087   4.076  19.155  0.00  0.00    +0.000 NA
ATOM     28  C   UNL     1      48.399   3.189  18.521  0.00  0.00    +0.000 A 
ATOM     29  N   UNL     1      47.924   3.333  17.240  0.00  0.00    +0.000 N 
ATOM     30  C   UNL     1      48.096   4.480  16.512  0.00  0.00    +0.000 A 
ATOM     31  O   UNL     1      47.568   4.621  15.416  0.00  0.00    +0.000 OA
ATOM     32  C   UNL     1      48.909   5.495  17.159  0.00  0.00    +0.000 A 
ATOM     33  H   UNL     1      47.367   2.613  16.810  0.00  0.00    +0.000 HD
ENDBRANCH  20  23
ENDBRANCH  18  19
ENDBRANCH   4  18
TORSDOF 6
ENDMDL
MODEL 2
REMARK VINA RESULT:    -7.857      1.801      2.290
REMARK INTER + INTRA:         -11.675
REMARK INTER:                 -10.729
REMARK INTRA:                  -0.946
REMARK UNBOUND:                -1.061
REMARK  Name = 
REMARK  6 active torsions:
REMARK  status: ('A' for Active; 'I' for Inactive)
REMARK    1  A    between atoms: C_2  and  C_25
REMARK    2  A    between atoms: N_3  and  C_4
REMARK    3  A    between atoms: C_4  and  C_5
REMARK    4  A    between atoms: C_8  and  C_9
REMARK    5  A    between atoms: C_9  and  N_10
REMARK    6  A    between atoms: C_11  and  C_13
REMARK                            x       y       z     vdW  Elec       q    Type
REMARK                         _______ _______ _______ _____ _____    ______ ____
ROOT
ATOM      1  C   UNL     1      44.692   4.902  11.896  0.00  0.00    +0.000 A 
ATOM      2  C   UNL     1      45.762   4.918  12.791  0.00  0.00    +0.000 A 
ATOM      3  C   UNL     1      46.281   6.131  13.239  0.00  0.00    +0.000 A 
ATOM      4  C   UNL     1      45.726   7.317  12.767  0.00  0.00    +0.000 A 
ATOM      5  N   UNL     1      44.680   7.329  11.901  0.00  0.00    +0.000 NA
ATOM      6  C   UNL     1      44.194   6.133  11.485  0.00  0.00    +0.000 A 
ENDROOT
BRANCH   1   7
ATOM      7  C   UNL     1      44.117   3.608  11.409  0.00  0.00    +0.000 C 
BRANCH   7  10
ATOM      8  O   UNL     1      44.141   4.218   8.687  0.00  0.00    +0.000 OA
ATOM      9  C   UNL     1      44.890   3.339   9.103  0.00  0.00    +0.000 C 
ATOM     10  N   UNL     1      44.943   2.954  10.427  0.00  0.00    +0.000 N 
ATOM     11  H   UNL     1      45.582   2.201  10.673  0.00  0.00    +0.000 HD
BRANCH   9  12
ATOM     12  C   UNL     1      45.820   2.611   8.184  0.00  0.00    +0.000 A 
ATOM     13  C   UNL     1      46.398   3.297   7.121  0.00  0.00    +0.000 A 
ATOM     14  C   UNL     1      47.244   2.597   6.268  0.00  0.00    +0.000 A 
ATOM     15  C   UNL     1      47.470   1.243   6.499  0.00  0.00    +0.000 A 
ATOM     16  C   UNL     1      46.855   0.643   7.589  0.00  0.00    +0.000 A 
ATOM     17  N   UNL     1      46.036   1.292   8.447  0.00  0.00    +0.000 NA
ENDBRANCH   9  12
ENDBRANCH   7  10
ENDBRANCH   1   7
BRANCH   4  18
ATOM     18  C   UNL     1      46.293   8.652  13.195  0.00  0.00    +0.000 C 
BRANCH  18  19
ATOM     19  N   UNL     1      47.021   8.582  14.440  0.00  0.00    +0.000 N 
ATOM     20  C   UNL     1      48.201   9.240  14.649  0.00  0.00    +0.000 C 
ATOM     21  O   UNL     1      48.738   9.919  13.776  0.00  0.00    +0.000 OA
ATOM     22  H   UNL     1      46.763   7.815  15.054  0.00  0.00    +0.000 HD
BRANCH  20  23
ATOM     23  C   UNL     1      48.755   9.152  16.005  0.00  0.00    +0.000 A 
ATOM     24  C   UNL     1      48.819  10.284  16.805  0.00  0.00    +0.000 A 
ATOM     25  S   UNL     1      49.458   9.983  18.358  0.00  0.00    +0.000 S 
ATOM     26  C   UNL     1      49.711   8.338  18.001  0.00  0.00    +0.000 A 
ATOM     27  N   UNL     1      50.274   7.497  18.907  0.00  0.00    +0.000 NA
ATOM     28  C   UNL     1      50.431   6.287  18.487  0.00  0.00    +0.000 A 
ATOM     29  N   UNL     1      50.065   5.834  17.244  0.00  0.00    +0.000 N 
ATOM     30  C   UNL     1      49.435   6.629  16.324  0.00  0.00    +0.000 A 
ATOM     31  O   UNL     1      49.021   6.169  15.266  0.00  0.00    +0.000 OA
ATOM     32  C   UNL     1      49.277   8.017  16.724  0.00  0.00    +0.000 A 
ATOM     33  H   UNL     1      50.188   4.869  16.987  0.00  0.00    +0.000 HD
ENDBRANCH  20  23
ENDBRANCH  18  19
ENDBRANCH   4  18
TORSDOF 6
ENDMDL
MODEL 3
REMARK VINA RESULT:    -7.643      2.248      3.816
REMARK INTER + INTRA:         -11.385
REMARK INTER:                 -10.305
REMARK INTRA:                  -1.080
REMARK UNBOUND:                -1.061
REMARK  Name = 
REMARK  6 active torsions:
REMARK  status: ('A' for Active; 'I' for Inactive)
REMARK    1  A    between atoms: C_2  and  C_25
REMARK    2  A    between atoms: N_3  and  C_4
REMARK    3  A    between atoms: C_4  and  C_5
REMARK    4  A    between atoms: C_8  and  C_9
REMARK    5  A    between atoms: C_9  and  N_10
REMARK    6  A    between atoms: C_11  and  C_13
REMARK                            x       y       z     vdW  Elec       q    Type
REMARK                         _______ _______ _______ _____ _____    ______ ____
ROOT
ATOM      1  C   UNL     1      44.912   4.516  11.771  0.00  0.00    +0.000 A 
ATOM      2  C   UNL     1      45.312   5.767  12.242  0.00  0.00    +0.000 A 
ATOM      3  C   UNL     1      46.112   5.862  13.379  0.00  0.00    +0.000 A 
ATOM      4  C   UNL     1      46.487   4.695  14.039  0.00  0.00    +0.000 A 
ATOM      5  N   UNL     1      46.117   3.466  13.597  0.00  0.00    +0.000 NA
ATOM      6  C   UNL     1      45.341   3.405  12.485  0.00  0.00    +0.000 A 
ENDROOT
BRANCH   1   7
ATOM      7  C   UNL     1      44.057   4.394  10.547  0.00  0.00    +0.000 C 
BRANCH   7  10
ATOM      8  O   UNL     1      45.933   5.380   8.735  0.00  0.00    +0.000 OA
ATOM      9  C   UNL     1      45.602   4.200   8.660  0.00  0.00    +0.000 C 
ATOM     10  N   UNL     1      44.672   3.621   9.499  0.00  0.00    +0.000 N 
ATOM     11  H   UNL     1      44.447   2.642   9.347  0.00  0.00    +0.000 HD
BRANCH   9  12
ATOM     12  C   UNL     1      46.197   3.289   7.634  0.00  0.00    +0.000 A 
ATOM     13  C   UNL     1      46.444   1.961   7.969  0.00  0.00    +0.000 A 
ATOM     14  C   UNL     1      47.016   1.136   7.007  0.00  0.00    +0.000 A 
ATOM     15  C   UNL     1      47.329   1.665   5.758  0.00  0.00    +0.000 A 
ATOM     16  C   UNL     1      47.042   3.001   5.512  0.00  0.00    +0.000 A 
ATOM     17  N   UNL     1      46.476   3.831   6.416  0.00  0.00    +0.000 NA
ENDBRANCH   9  12
ENDBRANCH   7  10
ENDBRANCH   1   7
BRANCH   4  18
ATOM     18  C   UNL     1      47.316   4.762  15.302  0.00  0.00    +0.000 C 
BRANCH  18  19
ATOM     19  N   UNL     1      47.925   6.054  15.509  0.00  0.00    +0.000 N 
ATOM     20  C   UNL     1      49.120   6.218  16.151  0.00  0.00    +0.000 C 
ATOM     21  O   UNL     1      49.748   5.272  16.622  0.00  0.00    +0.000 OA
ATOM     22  H   UNL     1      47.305   6.852  15.399  0.00  0.00    +0.000 HD
BRANCH  20  23
ATOM     23  C   UNL     1      49.652   7.586  16.181  0.00  0.00    +0.000 A 
ATOM     24  C   UNL     1      49.913   8.204  17.396  0.00  0.00    +0.000 A 
ATOM     25  S   UNL     1      50.559   9.776  17.234  0.00  0.00    +0.000 S 
ATOM     26  C   UNL     1      50.471   9.701  15.536  0.00  0.00    +0.000 A 
ATOM     27  N   UNL     1      50.846  10.753  14.762  0.00  0.00    +0.000 NA
ATOM     28  C   UNL     1      50.696  10.565  13.494  0.00  0.00    +0.000 A 
ATOM     29  N   UNL     1      50.217   9.412  12.924  0.00  0.00    +0.000 N 
ATOM     30  C   UNL     1      49.889   8.304  13.660  0.00  0.00    +0.000 A 
ATOM     31  O   UNL     1      49.568   7.254  13.116  0.00  0.00    +0.000 OA
ATOM     32  C   UNL     1      49.990   8.477  15.099  0.00  0.00    +0.000 A 
ATOM     33  H   UNL     1      50.151   9.316  11.925  0.00  0.00    +0.000 HD
ENDBRANCH  20  23
ENDBRANCH  18  19
ENDBRANCH   4  18
TORSDOF 6
ENDMDL
MODEL 4
REMARK VINA RESULT:    -7.587      1.378      1.556
REMARK INTER + INTRA:         -11.309
REMARK INTER:                 -10.399
REMARK INTRA:                  -0.911
REMARK UNBOUND:                -1.061
REMARK  Name = 
REMARK  6 active torsions:
REMARK  status: ('A' for Active; 'I' for Inactive)
REMARK    1  A    between atoms: C_2  and  C_25
REMARK    2  A    between atoms: N_3  and  C_4
REMARK    3  A    between atoms: C_4  and  C_5
REMARK    4  A    between atoms: C_8  and  C_9
REMARK    5  A    between atoms: C_9  and  N_10
REMARK    6  A    between atoms: C_11  and  C_13
REMARK                            x       y       z     vdW  Elec       q    Type
REMARK                         _______ _______ _______ _____ _____    ______ ____
ROOT
ATOM      1  C   UNL     1      45.387   6.067  11.684  0.00  0.00    +0.000 A 
ATOM      2  C   UNL     1      46.174   5.362  12.594  0.00  0.00    +0.000 A 
ATOM      3  C   UNL     1      46.988   6.048  13.494  0.00  0.00    +0.000 A 
ATOM      4  C   UNL     1      47.013   7.439  13.454  0.00  0.00    +0.000 A 
ATOM      5  N   UNL     1      46.252   8.149  12.582  0.00  0.00    +0.000 NA
ATOM      6  C   UNL     1      45.467   7.454  11.722  0.00  0.00    +0.000 A 
ENDROOT
BRANCH   1   7
ATOM      7  C   UNL     1      44.502   5.347  10.714  0.00  0.00    +0.000 C 
BRANCH   7  10
ATOM      8  O   UNL     1      44.012   2.704   9.974  0.00  0.00    +0.000 OA
ATOM      9  C   UNL     1      44.903   3.323   9.401  0.00  0.00    +0.000 C 
ATOM     10  N   UNL     1      45.233   4.628   9.703  0.00  0.00    +0.000 N 
ATOM     11  H   UNL     1      46.001   5.051   9.188  0.00  0.00    +0.000 HD
BRANCH   9  12
ATOM     12  C   UNL     1      45.710   2.693   8.309  0.00  0.00    +0.000 A 
ATOM     13  C   UNL     1      46.024   3.442   7.180  0.00  0.00    +0.000 A 
ATOM     14  C   UNL     1      46.758   2.832   6.169  0.00  0.00    +0.000 A 
ATOM     15  C   UNL     1      47.138   1.501   6.316  0.00  0.00    +0.000 A 
ATOM     16  C   UNL     1      46.784   0.833   7.480  0.00  0.00    +0.000 A 
ATOM     17  N   UNL     1      46.083   1.395   8.490  0.00  0.00    +0.000 NA
ENDBRANCH   9  12
ENDBRANCH   7  10
ENDBRANCH   1   7
BRANCH   4  18
ATOM     18  C   UNL     1      47.919   8.215  14.384  0.00  0.00    +0.000 C 
BRANCH  18  19
ATOM     19  N   UNL     1      48.937   7.395  14.994  0.00  0.00    +0.000 N 
ATOM     20  C   UNL     1      49.086   7.280  16.348  0.00  0.00    +0.000 C 
ATOM     21  O   UNL     1      48.374   7.892  17.142  0.00  0.00    +0.000 OA
ATOM     22  H   UNL     1      49.703   7.123  14.384  0.00  0.00    +0.000 HD
BRANCH  20  23
ATOM     23  C   UNL     1      50.099   6.320  16.804  0.00  0.00    +0.000 A 
ATOM     24  C   UNL     1      51.388   6.750  17.082  0.00  0.00    +0.000 A 
ATOM     25  S   UNL     1      52.417   5.505  17.633  0.00  0.00    +0.000 S 
ATOM     26  C   UNL     1      51.186   4.339  17.478  0.00  0.00    +0.000 A 
ATOM     27  N   UNL     1      51.413   3.030  17.761  0.00  0.00    +0.000 NA
ATOM     28  C   UNL     1      50.397   2.257  17.570  0.00  0.00    +0.000 A 
ATOM     29  N   UNL     1      49.166   2.676  17.130  0.00  0.00    +0.000 N 
ATOM     30  C   UNL     1      48.873   3.993  16.895  0.00  0.00    +0.000 A 
ATOM     31  O   UNL     1      47.735   4.349  16.610  0.00  0.00    +0.000 OA
ATOM     32  C   UNL     1      49.995   4.903  17.047  0.00  0.00    +0.000 A 
ATOM     33  H   UNL     1      48.404   2.027  17.028  0.00  0.00    +0.000 HD
ENDBRANCH  20  23
ENDBRANCH  18  19
ENDBRANCH   4  18
TORSDOF 6
ENDMDL
MODEL 5
REMARK VINA RESULT:    -7.502      1.866      2.381
REMARK INTER + INTRA:         -11.195
REMARK INTER:                 -10.312
REMARK INTRA:                  -0.883
REMARK UNBOUND:                -1.061
REMARK  Name = 
REMARK  6 active torsions:
REMARK  status: ('A' for Active; 'I' for Inactive)
REMARK    1  A    between atoms: C_2  and  C_25
REMARK    2  A    between atoms: N_3  and  C_4
REMARK    3  A    between atoms: C_4  and  C_5
REMARK    4  A    between atoms: C_8  and  C_9
REMARK    5  A    between atoms: C_9  and  N_10
REMARK    6  A    between atoms: C_11  and  C_13
REMARK                            x       y       z     vdW  Elec       q    Type
REMARK                         _______ _______ _______ _____ _____    ______ ____
ROOT
ATOM      1  C   UNL     1      45.026   5.476  11.476  0.00  0.00    +0.000 A 
ATOM      2  C   UNL     1      45.734   4.782  12.458  0.00  0.00    +0.000 A 
ATOM      3  C   UNL     1      46.621   5.460  13.290  0.00  0.00    +0.000 A 
ATOM      4  C   UNL     1      46.799   6.830  13.113  0.00  0.00    +0.000 A 
ATOM      5  N   UNL     1      46.117   7.529  12.170  0.00  0.00    +0.000 NA
ATOM      6  C   UNL     1      45.257   6.842  11.377  0.00  0.00    +0.000 A 
ENDROOT
BRANCH   1   7
ATOM      7  C   UNL     1      44.062   4.765  10.577  0.00  0.00    +0.000 C 
BRANCH   7  10
ATOM      8  O   UNL     1      45.723   5.210   8.381  0.00  0.00    +0.000 OA
ATOM      9  C   UNL     1      45.498   4.055   8.727  0.00  0.00    +0.000 C 
ATOM     10  N   UNL     1      44.679   3.729   9.789  0.00  0.00    +0.000 N 
ATOM     11  H   UNL     1      44.536   2.742   9.987  0.00  0.00    +0.000 HD
BRANCH   9  12
ATOM     12  C   UNL     1      46.109   2.895   8.007  0.00  0.00    +0.000 A 
ATOM     13  C   UNL     1      46.809   3.121   6.827  0.00  0.00    +0.000 A 
ATOM     14  C   UNL     1      47.353   2.026   6.164  0.00  0.00    +0.000 A 
ATOM     15  C   UNL     1      47.170   0.752   6.694  0.00  0.00    +0.000 A 
ATOM     16  C   UNL     1      46.462   0.623   7.881  0.00  0.00    +0.000 A 
ATOM     17  N   UNL     1      45.929   1.663   8.561  0.00  0.00    +0.000 NA
ENDBRANCH   9  12
ENDBRANCH   7  10
ENDBRANCH   1   7
BRANCH   4  18
ATOM     18  C   UNL     1      47.789   7.590  13.967  0.00  0.00    +0.000 C 
BRANCH  18  19
ATOM     19  N   UNL     1      47.955   7.019  15.282  0.00  0.00    +0.000 N 
ATOM     20  C   UNL     1      49.177   6.687  15.798  0.00  0.00    +0.000 C 
ATOM     21  O   UNL     1      50.220   6.830  15.163  0.00  0.00    +0.000 OA
ATOM     22  H   UNL     1      47.115   6.624  15.696  0.00  0.00    +0.000 HD
BRANCH  20  23
ATOM     23  C   UNL     1      49.180   6.218  17.189  0.00  0.00    +0.000 A 
ATOM     24  C   UNL     1      49.741   4.989  17.507  0.00  0.00    +0.000 A 
ATOM     25  S   UNL     1      49.686   4.628  19.174  0.00  0.00    +0.000 S 
ATOM     26  C   UNL     1      48.873   6.082  19.523  0.00  0.00    +0.000 A 
ATOM     27  N   UNL     1      48.489   6.391  20.790  0.00  0.00    +0.000 NA
ATOM     28  C   UNL     1      47.857   7.510  20.899  0.00  0.00    +0.000 A 
ATOM     29  N   UNL     1      47.582   8.361  19.856  0.00  0.00    +0.000 N 
ATOM     30  C   UNL     1      48.006   8.122  18.576  0.00  0.00    +0.000 A 
ATOM     31  O   UNL     1      47.841   8.951  17.689  0.00  0.00    +0.000 OA
ATOM     32  C   UNL     1      48.680   6.850  18.385  0.00  0.00    +0.000 A 
ATOM     33  H   UNL     1      47.109   9.235  20.012  0.00  0.00    +0.000 HD
ENDBRANCH  20  23
ENDBRANCH  18  19
ENDBRANCH   4  18
TORSDOF 6
ENDMDL
MODEL 6
REMARK VINA RESULT:    -7.300      4.857      9.705
REMARK INTER + INTRA:         -10.922
REMARK INTER:                 -10.148
REMARK INTRA:                  -0.774
REMARK UNBOUND:                -1.061
REMARK  Name = 
REMARK  6 active torsions:
REMARK  status: ('A' for Active; 'I' for Inactive)
REMARK    1  A    between atoms: C_2  and  C_25
REMARK    2  A    between atoms: N_3  and  C_4
REMARK    3  A    between atoms: C_4  and  C_5
REMARK    4  A    between atoms: C_8  and  C_9
REMARK    5  A    between atoms: C_9  and  N_10
REMARK    6  A    between atoms: C_11  and  C_13
REMARK                            x       y       z     vdW  Elec       q    Type
REMARK                         _______ _______ _______ _____ _____    ______ ____
ROOT
ATOM      1  C   UNL     1      51.385   2.844  17.723  0.00  0.00    +0.000 A 
ATOM      2  C   UNL     1      50.792   4.008  18.212  0.00  0.00    +0.000 A 
ATOM      3  C   UNL     1      49.441   4.257  17.976  0.00  0.00    +0.000 A 
ATOM      4  C   UNL     1      48.706   3.336  17.234  0.00  0.00    +0.000 A 
ATOM      5  N   UNL     1      49.258   2.193  16.753  0.00  0.00    +0.000 NA
ATOM      6  C   UNL     1      50.574   1.977  17.002  0.00  0.00    +0.000 A 
ENDROOT
BRANCH   1   7
ATOM      7  C   UNL     1      52.834   2.558  17.972  0.00  0.00    +0.000 C 
BRANCH   7  10
ATOM      8  O   UNL     1      54.714   0.924  16.716  0.00  0.00    +0.000 OA
ATOM      9  C   UNL     1      54.054   0.462  17.642  0.00  0.00    +0.000 C 
ATOM     10  N   UNL     1      53.090   1.183  18.317  0.00  0.00    +0.000 N 
ATOM     11  H   UNL     1      52.579   0.708  19.057  0.00  0.00    +0.000 HD
BRANCH   9  12
ATOM     12  C   UNL     1      54.253  -0.943  18.114  0.00  0.00    +0.000 A 
ATOM     13  C   UNL     1      55.037  -1.808  17.357  0.00  0.00    +0.000 A 
ATOM     14  C   UNL     1      55.194  -3.115  17.804  0.00  0.00    +0.000 A 
ATOM     15  C   UNL     1      54.557  -3.512  18.976  0.00  0.00    +0.000 A 
ATOM     16  C   UNL     1      53.798  -2.578  19.669  0.00  0.00    +0.000 A 
ATOM     17  N   UNL     1      53.632  -1.296  19.274  0.00  0.00    +0.000 NA
ENDBRANCH   9  12
ENDBRANCH   7  10
ENDBRANCH   1   7
BRANCH   4  18
ATOM     18  C   UNL     1      47.250   3.596  16.919  0.00  0.00    +0.000 C 
BRANCH  18  19
ATOM     19  N   UNL     1      47.065   4.553  15.855  0.00  0.00    +0.000 N 
ATOM     20  C   UNL     1      47.079   4.206  14.533  0.00  0.00    +0.000 C 
ATOM     21  O   UNL     1      47.276   3.052  14.158  0.00  0.00    +0.000 OA
ATOM     22  H   UNL     1      47.195   5.527  16.116  0.00  0.00    +0.000 HD
BRANCH  20  23
ATOM     23  C   UNL     1      46.768   5.281  13.583  0.00  0.00    +0.000 A 
ATOM     24  C   UNL     1      47.737   6.215  13.248  0.00  0.00    +0.000 A 
ATOM     25  S   UNL     1      47.206   7.367  12.105  0.00  0.00    +0.000 S 
ATOM     26  C   UNL     1      45.649   6.681  12.051  0.00  0.00    +0.000 A 
ATOM     27  N   UNL     1      44.668   7.216  11.277  0.00  0.00    +0.000 NA
ATOM     28  C   UNL     1      43.532   6.610  11.358  0.00  0.00    +0.000 A 
ATOM     29  N   UNL     1      43.286   5.507  12.137  0.00  0.00    +0.000 N 
ATOM     30  C   UNL     1      44.260   4.896  12.882  0.00  0.00    +0.000 A 
ATOM     31  O   UNL     1      44.038   3.850  13.480  0.00  0.00    +0.000 OA
ATOM     32  C   UNL     1      45.549   5.566  12.867  0.00  0.00    +0.000 A 
ATOM     33  H   UNL     1      42.384   5.062  12.136  0.00  0.00    +0.000 HD
ENDBRANCH  20  23
ENDBRANCH  18  19
ENDBRANCH   4  18
TORSDOF 6
ENDMDL
MODEL 7
REMARK VINA RESULT:    -6.990      2.341      3.102
REMARK INTER + INTRA:         -10.503
REMARK INTER:                  -9.552
REMARK INTRA:                  -0.951
REMARK UNBOUND:                -1.061
REMARK  Name = 
REMARK  6 active torsions:
REMARK  status: ('A' for Active; 'I' for Inactive)
REMARK    1  A    between atoms: C_2  and  C_25
REMARK    2  A    between atoms: N_3  and  C_4
REMARK    3  A    between atoms: C_4  and  C_5
REMARK    4  A    between atoms: C_8  and  C_9
REMARK    5  A    between atoms: C_9  and  N_10
REMARK    6  A    between atoms: C_11  and  C_13
REMARK                            x       y       z     vdW  Elec       q    Type
REMARK                         _______ _______ _______ _____ _____    ______ ____
ROOT
ATOM      1  C   UNL     1      46.095   7.216  12.383  0.00  0.00    +0.000 A 
ATOM      2  C   UNL     1      46.193   8.485  12.954  0.00  0.00    +0.000 A 
ATOM      3  C   UNL     1      47.137   8.733  13.948  0.00  0.00    +0.000 A 
ATOM      4  C   UNL     1      47.961   7.693  14.370  0.00  0.00    +0.000 A 
ATOM      5  N   UNL     1      47.889   6.451  13.826  0.00  0.00    +0.000 NA
ATOM      6  C   UNL     1      46.964   6.241  12.857  0.00  0.00    +0.000 A 
ENDROOT
BRANCH   1   7
ATOM      7  C   UNL     1      45.091   6.933  11.308  0.00  0.00    +0.000 C 
BRANCH   7  10
ATOM      8  O   UNL     1      43.760   4.552  10.728  0.00  0.00    +0.000 OA
ATOM      9  C   UNL     1      44.801   4.808  10.130  0.00  0.00    +0.000 C 
ATOM     10  N   UNL     1      45.541   5.951  10.355  0.00  0.00    +0.000 N 
ATOM     11  H   UNL     1      46.401   6.066   9.826  0.00  0.00    +0.000 HD
BRANCH   9  12
ATOM     12  C   UNL     1      45.350   3.881   9.093  0.00  0.00    +0.000 A 
ATOM     13  C   UNL     1      45.285   2.508   9.307  0.00  0.00    +0.000 A 
ATOM     14  C   UNL     1      45.819   1.665   8.338  0.00  0.00    +0.000 A 
ATOM     15  C   UNL     1      46.406   2.220   7.205  0.00  0.00    +0.000 A 
ATOM     16  C   UNL     1      46.420   3.602   7.074  0.00  0.00    +0.000 A 
ATOM     17  N   UNL     1      45.901   4.454   7.986  0.00  0.00    +0.000 NA
ENDBRANCH   9  12
ENDBRANCH   7  10
ENDBRANCH   1   7
BRANCH   4  18
ATOM     18  C   UNL     1      48.964   7.914  15.480  0.00  0.00    +0.000 C 
BRANCH  18  19
ATOM     19  N   UNL     1      49.613   6.696  15.903  0.00  0.00    +0.000 N 
ATOM     20  C   UNL     1      49.237   6.005  17.022  0.00  0.00    +0.000 C 
ATOM     21  O   UNL     1      48.333   6.390  17.760  0.00  0.00    +0.000 OA
ATOM     22  H   UNL     1      50.526   6.521  15.493  0.00  0.00    +0.000 HD
BRANCH  20  23
ATOM     23  C   UNL     1      49.926   4.729  17.250  0.00  0.00    +0.000 A 
ATOM     24  C   UNL     1      49.212   3.540  17.235  0.00  0.00    +0.000 A 
ATOM     25  S   UNL     1      50.184   2.159  17.484  0.00  0.00    +0.000 S 
ATOM     26  C   UNL     1      51.587   3.107  17.663  0.00  0.00    +0.000 A 
ATOM     27  N   UNL     1      52.792   2.540  17.935  0.00  0.00    +0.000 NA
ATOM     28  C   UNL     1      53.759   3.382  18.074  0.00  0.00    +0.000 A 
ATOM     29  N   UNL     1      53.637   4.745  17.954  0.00  0.00    +0.000 N 
ATOM     30  C   UNL     1      52.457   5.354  17.617  0.00  0.00    +0.000 A 
ATOM     31  O   UNL     1      52.403   6.560  17.409  0.00  0.00    +0.000 OA
ATOM     32  C   UNL     1      51.321   4.457  17.498  0.00  0.00    +0.000 A 
ATOM     33  H   UNL     1      54.437   5.347  18.045  0.00  0.00    +0.000 HD
ENDBRANCH  20  23
ENDBRANCH  18  19
ENDBRANCH   4  18
TORSDOF 6
ENDMDL
MODEL 8
REMARK VINA RESULT:    -6.982      3.932      8.831
REMARK INTER + INTRA:         -10.493
REMARK INTER:                  -9.578
REMARK INTRA:                  -0.915
REMARK UNBOUND:                -1.061
REMARK  Name = 
REMARK  6 active torsions:
REMARK  status: ('A' for Active; 'I' for Inactive)
REMARK    1  A    between atoms: C_2  and  C_25
REMARK    2  A    between atoms: N_3  and  C_4
REMARK    3  A    between atoms: C_4  and  C_5
REMARK    4  A    between atoms: C_8  and  C_9
REMARK    5  A    between atoms: C_9  and  N_10
REMARK    6  A    between atoms: C_11  and  C_13
REMARK                            x       y       z     vdW  Elec       q    Type
REMARK                         _______ _______ _______ _____ _____    ______ ____
ROOT
ATOM      1  C   UNL     1      49.328   4.953  17.430  0.00  0.00    +0.000 A 
ATOM      2  C   UNL     1      50.079   6.045  16.993  0.00  0.00    +0.000 A 
ATOM      3  C   UNL     1      49.727   6.711  15.821  0.00  0.00    +0.000 A 
ATOM      4  C   UNL     1      48.631   6.258  15.091  0.00  0.00    +0.000 A 
ATOM      5  N   UNL     1      47.881   5.202  15.498  0.00  0.00    +0.000 NA
ATOM      6  C   UNL     1      48.246   4.576  16.645  0.00  0.00    +0.000 A 
ENDROOT
BRANCH   1   7
ATOM      7  C   UNL     1      49.688   4.229  18.690  0.00  0.00    +0.000 C 
BRANCH   7  10
ATOM      8  O   UNL     1      50.422   1.973  17.226  0.00  0.00    +0.000 OA
ATOM      9  C   UNL     1      51.276   2.548  17.893  0.00  0.00    +0.000 C 
ATOM     10  N   UNL     1      51.011   3.663  18.663  0.00  0.00    +0.000 N 
ATOM     11  H   UNL     1      51.780   4.058  19.198  0.00  0.00    +0.000 HD
BRANCH   9  12
ATOM     12  C   UNL     1      52.695   2.074  17.917  0.00  0.00    +0.000 A 
ATOM     13  C   UNL     1      53.719   2.984  17.674  0.00  0.00    +0.000 A 
ATOM     14  C   UNL     1      55.029   2.518  17.682  0.00  0.00    +0.000 A 
ATOM     15  C   UNL     1      55.267   1.167  17.919  0.00  0.00    +0.000 A 
ATOM     16  C   UNL     1      54.183   0.333  18.157  0.00  0.00    +0.000 A 
ATOM     17  N   UNL     1      52.897   0.750  18.169  0.00  0.00    +0.000 NA
ENDBRANCH   9  12
ENDBRANCH   7  10
ENDBRANCH   1   7
BRANCH   4  18
ATOM     18  C   UNL     1      48.248   6.927  13.790  0.00  0.00    +0.000 C 
BRANCH  18  19
ATOM     19  N   UNL     1      47.402   6.103  12.960  0.00  0.00    +0.000 N 
ATOM     20  C   UNL     1      46.567   6.618  12.008  0.00  0.00    +0.000 C 
ATOM     21  O   UNL     1      46.462   7.827  11.811  0.00  0.00    +0.000 OA
ATOM     22  H   UNL     1      47.252   5.155  13.294  0.00  0.00    +0.000 HD
BRANCH  20  23
ATOM     23  C   UNL     1      45.857   5.638  11.177  0.00  0.00    +0.000 A 
ATOM     24  C   UNL     1      45.960   5.693   9.795  0.00  0.00    +0.000 A 
ATOM     25  S   UNL     1      45.097   4.455   8.998  0.00  0.00    +0.000 S 
ATOM     26  C   UNL     1      44.522   3.827  10.472  0.00  0.00    +0.000 A 
ATOM     27  N   UNL     1      43.683   2.758  10.505  0.00  0.00    +0.000 NA
ATOM     28  C   UNL     1      43.305   2.412  11.689  0.00  0.00    +0.000 A 
ATOM     29  N   UNL     1      43.699   3.030  12.850  0.00  0.00    +0.000 N 
ATOM     30  C   UNL     1      44.593   4.067  12.869  0.00  0.00    +0.000 A 
ATOM     31  O   UNL     1      45.009   4.526  13.926  0.00  0.00    +0.000 OA
ATOM     32  C   UNL     1      45.013   4.533  11.559  0.00  0.00    +0.000 A 
ATOM     33  H   UNL     1      43.390   2.693  13.747  0.00  0.00    +0.000 HD
ENDBRANCH  20  23
ENDBRANCH  18  19
ENDBRANCH   4  18
TORSDOF 6
ENDMDL
MODEL 9
REMARK VINA RESULT:    -6.920      4.794      9.588
REMARK INTER + INTRA:         -10.409
REMARK INTER:                  -9.348
REMARK INTRA:                  -1.061
REMARK UNBOUND:                -1.061
REMARK  Name = 
REMARK  6 active torsions:
REMARK  status: ('A' for Active; 'I' for Inactive)
REMARK    1  A    between atoms: C_2  and  C_25
REMARK    2  A    between atoms: N_3  and  C_4
REMARK    3  A    between atoms: C_4  and  C_5
REMARK    4  A    between atoms: C_8  and  C_9
REMARK    5  A    between atoms: C_9  and  N_10
REMARK    6  A    between atoms: C_11  and  C_13
REMARK                            x       y       z     vdW  Elec       q    Type
REMARK                         _______ _______ _______ _____ _____    ______ ____
ROOT
ATOM      1  C   UNL     1      51.313   2.901  17.791  0.00  0.00    +0.000 A 
ATOM      2  C   UNL     1      50.708   4.078  18.234  0.00  0.00    +0.000 A 
ATOM      3  C   UNL     1      49.377   4.342  17.917  0.00  0.00    +0.000 A 
ATOM      4  C   UNL     1      48.675   3.425  17.140  0.00  0.00    +0.000 A 
ATOM      5  N   UNL     1      49.238   2.270  16.701  0.00  0.00    +0.000 NA
ATOM      6  C   UNL     1      50.534   2.039  17.030  0.00  0.00    +0.000 A 
ENDROOT
BRANCH   1   7
ATOM      7  C   UNL     1      52.740   2.597  18.128  0.00  0.00    +0.000 C 
BRANCH   7  10
ATOM      8  O   UNL     1      54.705   1.039  16.909  0.00  0.00    +0.000 OA
ATOM      9  C   UNL     1      53.983   0.523  17.756  0.00  0.00    +0.000 C 
ATOM     10  N   UNL     1      52.973   1.204  18.406  0.00  0.00    +0.000 N 
ATOM     11  H   UNL     1      52.414   0.685  19.078  0.00  0.00    +0.000 HD
BRANCH   9  12
ATOM     12  C   UNL     1      54.152  -0.909  18.154  0.00  0.00    +0.000 A 
ATOM     13  C   UNL     1      54.992  -1.727  17.406  0.00  0.00    +0.000 A 
ATOM     14  C   UNL     1      55.119  -3.060  17.782  0.00  0.00    +0.000 A 
ATOM     15  C   UNL     1      54.399  -3.527  18.877  0.00  0.00    +0.000 A 
ATOM     16  C   UNL     1      53.589  -2.637  19.569  0.00  0.00    +0.000 A 
ATOM     17  N   UNL     1      53.448  -1.332  19.242  0.00  0.00    +0.000 NA
ENDBRANCH   9  12
ENDBRANCH   7  10
ENDBRANCH   1   7
BRANCH   4  18
ATOM     18  C   UNL     1      47.244   3.701  16.736  0.00  0.00    +0.000 C 
BRANCH  18  19
ATOM     19  N   UNL     1      47.132   4.705  15.705  0.00  0.00    +0.000 N 
ATOM     20  C   UNL     1      47.109   4.400  14.372  0.00  0.00    +0.000 C 
ATOM     21  O   UNL     1      47.208   3.246  13.960  0.00  0.00    +0.000 OA
ATOM     22  H   UNL     1      47.344   5.655  15.995  0.00  0.00    +0.000 HD
BRANCH  20  23
ATOM     23  C   UNL     1      46.882   5.527  13.459  0.00  0.00    +0.000 A 
ATOM     24  C   UNL     1      45.751   5.554  12.656  0.00  0.00    +0.000 A 
ATOM     25  S   UNL     1      45.637   6.955  11.688  0.00  0.00    +0.000 S 
ATOM     26  C   UNL     1      47.117   7.554  12.279  0.00  0.00    +0.000 A 
ATOM     27  N   UNL     1      47.635   8.727  11.827  0.00  0.00    +0.000 NA
ATOM     28  C   UNL     1      48.775   9.041  12.342  0.00  0.00    +0.000 A 
ATOM     29  N   UNL     1      49.445   8.294  13.279  0.00  0.00    +0.000 N 
ATOM     30  C   UNL     1      48.932   7.140  13.810  0.00  0.00    +0.000 A 
ATOM     31  O   UNL     1      49.501   6.555  14.723  0.00  0.00    +0.000 OA
ATOM     32  C   UNL     1      47.671   6.712  13.230  0.00  0.00    +0.000 A 
ATOM     33  H   UNL     1      50.321   8.608  13.663  0.00  0.00    +0.000 HD
ENDBRANCH  20  23
ENDBRANCH  18  19
ENDBRANCH   4  18
TORSDOF 6
ENDMDL
