MODEL 1
REMARK VINA RESULT:    -7.462      0.000      0.000
REMARK INTER + INTRA:         -11.038
REMARK INTER:                 -10.298
REMARK INTRA:                  -0.740
REMARK UNBOUND:                -0.740
REMARK  Name = 
REMARK  8 active torsions:
REMARK  status: ('A' for Active; 'I' for Inactive)
REMARK    1  A    between atoms: C_1  and  C_2
REMARK    2  A    between atoms: C_2  and  N_3
REMARK    3  A    between atoms: C_2  and  C_19
REMARK    4  A    between atoms: N_3  and  C_4
REMARK    5  A    between atoms: C_7  and  C_8
REMARK    6  A    between atoms: C_8  and  N_9
REMARK    7  A    between atoms: N_9  and  C_10
REMARK    8  A    between atoms: C_13  and  N_14
REMARK                            x       y       z     vdW  Elec       q    Type
REMARK                         _______ _______ _______ _____ _____    ______ ____
ROOT
ATOM      1  C   UNL     1      45.764   5.947  13.007  0.00  0.00    +0.000 A 
ATOM      2  C   UNL     1      46.040   4.590  13.067  0.00  0.00    +0.000 A 
ATOM      3  N   UNL     1      45.488   3.651  12.271  0.00  0.00    +0.000 NA
ATOM      4  C   UNL     1      44.592   4.100  11.372  0.00  0.00    +0.000 A 
ATOM      5  N   UNL     1      44.119   5.362  11.333  0.00  0.00    +0.000 NA
ATOM      6  C   UNL     1      44.709   6.249  12.168  0.00  0.00    +0.000 A 
ENDROOT
BRANCH   1   7
ATOM      7  N   UNL     1      46.510   6.936  13.624  0.00  0.00    +0.000 N 
ATOM      8  H   UNL     1      46.806   6.818  14.591  0.00  0.00    +0.000 HD
BRANCH   7  10
ATOM      9  C   UNL     1      48.017   7.108  11.678  0.00  0.00    +0.000 C 
ATOM     10  C   UNL     1      47.266   7.862  12.792  0.00  0.00    +0.000 C 
BRANCH  10  11
ATOM     11  C   UNL     1      48.195   8.806  13.519  0.00  0.00    +0.000 A 
ATOM     12  C   UNL     1      48.125  10.188  13.428  0.00  0.00    +0.000 A 
ATOM     13  S   UNL     1      49.553  10.951  13.985  0.00  0.00    +0.000 S 
ATOM     14  C   UNL     1      50.225   9.461  14.464  0.00  0.00    +0.000 A 
ATOM     15  N   UNL     1      51.509   9.354  14.903  0.00  0.00    +0.000 NA
ATOM     16  C   UNL     1      51.840   8.161  15.275  0.00  0.00    +0.000 A 
ATOM     17  N   UNL     1      50.992   7.077  15.300  0.00  0.00    +0.000 N 
ATOM     18  C   UNL     1      49.683   7.149  14.890  0.00  0.00    +0.000 A 
ATOM     19  O   UNL     1      48.908   6.203  15.012  0.00  0.00    +0.000 OA
ATOM     20  C   UNL     1      49.316   8.433  14.334  0.00  0.00    +0.000 A 
ATOM     21  H   UNL     1      51.292   6.199  15.693  0.00  0.00    +0.000 HD
ENDBRANCH  10  11
ENDBRANCH   7  10
ENDBRANCH   1   7
BRANCH   4  22
ATOM     22  C   UNL     1      44.274   3.188  10.198  0.00  0.00    +0.000 C 
BRANCH  22  23
ATOM     23  N   UNL     1      45.347   2.279   9.758  0.00  0.00    +0.000 NA
ATOM     24  H   UNL     1      45.100   1.345  10.092  0.00  0.00    +0.000 HD
BRANCH  23  25
ATOM     25  C   UNL     1      45.541   2.230   8.304  0.00  0.00    +0.000 C 
ATOM     26  C   UNL     1      46.043   3.566   7.728  0.00  0.00    +0.000 C 
ATOM     27  C   UNL     1      46.428   3.451   6.252  0.00  0.00    +0.000 C 
ATOM     28  C   UNL     1      47.448   2.340   5.992  0.00  0.00    +0.000 C 
ATOM     29  C   UNL     1      46.928   1.008   6.548  0.00  0.00    +0.000 C 
ATOM     30  C   UNL     1      46.534   1.088   8.022  0.00  0.00    +0.000 C 
BRANCH  28  31
ATOM     31  N   UNL     1      48.750   2.669   6.571  0.00  0.00    +0.000 NA
ATOM     32  H   UNL     1      48.741   2.528   7.583  0.00  0.00    +0.000 HD
ATOM     33  H   UNL     1      48.947   3.654   6.432  0.00  0.00    +0.000 HD
ENDBRANCH  28  31
ENDBRANCH  23  25
ENDBRANCH  22  23
ENDBRANCH   4  22
TORSDOF 7
ENDMDL
MODEL 2
REMARK VINA RESULT:    -7.439      2.614      3.318
REMARK INTER + INTRA:         -11.006
REMARK INTER:                 -10.294
REMARK INTRA:                  -0.712
REMARK UNBOUND:                -0.740
REMARK  Name = 
REMARK  8 active torsions:
REMARK  status: ('A' for Active; 'I' for Inactive)
REMARK    1  A    between atoms: C_1  and  C_2
REMARK    2  A    between atoms: C_2  and  N_3
REMARK    3  A    between atoms: C_2  and  C_19
REMARK    4  A    between atoms: N_3  and  C_4
REMARK    5  A    between atoms: C_7  and  C_8
REMARK    6  A    between atoms: C_8  and  N_9
REMARK    7  A    between atoms: N_9  and  C_10
REMARK    8  A    between atoms: C_13  and  N_14
REMARK                            x       y       z     vdW  Elec       q    Type
REMARK                         _______ _______ _______ _____ _____    ______ ____
ROOT
ATOM      1  C   UNL     1      47.104   5.830  12.899  0.00  0.00    +0.000 A 
ATOM      2  C   UNL     1      46.258   4.744  13.060  0.00  0.00    +0.000 A 
ATOM      3  N   UNL     1      45.341   4.336  12.159  0.00  0.00    +0.000 NA
ATOM      4  C   UNL     1      45.257   5.074  11.036  0.00  0.00    +0.000 A 
ATOM      5  N   UNL     1      45.902   6.242  10.842  0.00  0.00    +0.000 NA
ATOM      6  C   UNL     1      46.798   6.596  11.792  0.00  0.00    +0.000 A 
ENDROOT
BRANCH   1   7
ATOM      7  N   UNL     1      48.214   6.093  13.683  0.00  0.00    +0.000 N 
ATOM      8  H   UNL     1      49.142   6.082  13.266  0.00  0.00    +0.000 HD
BRANCH   7  10
ATOM      9  C   UNL     1      48.195   8.356  14.666  0.00  0.00    +0.000 C 
ATOM     10  C   UNL     1      48.034   6.846  14.917  0.00  0.00    +0.000 C 
BRANCH  10  11
ATOM     11  C   UNL     1      48.874   6.407  16.094  0.00  0.00    +0.000 A 
ATOM     12  C   UNL     1      49.820   7.208  16.715  0.00  0.00    +0.000 A 
ATOM     13  S   UNL     1      50.897   6.306  17.694  0.00  0.00    +0.000 S 
ATOM     14  C   UNL     1      50.040   4.864  17.398  0.00  0.00    +0.000 A 
ATOM     15  N   UNL     1      50.495   3.652  17.820  0.00  0.00    +0.000 NA
ATOM     16  C   UNL     1      49.696   2.670  17.558  0.00  0.00    +0.000 A 
ATOM     17  N   UNL     1      48.463   2.793  16.960  0.00  0.00    +0.000 N 
ATOM     18  C   UNL     1      47.957   3.999  16.542  0.00  0.00    +0.000 A 
ATOM     19  O   UNL     1      46.814   4.112  16.104  0.00  0.00    +0.000 OA
ATOM     20  C   UNL     1      48.881   5.102  16.691  0.00  0.00    +0.000 A 
ATOM     21  H   UNL     1      47.852   1.995  16.873  0.00  0.00    +0.000 HD
ENDBRANCH  10  11
ENDBRANCH   7  10
ENDBRANCH   1   7
BRANCH   4  22
ATOM     22  C   UNL     1      44.575   4.434   9.837  0.00  0.00    +0.000 C 
BRANCH  22  23
ATOM     23  N   UNL     1      45.205   4.654   8.523  0.00  0.00    +0.000 NA
ATOM     24  H   UNL     1      46.130   5.052   8.702  0.00  0.00    +0.000 HD
BRANCH  23  25
ATOM     25  C   UNL     1      45.355   3.440   7.712  0.00  0.00    +0.000 C 
ATOM     26  C   UNL     1      46.208   3.672   6.453  0.00  0.00    +0.000 C 
ATOM     27  C   UNL     1      46.523   2.367   5.719  0.00  0.00    +0.000 C 
ATOM     28  C   UNL     1      47.180   1.323   6.625  0.00  0.00    +0.000 C 
ATOM     29  C   UNL     1      46.309   1.081   7.865  0.00  0.00    +0.000 C 
ATOM     30  C   UNL     1      45.976   2.366   8.622  0.00  0.00    +0.000 C 
BRANCH  28  31
ATOM     31  N   UNL     1      48.530   1.730   7.012  0.00  0.00    +0.000 NA
ATOM     32  H   UNL     1      48.503   2.590   7.564  0.00  0.00    +0.000 HD
ATOM     33  H   UNL     1      49.071   1.950   6.183  0.00  0.00    +0.000 HD
ENDBRANCH  28  31
ENDBRANCH  23  25
ENDBRANCH  22  23
ENDBRANCH   4  22
TORSDOF 7
ENDMDL
MODEL 3
REMARK VINA RESULT:    -7.174      4.122      8.436
REMARK INTER + INTRA:         -10.641
REMARK INTER:                 -10.141
REMARK INTRA:                  -0.499
REMARK UNBOUND:                -0.740
REMARK  Name = 
REMARK  8 active torsions:
REMARK  status: ('A' for Active; 'I' for Inactive)
REMARK    1  A    between atoms: C_1  and  C_2
REMARK    2  A    between atoms: C_2  and  N_3
REMARK    3  A    between atoms: C_2  and  C_19
REMARK    4  A    between atoms: N_3  and  C_4
REMARK    5  A    between atoms: C_7  and  C_8
REMARK    6  A    between atoms: C_8  and  N_9
REMARK    7  A    between atoms: N_9  and  C_10
REMARK    8  A    between atoms: C_13  and  N_14
REMARK                            x       y       z     vdW  Elec       q    Type
REMARK                         _______ _______ _______ _____ _____    ______ ____
ROOT
ATOM      1  C   UNL     1      47.449   5.451  13.583  0.00  0.00    +0.000 A 
ATOM      2  C   UNL     1      47.824   5.871  14.849  0.00  0.00    +0.000 A 
ATOM      3  N   UNL     1      47.983   5.063  15.918  0.00  0.00    +0.000 NA
ATOM      4  C   UNL     1      47.734   3.757  15.705  0.00  0.00    +0.000 A 
ATOM      5  N   UNL     1      47.203   3.258  14.571  0.00  0.00    +0.000 NA
ATOM      6  C   UNL     1      47.059   4.127  13.544  0.00  0.00    +0.000 A 
ENDROOT
BRANCH   1   7
ATOM      7  N   UNL     1      47.542   6.217  12.433  0.00  0.00    +0.000 N 
ATOM      8  H   UNL     1      48.293   6.044  11.769  0.00  0.00    +0.000 HD
BRANCH   7  10
ATOM      9  C   UNL     1      46.116   8.214  12.696  0.00  0.00    +0.000 C 
ATOM     10  C   UNL     1      46.346   6.890  11.944  0.00  0.00    +0.000 C 
BRANCH  10  11
ATOM     11  C   UNL     1      45.081   6.064  11.916  0.00  0.00    +0.000 A 
ATOM     12  C   UNL     1      44.084   6.137  12.877  0.00  0.00    +0.000 A 
ATOM     13  S   UNL     1      43.024   4.794  12.821  0.00  0.00    +0.000 S 
ATOM     14  C   UNL     1      43.806   4.169  11.443  0.00  0.00    +0.000 A 
ATOM     15  N   UNL     1      43.501   2.945  10.931  0.00  0.00    +0.000 NA
ATOM     16  C   UNL     1      44.152   2.648   9.854  0.00  0.00    +0.000 A 
ATOM     17  N   UNL     1      45.039   3.482   9.212  0.00  0.00    +0.000 N 
ATOM     18  C   UNL     1      45.355   4.733   9.682  0.00  0.00    +0.000 A 
ATOM     19  O   UNL     1      46.069   5.508   9.048  0.00  0.00    +0.000 OA
ATOM     20  C   UNL     1      44.754   5.045  10.960  0.00  0.00    +0.000 A 
ATOM     21  H   UNL     1      45.438   3.222   8.324  0.00  0.00    +0.000 HD
ENDBRANCH  10  11
ENDBRANCH   7  10
ENDBRANCH   1   7
BRANCH   4  22
ATOM     22  C   UNL     1      48.298   2.772  16.717  0.00  0.00    +0.000 C 
BRANCH  22  23
ATOM     23  N   UNL     1      49.239   3.314  17.712  0.00  0.00    +0.000 NA
ATOM     24  H   UNL     1      49.078   2.802  18.582  0.00  0.00    +0.000 HD
BRANCH  23  25
ATOM     25  C   UNL     1      50.654   3.189  17.339  0.00  0.00    +0.000 C 
ATOM     26  C   UNL     1      51.543   4.235  18.033  0.00  0.00    +0.000 C 
ATOM     27  C   UNL     1      53.032   3.977  17.795  0.00  0.00    +0.000 C 
ATOM     28  C   UNL     1      53.459   2.562  18.196  0.00  0.00    +0.000 C 
ATOM     29  C   UNL     1      52.582   1.527  17.480  0.00  0.00    +0.000 C 
ATOM     30  C   UNL     1      51.086   1.756  17.697  0.00  0.00    +0.000 C 
BRANCH  28  31
ATOM     31  N   UNL     1      53.396   2.380  19.645  0.00  0.00    +0.000 NA
ATOM     32  H   UNL     1      53.768   3.200  20.129  0.00  0.00    +0.000 HD
ATOM     33  H   UNL     1      53.990   1.605  19.918  0.00  0.00    +0.000 HD
ENDBRANCH  28  31
ENDBRANCH  23  25
ENDBRANCH  22  23
ENDBRANCH   4  22
TORSDOF 7
ENDMDL
MODEL 4
REMARK VINA RESULT:    -7.143      3.703      8.592
REMARK INTER + INTRA:         -10.597
REMARK INTER:                  -9.947
REMARK INTRA:                  -0.650
REMARK UNBOUND:                -0.740
REMARK  Name = 
REMARK  8 active torsions:
REMARK  status: ('A' for Active; 'I' for Inactive)
REMARK    1  A    between atoms: C_1  and  C_2
REMARK    2  A    between atoms: C_2  and  N_3
REMARK    3  A    between atoms: C_2  and  C_19
REMARK    4  A    between atoms: N_3  and  C_4
REMARK    5  A    between atoms: C_7  and  C_8
REMARK    6  A    between atoms: C_8  and  N_9
REMARK    7  A    between atoms: N_9  and  C_10
REMARK    8  A    between atoms: C_13  and  N_14
REMARK                            x       y       z     vdW  Elec       q    Type
REMARK                         _______ _______ _______ _____ _____    ______ ____
ROOT
ATOM      1  C   UNL     1      47.333   5.458  13.344  0.00  0.00    +0.000 A 
ATOM      2  C   UNL     1      47.676   5.931  14.601  0.00  0.00    +0.000 A 
ATOM      3  N   UNL     1      47.852   5.163  15.696  0.00  0.00    +0.000 NA
ATOM      4  C   UNL     1      47.655   3.843  15.521  0.00  0.00    +0.000 A 
ATOM      5  N   UNL     1      47.158   3.289  14.397  0.00  0.00    +0.000 NA
ATOM      6  C   UNL     1      46.994   4.120  13.342  0.00  0.00    +0.000 A 
ENDROOT
BRANCH   1   7
ATOM      7  N   UNL     1      47.413   6.192  12.172  0.00  0.00    +0.000 N 
ATOM      8  H   UNL     1      48.166   6.013  11.513  0.00  0.00    +0.000 HD
BRANCH   7  10
ATOM      9  C   UNL     1      45.843   8.067  12.505  0.00  0.00    +0.000 C 
ATOM     10  C   UNL     1      46.204   6.828  11.665  0.00  0.00    +0.000 C 
BRANCH  10  11
ATOM     11  C   UNL     1      45.001   5.931  11.490  0.00  0.00    +0.000 A 
ATOM     12  C   UNL     1      43.916   5.910  12.353  0.00  0.00    +0.000 A 
ATOM     13  S   UNL     1      42.951   4.509  12.153  0.00  0.00    +0.000 S 
ATOM     14  C   UNL     1      43.897   3.982  10.838  0.00  0.00    +0.000 A 
ATOM     15  N   UNL     1      43.718   2.762  10.261  0.00  0.00    +0.000 NA
ATOM     16  C   UNL     1      44.485   2.544   9.243  0.00  0.00    +0.000 A 
ATOM     17  N   UNL     1      45.375   3.452   8.716  0.00  0.00    +0.000 N 
ATOM     18  C   UNL     1      45.566   4.701   9.252  0.00  0.00    +0.000 A 
ATOM     19  O   UNL     1      46.287   5.539   8.714  0.00  0.00    +0.000 OA
ATOM     20  C   UNL     1      44.830   4.930  10.476  0.00  0.00    +0.000 A 
ATOM     21  H   UNL     1      45.870   3.248   7.862  0.00  0.00    +0.000 HD
ENDBRANCH  10  11
ENDBRANCH   7  10
ENDBRANCH   1   7
BRANCH   4  22
ATOM     22  C   UNL     1      48.243   2.911  16.570  0.00  0.00    +0.000 C 
BRANCH  22  23
ATOM     23  N   UNL     1      49.712   2.877  16.673  0.00  0.00    +0.000 NA
ATOM     24  H   UNL     1      50.079   3.291  15.813  0.00  0.00    +0.000 HD
BRANCH  23  25
ATOM     25  C   UNL     1      50.255   3.608  17.825  0.00  0.00    +0.000 C 
ATOM     26  C   UNL     1      50.953   4.918  17.419  0.00  0.00    +0.000 C 
ATOM     27  C   UNL     1      51.342   5.766  18.632  0.00  0.00    +0.000 C 
ATOM     28  C   UNL     1      50.156   6.056  19.555  0.00  0.00    +0.000 C 
ATOM     29  C   UNL     1      49.482   4.742  19.974  0.00  0.00    +0.000 C 
ATOM     30  C   UNL     1      49.081   3.870  18.784  0.00  0.00    +0.000 C 
BRANCH  28  31
ATOM     31  N   UNL     1      49.192   6.950  18.916  0.00  0.00    +0.000 NA
ATOM     32  H   UNL     1      49.125   7.833  19.426  0.00  0.00    +0.000 HD
ATOM     33  H   UNL     1      48.266   6.539  18.955  0.00  0.00    +0.000 HD
ENDBRANCH  28  31
ENDBRANCH  23  25
ENDBRANCH  22  23
ENDBRANCH   4  22
TORSDOF 7
ENDMDL
MODEL 5
REMARK VINA RESULT:    -6.932      3.440      5.850
REMARK INTER + INTRA:         -10.306
REMARK INTER:                  -9.323
REMARK INTRA:                  -0.983
REMARK UNBOUND:                -0.740
REMARK  Name = 
REMARK  8 active torsions:
REMARK  status: ('A' for Active; 'I' for Inactive)
REMARK    1  A    between atoms: C_1  and  C_2
REMARK    2  A    between atoms: C_2  and  N_3
REMARK    3  A    between atoms: C_2  and  C_19
REMARK    4  A    between atoms: N_3  and  C_4
REMARK    5  A    between atoms: C_7  and  C_8
REMARK    6  A    between atoms: C_8  and  N_9
REMARK    7  A    between atoms: N_9  and  C_10
REMARK    8  A    between atoms: C_13  and  N_14
REMARK                            x       y       z     vdW  Elec       q    Type
REMARK                         _______ _______ _______ _____ _____    ______ ____
ROOT
ATOM      1  C   UNL     1      48.851   8.022  15.401  0.00  0.00    +0.000 A 
ATOM      2  C   UNL     1      47.868   8.742  14.739  0.00  0.00    +0.000 A 
ATOM      3  N   UNL     1      47.338   8.411  13.544  0.00  0.00    +0.000 NA
ATOM      4  C   UNL     1      47.837   7.300  12.971  0.00  0.00    +0.000 A 
ATOM      5  N   UNL     1      48.903   6.617  13.434  0.00  0.00    +0.000 NA
ATOM      6  C   UNL     1      49.393   7.012  14.632  0.00  0.00    +0.000 A 
ENDROOT
BRANCH   1   7
ATOM      7  N   UNL     1      49.205   8.199  16.728  0.00  0.00    +0.000 N 
ATOM      8  H   UNL     1      49.479   9.121  17.060  0.00  0.00    +0.000 HD
BRANCH   7  10
ATOM      9  C   UNL     1      48.453   7.928  19.062  0.00  0.00    +0.000 C 
ATOM     10  C   UNL     1      48.725   7.238  17.712  0.00  0.00    +0.000 C 
BRANCH  10  11
ATOM     11  C   UNL     1      49.570   6.001  17.904  0.00  0.00    +0.000 A 
ATOM     12  C   UNL     1      50.911   6.023  18.259  0.00  0.00    +0.000 A 
ATOM     13  S   UNL     1      51.689   4.527  17.962  0.00  0.00    +0.000 S 
ATOM     14  C   UNL     1      50.225   3.803  17.476  0.00  0.00    +0.000 A 
ATOM     15  N   UNL     1      50.179   2.550  16.948  0.00  0.00    +0.000 NA
ATOM     16  C   UNL     1      48.983   2.135  16.682  0.00  0.00    +0.000 A 
ATOM     17  N   UNL     1      47.828   2.835  16.944  0.00  0.00    +0.000 N 
ATOM     18  C   UNL     1      47.830   4.091  17.499  0.00  0.00    +0.000 A 
ATOM     19  O   UNL     1      46.792   4.664  17.822  0.00  0.00    +0.000 OA
ATOM     20  C   UNL     1      49.154   4.646  17.680  0.00  0.00    +0.000 A 
ATOM     21  H   UNL     1      46.926   2.410  16.798  0.00  0.00    +0.000 HD
ENDBRANCH  10  11
ENDBRANCH   7  10
ENDBRANCH   1   7
BRANCH   4  22
ATOM     22  C   UNL     1      47.005   6.655  11.874  0.00  0.00    +0.000 C 
BRANCH  22  23
ATOM     23  N   UNL     1      45.691   7.261  11.599  0.00  0.00    +0.000 NA
ATOM     24  H   UNL     1      45.782   7.781  10.724  0.00  0.00    +0.000 HD
BRANCH  23  25
ATOM     25  C   UNL     1      44.593   6.294  11.468  0.00  0.00    +0.000 C 
ATOM     26  C   UNL     1      44.944   5.124  10.532  0.00  0.00    +0.000 C 
ATOM     27  C   UNL     1      43.878   4.027  10.555  0.00  0.00    +0.000 C 
ATOM     28  C   UNL     1      43.587   3.513  11.967  0.00  0.00    +0.000 C 
ATOM     29  C   UNL     1      43.215   4.684  12.886  0.00  0.00    +0.000 C 
ATOM     30  C   UNL     1      44.260   5.799  12.887  0.00  0.00    +0.000 C 
BRANCH  28  31
ATOM     31  N   UNL     1      44.727   2.774  12.507  0.00  0.00    +0.000 NA
ATOM     32  H   UNL     1      45.590   3.041  12.031  0.00  0.00    +0.000 HD
ATOM     33  H   UNL     1      44.608   1.783  12.327  0.00  0.00    +0.000 HD
ENDBRANCH  28  31
ENDBRANCH  23  25
ENDBRANCH  22  23
ENDBRANCH   4  22
TORSDOF 7
ENDMDL
MODEL 6
REMARK VINA RESULT:    -6.916      5.178      9.089
REMARK INTER + INTRA:         -10.284
REMARK INTER:                  -9.539
REMARK INTRA:                  -0.745
REMARK UNBOUND:                -0.740
REMARK  Name = 
REMARK  8 active torsions:
REMARK  status: ('A' for Active; 'I' for Inactive)
REMARK    1  A    between atoms: C_1  and  C_2
REMARK    2  A    between atoms: C_2  and  N_3
REMARK    3  A    between atoms: C_2  and  C_19
REMARK    4  A    between atoms: N_3  and  C_4
REMARK    5  A    between atoms: C_7  and  C_8
REMARK    6  A    between atoms: C_8  and  N_9
REMARK    7  A    between atoms: N_9  and  C_10
REMARK    8  A    between atoms: C_13  and  N_14
REMARK                            x       y       z     vdW  Elec       q    Type
REMARK                         _______ _______ _______ _____ _____    ______ ____
ROOT
ATOM      1  C   UNL     1      47.669   4.215  15.956  0.00  0.00    +0.000 A 
ATOM      2  C   UNL     1      48.382   4.540  17.100  0.00  0.00    +0.000 A 
ATOM      3  N   UNL     1      49.324   3.763  17.672  0.00  0.00    +0.000 NA
ATOM      4  C   UNL     1      49.551   2.580  17.070  0.00  0.00    +0.000 A 
ATOM      5  N   UNL     1      48.808   2.084  16.060  0.00  0.00    +0.000 NA
ATOM      6  C   UNL     1      47.872   2.913  15.543  0.00  0.00    +0.000 A 
ENDROOT
BRANCH   1   7
ATOM      7  N   UNL     1      46.906   5.104  15.218  0.00  0.00    +0.000 N 
ATOM      8  H   UNL     1      46.166   5.634  15.672  0.00  0.00    +0.000 HD
BRANCH   7  10
ATOM      9  C   UNL     1      48.445   6.781  14.266  0.00  0.00    +0.000 C 
ATOM     10  C   UNL     1      47.458   5.634  13.979  0.00  0.00    +0.000 C 
BRANCH  10  11
ATOM     11  C   UNL     1      46.456   6.042  12.924  0.00  0.00    +0.000 A 
ATOM     12  C   UNL     1      46.408   7.301  12.343  0.00  0.00    +0.000 A 
ATOM     13  S   UNL     1      44.924   7.593  11.542  0.00  0.00    +0.000 S 
ATOM     14  C   UNL     1      44.384   6.008  11.854  0.00  0.00    +0.000 A 
ATOM     15  N   UNL     1      43.116   5.605  11.565  0.00  0.00    +0.000 NA
ATOM     16  C   UNL     1      42.889   4.357  11.818  0.00  0.00    +0.000 A 
ATOM     17  N   UNL     1      43.827   3.463  12.281  0.00  0.00    +0.000 N 
ATOM     18  C   UNL     1      45.122   3.822  12.560  0.00  0.00    +0.000 A 
ATOM     19  O   UNL     1      45.976   2.996  12.876  0.00  0.00    +0.000 OA
ATOM     20  C   UNL     1      45.376   5.240  12.425  0.00  0.00    +0.000 A 
ATOM     21  H   UNL     1      43.605   2.483  12.364  0.00  0.00    +0.000 HD
ENDBRANCH  10  11
ENDBRANCH   7  10
ENDBRANCH   1   7
BRANCH   4  22
ATOM     22  C   UNL     1      50.858   1.877  17.399  0.00  0.00    +0.000 C 
BRANCH  22  23
ATOM     23  N   UNL     1      51.853   2.653  18.160  0.00  0.00    +0.000 NA
ATOM     24  H   UNL     1      51.585   2.591  19.145  0.00  0.00    +0.000 HD
BRANCH  23  25
ATOM     25  C   UNL     1      53.235   2.181  18.009  0.00  0.00    +0.000 C 
ATOM     26  C   UNL     1      54.065   2.362  19.291  0.00  0.00    +0.000 C 
ATOM     27  C   UNL     1      55.437   1.692  19.191  0.00  0.00    +0.000 C 
ATOM     28  C   UNL     1      55.346   0.211  18.817  0.00  0.00    +0.000 C 
ATOM     29  C   UNL     1      54.538   0.044  17.524  0.00  0.00    +0.000 C 
ATOM     30  C   UNL     1      53.160   0.702  17.591  0.00  0.00    +0.000 C 
BRANCH  28  31
ATOM     31  N   UNL     1      54.757  -0.575  19.901  0.00  0.00    +0.000 NA
ATOM     32  H   UNL     1      55.479  -1.095  20.404  0.00  0.00    +0.000 HD
ATOM     33  H   UNL     1      54.132  -1.274  19.515  0.00  0.00    +0.000 HD
ENDBRANCH  28  31
ENDBRANCH  23  25
ENDBRANCH  22  23
ENDBRANCH   4  22
TORSDOF 7
ENDMDL
MODEL 7
REMARK VINA RESULT:    -6.775      3.719      5.885
REMARK INTER + INTRA:         -10.089
REMARK INTER:                  -9.100
REMARK INTRA:                  -0.989
REMARK UNBOUND:                -0.740
REMARK  Name = 
REMARK  8 active torsions:
REMARK  status: ('A' for Active; 'I' for Inactive)
REMARK    1  A    between atoms: C_1  and  C_2
REMARK    2  A    between atoms: C_2  and  N_3
REMARK    3  A    between atoms: C_2  and  C_19
REMARK    4  A    between atoms: N_3  and  C_4
REMARK    5  A    between atoms: C_7  and  C_8
REMARK    6  A    between atoms: C_8  and  N_9
REMARK    7  A    between atoms: N_9  and  C_10
REMARK    8  A    between atoms: C_13  and  N_14
REMARK                            x       y       z     vdW  Elec       q    Type
REMARK                         _______ _______ _______ _____ _____    ______ ____
ROOT
ATOM      1  C   UNL     1      48.655   3.756  18.502  0.00  0.00    +0.000 A 
ATOM      2  C   UNL     1      49.151   3.009  17.445  0.00  0.00    +0.000 A 
ATOM      3  N   UNL     1      48.616   2.965  16.208  0.00  0.00    +0.000 NA
ATOM      4  C   UNL     1      47.504   3.703  16.027  0.00  0.00    +0.000 A 
ATOM      5  N   UNL     1      46.836   4.331  17.016  0.00  0.00    +0.000 NA
ATOM      6  C   UNL     1      47.425   4.324  18.234  0.00  0.00    +0.000 A 
ENDROOT
BRANCH   1   7
ATOM      7  N   UNL     1      49.336   4.017  19.679  0.00  0.00    +0.000 N 
ATOM      8  H   UNL     1      49.347   3.322  20.422  0.00  0.00    +0.000 HD
BRANCH   7  10
ATOM      9  C   UNL     1      51.161   5.019  21.002  0.00  0.00    +0.000 C 
ATOM     10  C   UNL     1      50.405   5.007  19.661  0.00  0.00    +0.000 C 
BRANCH  10  11
ATOM     11  C   UNL     1      50.009   6.408  19.257  0.00  0.00    +0.000 A 
ATOM     12  C   UNL     1      49.587   7.383  20.148  0.00  0.00    +0.000 A 
ATOM     13  S   UNL     1      48.796   8.684  19.364  0.00  0.00    +0.000 S 
ATOM     14  C   UNL     1      49.117   8.022  17.828  0.00  0.00    +0.000 A 
ATOM     15  N   UNL     1      48.596   8.552  16.688  0.00  0.00    +0.000 NA
ATOM     16  C   UNL     1      48.983   7.958  15.607  0.00  0.00    +0.000 A 
ATOM     17  N   UNL     1      49.882   6.918  15.556  0.00  0.00    +0.000 N 
ATOM     18  C   UNL     1      50.450   6.371  16.680  0.00  0.00    +0.000 A 
ATOM     19  O   UNL     1      51.327   5.512  16.617  0.00  0.00    +0.000 OA
ATOM     20  C   UNL     1      49.934   6.915  17.917  0.00  0.00    +0.000 A 
ATOM     21  H   UNL     1      50.211   6.567  14.670  0.00  0.00    +0.000 HD
ENDBRANCH  10  11
ENDBRANCH   7  10
ENDBRANCH   1   7
BRANCH   4  22
ATOM     22  C   UNL     1      47.118   4.030  14.593  0.00  0.00    +0.000 C 
BRANCH  22  23
ATOM     23  N   UNL     1      45.835   4.725  14.396  0.00  0.00    +0.000 NA
ATOM     24  H   UNL     1      45.990   5.707  14.637  0.00  0.00    +0.000 HD
BRANCH  23  25
ATOM     25  C   UNL     1      45.306   4.647  13.029  0.00  0.00    +0.000 C 
ATOM     26  C   UNL     1      45.748   3.369  12.296  0.00  0.00    +0.000 C 
ATOM     27  C   UNL     1      45.039   3.199  10.951  0.00  0.00    +0.000 C 
ATOM     28  C   UNL     1      43.514   3.244  11.076  0.00  0.00    +0.000 C 
ATOM     29  C   UNL     1      43.083   4.534  11.786  0.00  0.00    +0.000 C 
ATOM     30  C   UNL     1      43.773   4.734  13.135  0.00  0.00    +0.000 C 
BRANCH  28  31
ATOM     31  N   UNL     1      43.005   2.069  11.783  0.00  0.00    +0.000 NA
ATOM     32  H   UNL     1      42.040   1.872  11.509  0.00  0.00    +0.000 HD
ATOM     33  H   UNL     1      42.976   2.256  12.779  0.00  0.00    +0.000 HD
ENDBRANCH  28  31
ENDBRANCH  23  25
ENDBRANCH  22  23
ENDBRANCH   4  22
TORSDOF 7
ENDMDL
MODEL 8
REMARK VINA RESULT:    -6.495      3.158      5.148
REMARK INTER + INTRA:          -9.703
REMARK INTER:                  -8.355
REMARK INTRA:                  -1.348
REMARK UNBOUND:                -0.740
REMARK  Name = 
REMARK  8 active torsions:
REMARK  status: ('A' for Active; 'I' for Inactive)
REMARK    1  A    between atoms: C_1  and  C_2
REMARK    2  A    between atoms: C_2  and  N_3
REMARK    3  A    between atoms: C_2  and  C_19
REMARK    4  A    between atoms: N_3  and  C_4
REMARK    5  A    between atoms: C_7  and  C_8
REMARK    6  A    between atoms: C_8  and  N_9
REMARK    7  A    between atoms: N_9  and  C_10
REMARK    8  A    between atoms: C_13  and  N_14
REMARK                            x       y       z     vdW  Elec       q    Type
REMARK                         _______ _______ _______ _____ _____    ______ ____
ROOT
ATOM      1  C   UNL     1      49.590   7.808  12.850  0.00  0.00    +0.000 A 
ATOM      2  C   UNL     1      48.791   8.922  12.641  0.00  0.00    +0.000 A 
ATOM      3  N   UNL     1      47.452   8.895  12.480  0.00  0.00    +0.000 NA
ATOM      4  C   UNL     1      46.884   7.675  12.514  0.00  0.00    +0.000 A 
ATOM      5  N   UNL     1      47.571   6.515  12.541  0.00  0.00    +0.000 NA
ATOM      6  C   UNL     1      48.912   6.616  12.691  0.00  0.00    +0.000 A 
ENDROOT
BRANCH   1   7
ATOM      7  N   UNL     1      50.906   7.846  13.279  0.00  0.00    +0.000 N 
ATOM      8  H   UNL     1      51.661   7.844  12.596  0.00  0.00    +0.000 HD
BRANCH   7  10
ATOM      9  C   UNL     1      52.404   9.325  14.566  0.00  0.00    +0.000 C 
ATOM     10  C   UNL     1      51.193   8.375  14.606  0.00  0.00    +0.000 C 
BRANCH  10  11
ATOM     11  C   UNL     1      51.348   7.357  15.711  0.00  0.00    +0.000 A 
ATOM     12  C   UNL     1      52.571   6.923  16.201  0.00  0.00    +0.000 A 
ATOM     13  S   UNL     1      52.434   5.474  17.104  0.00  0.00    +0.000 S 
ATOM     14  C   UNL     1      50.737   5.481  16.955  0.00  0.00    +0.000 A 
ATOM     15  N   UNL     1      49.969   4.440  17.380  0.00  0.00    +0.000 NA
ATOM     16  C   UNL     1      48.698   4.631  17.238  0.00  0.00    +0.000 A 
ATOM     17  N   UNL     1      48.122   5.787  16.762  0.00  0.00    +0.000 N 
ATOM     18  C   UNL     1      48.859   6.868  16.347  0.00  0.00    +0.000 A 
ATOM     19  O   UNL     1      48.334   7.930  16.020  0.00  0.00    +0.000 OA
ATOM     20  C   UNL     1      50.288   6.639  16.357  0.00  0.00    +0.000 A 
ATOM     21  H   UNL     1      47.120   5.901  16.769  0.00  0.00    +0.000 HD
ENDBRANCH  10  11
ENDBRANCH   7  10
ENDBRANCH   1   7
BRANCH   4  22
ATOM     22  C   UNL     1      45.386   7.618  12.767  0.00  0.00    +0.000 C 
BRANCH  22  23
ATOM     23  N   UNL     1      44.525   7.400  11.592  0.00  0.00    +0.000 NA
ATOM     24  H   UNL     1      45.101   7.580  10.766  0.00  0.00    +0.000 HD
BRANCH  23  25
ATOM     25  C   UNL     1      43.961   6.048  11.496  0.00  0.00    +0.000 C 
ATOM     26  C   UNL     1      44.804   5.117  10.608  0.00  0.00    +0.000 C 
ATOM     27  C   UNL     1      44.322   3.666  10.670  0.00  0.00    +0.000 C 
ATOM     28  C   UNL     1      44.256   3.125  12.101  0.00  0.00    +0.000 C 
ATOM     29  C   UNL     1      43.392   4.048  12.971  0.00  0.00    +0.000 C 
ATOM     30  C   UNL     1      43.848   5.506  12.932  0.00  0.00    +0.000 C 
BRANCH  28  31
ATOM     31  N   UNL     1      45.593   2.975  12.674  0.00  0.00    +0.000 NA
ATOM     32  H   UNL     1      46.127   3.840  12.574  0.00  0.00    +0.000 HD
ATOM     33  H   UNL     1      46.108   2.271  12.157  0.00  0.00    +0.000 HD
ENDBRANCH  28  31
ENDBRANCH  23  25
ENDBRANCH  22  23
ENDBRANCH   4  22
TORSDOF 7
ENDMDL
MODEL 9
REMARK VINA RESULT:    -6.445      3.739      6.505
REMARK INTER + INTRA:          -9.634
REMARK INTER:                  -8.338
REMARK INTRA:                  -1.296
REMARK UNBOUND:                -0.740
REMARK  Name = 
REMARK  8 active torsions:
REMARK  status: ('A' for Active; 'I' for Inactive)
REMARK    1  A    between atoms: C_1  and  C_2
REMARK    2  A    between atoms: C_2  and  N_3
REMARK    3  A    between atoms: C_2  and  C_19
REMARK    4  A    between atoms: N_3  and  C_4
REMARK    5  A    between atoms: C_7  and  C_8
REMARK    6  A    between atoms: C_8  and  N_9
REMARK    7  A    between atoms: N_9  and  C_10
REMARK    8  A    between atoms: C_13  and  N_14
REMARK                            x       y       z     vdW  Elec       q    Type
REMARK                         _______ _______ _______ _____ _____    ______ ____
ROOT
ATOM      1  C   UNL     1      50.310   7.938  16.649  0.00  0.00    +0.000 A 
ATOM      2  C   UNL     1      49.142   8.672  16.514  0.00  0.00    +0.000 A 
ATOM      3  N   UNL     1      48.272   8.562  15.490  0.00  0.00    +0.000 NA
ATOM      4  C   UNL     1      48.604   7.673  14.534  0.00  0.00    +0.000 A 
ATOM      5  N   UNL     1      49.787   7.030  14.470  0.00  0.00    +0.000 NA
ATOM      6  C   UNL     1      50.617   7.196  15.526  0.00  0.00    +0.000 A 
ENDROOT
BRANCH   1   7
ATOM      7  N   UNL     1      51.061   7.848  17.809  0.00  0.00    +0.000 N 
ATOM      8  H   UNL     1      51.703   8.599  18.055  0.00  0.00    +0.000 HD
BRANCH   7  10
ATOM      9  C   UNL     1      51.456   7.150  20.142  0.00  0.00    +0.000 C 
ATOM     10  C   UNL     1      50.591   6.980  18.880  0.00  0.00    +0.000 C 
BRANCH  10  11
ATOM     11  C   UNL     1      50.434   5.518  18.532  0.00  0.00    +0.000 A 
ATOM     12  C   UNL     1      51.460   4.587  18.604  0.00  0.00    +0.000 A 
ATOM     13  S   UNL     1      51.103   3.155  17.737  0.00  0.00    +0.000 S 
ATOM     14  C   UNL     1      49.537   3.710  17.363  0.00  0.00    +0.000 A 
ATOM     15  N   UNL     1      48.714   3.035  16.514  0.00  0.00    +0.000 NA
ATOM     16  C   UNL     1      47.543   3.568  16.382  0.00  0.00    +0.000 A 
ATOM     17  N   UNL     1      47.100   4.680  17.061  0.00  0.00    +0.000 N 
ATOM     18  C   UNL     1      47.890   5.374  17.944  0.00  0.00    +0.000 A 
ATOM     19  O   UNL     1      47.453   6.303  18.620  0.00  0.00    +0.000 OA
ATOM     20  C   UNL     1      49.252   4.892  18.011  0.00  0.00    +0.000 A 
ATOM     21  H   UNL     1      46.142   4.983  16.981  0.00  0.00    +0.000 HD
ENDBRANCH  10  11
ENDBRANCH   7  10
ENDBRANCH   1   7
BRANCH   4  22
ATOM     22  C   UNL     1      47.491   7.203  13.611  0.00  0.00    +0.000 C 
BRANCH  22  23
ATOM     23  N   UNL     1      46.750   6.000  14.028  0.00  0.00    +0.000 NA
ATOM     24  H   UNL     1      46.020   6.311  14.672  0.00  0.00    +0.000 HD
BRANCH  23  25
ATOM     25  C   UNL     1      46.129   5.258  12.924  0.00  0.00    +0.000 C 
ATOM     26  C   UNL     1      44.695   4.804  13.249  0.00  0.00    +0.000 C 
ATOM     27  C   UNL     1      43.988   4.207  12.030  0.00  0.00    +0.000 C 
ATOM     28  C   UNL     1      43.990   5.150  10.824  0.00  0.00    +0.000 C 
ATOM     29  C   UNL     1      45.427   5.576  10.493  0.00  0.00    +0.000 C 
ATOM     30  C   UNL     1      46.163   6.178  11.691  0.00  0.00    +0.000 C 
BRANCH  28  31
ATOM     31  N   UNL     1      43.145   6.319  11.063  0.00  0.00    +0.000 NA
ATOM     32  H   UNL     1      43.714   7.163  11.152  0.00  0.00    +0.000 HD
ATOM     33  H   UNL     1      42.662   6.216  11.948  0.00  0.00    +0.000 HD
ENDBRANCH  28  31
ENDBRANCH  23  25
ENDBRANCH  22  23
ENDBRANCH   4  22
TORSDOF 7
ENDMDL
