MODEL 1
REMARK VINA RESULT:    -8.240      0.000      0.000
REMARK INTER + INTRA:         -12.808
REMARK INTER:                 -12.093
REMARK INTRA:                  -0.715
REMARK UNBOUND:                -0.715
REMARK  Name = 
REMARK  9 active torsions:
REMARK  status: ('A' for Active; 'I' for Inactive)
REMARK    1  A    between atoms: N_1  and  C_2
REMARK    2  A    between atoms: C_2  and  N_3
REMARK    3  A    between atoms: C_2  and  C_19
REMARK    4  A    between atoms: N_3  and  C_4
REMARK    5  A    between atoms: C_4  and  C_5
REMARK    6  A    between atoms: C_8  and  C_9
REMARK    7  A    between atoms: C_9  and  O_10
REMARK    8  A    between atoms: C_9  and  C_11
REMARK    9  A    between atoms: C_11  and  N_12
REMARK                            x       y       z     vdW  Elec       q    Type
REMARK                         _______ _______ _______ _____ _____    ______ ____
ROOT
ATOM      1  N   UNL     1      47.175   5.013  16.080  0.00  0.00    +0.000 NA
ATOM      2  H   UNL     1      47.350   5.716  16.805  0.00  0.00    +0.000 HD
ENDROOT
BRANCH   1   3
ATOM      3  C   UNL     1      47.732   3.784  16.606  0.00  0.00    +0.000 C 
BRANCH   3   4
ATOM      4  C   UNL     1      48.950   4.166  17.426  0.00  0.00    +0.000 A 
ATOM      5  C   UNL     1      49.097   5.324  18.178  0.00  0.00    +0.000 A 
ATOM      6  S   UNL     1      50.614   5.457  18.950  0.00  0.00    +0.000 S 
ATOM      7  C   UNL     1      51.123   3.958  18.330  0.00  0.00    +0.000 A 
ATOM      8  N   UNL     1      52.355   3.457  18.614  0.00  0.00    +0.000 NA
ATOM      9  C   UNL     1      52.594   2.308  18.074  0.00  0.00    +0.000 A 
ATOM     10  N   UNL     1      51.722   1.616  17.276  0.00  0.00    +0.000 N 
ATOM     11  C   UNL     1      50.484   2.109  16.928  0.00  0.00    +0.000 A 
ATOM     12  O   UNL     1      49.742   1.513  16.138  0.00  0.00    +0.000 OA
ATOM     13  C   UNL     1      50.154   3.378  17.542  0.00  0.00    +0.000 A 
ATOM     14  H   UNL     1      51.987   0.734  16.864  0.00  0.00    +0.000 HD
ENDBRANCH   3   4
BRANCH   3  15
ATOM     15  N   UNL     1      46.744   3.215  17.489  0.00  0.00    +0.000 NA
ATOM     16  H   UNL     1      46.331   2.403  17.051  0.00  0.00    +0.000 HD
ATOM     17  H   UNL     1      46.006   3.914  17.549  0.00  0.00    +0.000 HD
ENDBRANCH   3  15
ENDBRANCH   1   3
BRANCH   1  18
ATOM     18  C   UNL     1      47.817   5.511  14.871  0.00  0.00    +0.000 C 
BRANCH  18  19
ATOM     19  C   UNL     1      46.871   5.514  13.696  0.00  0.00    +0.000 A 
ATOM     20  C   UNL     1      46.969   6.460  12.673  0.00  0.00    +0.000 A 
ATOM     21  C   UNL     1      46.206   6.312  11.518  0.00  0.00    +0.000 A 
ATOM     22  C   UNL     1      45.383   5.194  11.399  0.00  0.00    +0.000 A 
ATOM     23  N   UNL     1      45.186   4.321  12.423  0.00  0.00    +0.000 NA
ATOM     24  C   UNL     1      45.918   4.513  13.546  0.00  0.00    +0.000 A 
BRANCH  22  25
ATOM     25  C   UNL     1      44.792   4.804  10.046  0.00  0.00    +0.000 C 
BRANCH  25  26
ATOM     26  O   UNL     1      43.410   5.184  10.018  0.00  0.00    +0.000 OA
ATOM     27  H   UNL     1      43.124   5.000   9.100  0.00  0.00    +0.000 HD
ENDBRANCH  25  26
BRANCH  25  28
ATOM     28  C   UNL     1      44.937   3.259   9.876  0.00  0.00    +0.000 C 
BRANCH  28  29
ATOM     29  N   UNL     1      44.812   2.591   8.563  0.00  0.00    +0.000 NA
ATOM     30  C   UNL     1      45.600   1.371   8.407  0.00  0.00    +0.000 C 
ATOM     31  C   UNL     1      46.882   1.817   7.736  0.00  0.00    +0.000 C 
ATOM     32  C   UNL     1      46.409   2.895   6.782  0.00  0.00    +0.000 C 
ATOM     33  C   UNL     1      45.135   3.448   7.415  0.00  0.00    +0.000 C 
ENDBRANCH  28  29
ENDBRANCH  25  28
ENDBRANCH  22  25
ENDBRANCH  18  19
ENDBRANCH   1  18
TORSDOF 9
ENDMDL
MODEL 2
REMARK VINA RESULT:    -8.075      2.682      8.530
REMARK INTER + INTRA:         -12.567
REMARK INTER:                 -11.535
REMARK INTRA:                  -1.032
REMARK UNBOUND:                -0.715
REMARK  Name = 
REMARK  9 active torsions:
REMARK  status: ('A' for Active; 'I' for Inactive)
REMARK    1  A    between atoms: N_1  and  C_2
REMARK    2  A    between atoms: C_2  and  N_3
REMARK    3  A    between atoms: C_2  and  C_19
REMARK    4  A    between atoms: N_3  and  C_4
REMARK    5  A    between atoms: C_4  and  C_5
REMARK    6  A    between atoms: C_8  and  C_9
REMARK    7  A    between atoms: C_9  and  O_10
REMARK    8  A    between atoms: C_9  and  C_11
REMARK    9  A    between atoms: C_11  and  N_12
REMARK                            x       y       z     vdW  Elec       q    Type
REMARK                         _______ _______ _______ _____ _____    ______ ____
ROOT
ATOM      1  N   UNL     1      45.763   7.034  12.380  0.00  0.00    +0.000 NA
ATOM      2  H   UNL     1      45.265   6.548  13.131  0.00  0.00    +0.000 HD
ENDROOT
BRANCH   1   3
ATOM      3  C   UNL     1      44.955   6.824  11.196  0.00  0.00    +0.000 C 
BRANCH   3   4
ATOM      4  C   UNL     1      44.491   5.381  11.227  0.00  0.00    +0.000 A 
ATOM      5  C   UNL     1      43.714   4.795  12.218  0.00  0.00    +0.000 A 
ATOM      6  S   UNL     1      43.403   3.136  11.960  0.00  0.00    +0.000 S 
ATOM      7  C   UNL     1      44.273   3.143  10.500  0.00  0.00    +0.000 A 
ATOM      8  N   UNL     1      44.402   2.017   9.748  0.00  0.00    +0.000 NA
ATOM      9  C   UNL     1      45.088   2.182   8.666  0.00  0.00    +0.000 A 
ATOM     10  N   UNL     1      45.659   3.361   8.267  0.00  0.00    +0.000 N 
ATOM     11  C   UNL     1      45.590   4.512   9.021  0.00  0.00    +0.000 A 
ATOM     12  O   UNL     1      46.183   5.545   8.690  0.00  0.00    +0.000 OA
ATOM     13  C   UNL     1      44.797   4.387  10.226  0.00  0.00    +0.000 A 
ATOM     14  H   UNL     1      46.206   3.410   7.421  0.00  0.00    +0.000 HD
ENDBRANCH   3   4
BRANCH   3  15
ATOM     15  N   UNL     1      43.802   7.681  11.313  0.00  0.00    +0.000 NA
ATOM     16  H   UNL     1      43.083   7.206  11.844  0.00  0.00    +0.000 HD
ATOM     17  H   UNL     1      43.441   7.774  10.366  0.00  0.00    +0.000 HD
ENDBRANCH   3  15
ENDBRANCH   1   3
BRANCH   1  18
ATOM     18  C   UNL     1      47.094   6.443  12.329  0.00  0.00    +0.000 C 
BRANCH  18  19
ATOM     19  C   UNL     1      47.408   5.665  13.582  0.00  0.00    +0.000 A 
ATOM     20  C   UNL     1      47.993   6.268  14.698  0.00  0.00    +0.000 A 
ATOM     21  C   UNL     1      48.089   5.564  15.896  0.00  0.00    +0.000 A 
ATOM     22  C   UNL     1      47.560   4.277  15.957  0.00  0.00    +0.000 A 
ATOM     23  N   UNL     1      47.088   3.628  14.859  0.00  0.00    +0.000 NA
ATOM     24  C   UNL     1      47.041   4.329  13.702  0.00  0.00    +0.000 A 
BRANCH  22  25
ATOM     25  C   UNL     1      47.332   3.595  17.305  0.00  0.00    +0.000 C 
BRANCH  25  26
ATOM     26  O   UNL     1      46.732   4.536  18.204  0.00  0.00    +0.000 OA
ATOM     27  H   UNL     1      46.076   4.011  18.707  0.00  0.00    +0.000 HD
ENDBRANCH  25  26
BRANCH  25  28
ATOM     28  C   UNL     1      48.715   3.122  17.854  0.00  0.00    +0.000 C 
BRANCH  28  29
ATOM     29  N   UNL     1      49.927   3.066  17.007  0.00  0.00    +0.000 NA
ATOM     30  C   UNL     1      50.379   1.722  16.658  0.00  0.00    +0.000 C 
ATOM     31  C   UNL     1      51.434   1.382  17.690  0.00  0.00    +0.000 C 
ATOM     32  C   UNL     1      52.135   2.708  17.908  0.00  0.00    +0.000 C 
ATOM     33  C   UNL     1      51.089   3.766  17.569  0.00  0.00    +0.000 C 
ENDBRANCH  28  29
ENDBRANCH  25  28
ENDBRANCH  22  25
ENDBRANCH  18  19
ENDBRANCH   1  18
TORSDOF 9
ENDMDL
MODEL 3
REMARK VINA RESULT:    -8.015      3.120      9.035
REMARK INTER + INTRA:         -12.478
REMARK INTER:                 -11.147
REMARK INTRA:                  -1.331
REMARK UNBOUND:                -0.715
REMARK  Name = 
REMARK  9 active torsions:
REMARK  status: ('A' for Active; 'I' for Inactive)
REMARK    1  A    between atoms: N_1  and  C_2
REMARK    2  A    between atoms: C_2  and  N_3
REMARK    3  A    between atoms: C_2  and  C_19
REMARK    4  A    between atoms: N_3  and  C_4
REMARK    5  A    between atoms: C_4  and  C_5
REMARK    6  A    between atoms: C_8  and  C_9
REMARK    7  A    between atoms: C_9  and  O_10
REMARK    8  A    between atoms: C_9  and  C_11
REMARK    9  A    between atoms: C_11  and  N_12
REMARK                            x       y       z     vdW  Elec       q    Type
REMARK                         _______ _______ _______ _____ _____    ______ ____
ROOT
ATOM      1  N   UNL     1      45.499   6.883  12.423  0.00  0.00    +0.000 NA
ATOM      2  H   UNL     1      45.039   6.257  13.091  0.00  0.00    +0.000 HD
ENDROOT
BRANCH   1   3
ATOM      3  C   UNL     1      44.796   6.681  11.173  0.00  0.00    +0.000 C 
BRANCH   3   4
ATOM      4  C   UNL     1      44.389   5.221  11.125  0.00  0.00    +0.000 A 
ATOM      5  C   UNL     1      43.593   4.565  12.055  0.00  0.00    +0.000 A 
ATOM      6  S   UNL     1      43.360   2.907  11.717  0.00  0.00    +0.000 S 
ATOM      7  C   UNL     1      44.292   3.009  10.299  0.00  0.00    +0.000 A 
ATOM      8  N   UNL     1      44.499   1.921   9.509  0.00  0.00    +0.000 NA
ATOM      9  C   UNL     1      45.224   2.156   8.466  0.00  0.00    +0.000 A 
ATOM     10  N   UNL     1      45.765   3.373   8.141  0.00  0.00    +0.000 N 
ATOM     11  C   UNL     1      45.617   4.487   8.938  0.00  0.00    +0.000 A 
ATOM     12  O   UNL     1      46.181   5.555   8.676  0.00  0.00    +0.000 OA
ATOM     13  C   UNL     1      44.777   4.282  10.100  0.00  0.00    +0.000 A 
ATOM     14  H   UNL     1      46.346   3.477   7.324  0.00  0.00    +0.000 HD
ENDBRANCH   3   4
BRANCH   3  15
ATOM     15  N   UNL     1      43.603   7.489  11.222  0.00  0.00    +0.000 NA
ATOM     16  H   UNL     1      43.679   8.242  10.552  0.00  0.00    +0.000 HD
ATOM     17  H   UNL     1      43.613   7.924  12.142  0.00  0.00    +0.000 HD
ENDBRANCH   3  15
ENDBRANCH   1   3
BRANCH   1  18
ATOM     18  C   UNL     1      46.903   6.497  12.407  0.00  0.00    +0.000 C 
BRANCH  18  19
ATOM     19  C   UNL     1      47.296   5.767  13.667  0.00  0.00    +0.000 A 
ATOM     20  C   UNL     1      48.134   6.345  14.624  0.00  0.00    +0.000 A 
ATOM     21  C   UNL     1      48.315   5.720  15.855  0.00  0.00    +0.000 A 
ATOM     22  C   UNL     1      47.621   4.541  16.113  0.00  0.00    +0.000 A 
ATOM     23  N   UNL     1      46.890   3.900  15.162  0.00  0.00    +0.000 NA
ATOM     24  C   UNL     1      46.762   4.518  13.964  0.00  0.00    +0.000 A 
BRANCH  22  25
ATOM     25  C   UNL     1      47.513   3.998  17.537  0.00  0.00    +0.000 C 
BRANCH  25  26
ATOM     26  O   UNL     1      46.487   2.999  17.575  0.00  0.00    +0.000 OA
ATOM     27  H   UNL     1      46.170   2.936  16.651  0.00  0.00    +0.000 HD
ENDBRANCH  25  26
BRANCH  25  28
ATOM     28  C   UNL     1      47.155   5.185  18.487  0.00  0.00    +0.000 C 
BRANCH  28  29
ATOM     29  N   UNL     1      47.998   5.559  19.642  0.00  0.00    +0.000 NA
ATOM     30  C   UNL     1      48.679   6.846  19.524  0.00  0.00    +0.000 C 
ATOM     31  C   UNL     1      50.057   6.512  18.992  0.00  0.00    +0.000 C 
ATOM     32  C   UNL     1      50.383   5.207  19.688  0.00  0.00    +0.000 C 
ATOM     33  C   UNL     1      49.029   4.569  19.983  0.00  0.00    +0.000 C 
ENDBRANCH  28  29
ENDBRANCH  25  28
ENDBRANCH  22  25
ENDBRANCH  18  19
ENDBRANCH   1  18
TORSDOF 9
ENDMDL
MODEL 4
REMARK VINA RESULT:    -7.566      2.255      2.853
REMARK INTER + INTRA:         -11.820
REMARK INTER:                 -10.755
REMARK INTRA:                  -1.064
REMARK UNBOUND:                -0.715
REMARK  Name = 
REMARK  9 active torsions:
REMARK  status: ('A' for Active; 'I' for Inactive)
REMARK    1  A    between atoms: N_1  and  C_2
REMARK    2  A    between atoms: C_2  and  N_3
REMARK    3  A    between atoms: C_2  and  C_19
REMARK    4  A    between atoms: N_3  and  C_4
REMARK    5  A    between atoms: C_4  and  C_5
REMARK    6  A    between atoms: C_8  and  C_9
REMARK    7  A    between atoms: C_9  and  O_10
REMARK    8  A    between atoms: C_9  and  C_11
REMARK    9  A    between atoms: C_11  and  N_12
REMARK                            x       y       z     vdW  Elec       q    Type
REMARK                         _______ _______ _______ _____ _____    ______ ____
ROOT
ATOM      1  N   UNL     1      47.413   7.374  14.403  0.00  0.00    +0.000 NA
ATOM      2  H   UNL     1      46.899   8.053  14.971  0.00  0.00    +0.000 HD
ENDROOT
BRANCH   1   3
ATOM      3  C   UNL     1      48.768   7.406  14.915  0.00  0.00    +0.000 C 
BRANCH   3   4
ATOM      4  C   UNL     1      48.747   6.718  16.266  0.00  0.00    +0.000 A 
ATOM      5  C   UNL     1      49.189   7.260  17.465  0.00  0.00    +0.000 A 
ATOM      6  S   UNL     1      49.056   6.198  18.795  0.00  0.00    +0.000 S 
ATOM      7  C   UNL     1      48.377   4.979  17.823  0.00  0.00    +0.000 A 
ATOM      8  N   UNL     1      48.017   3.776  18.346  0.00  0.00    +0.000 NA
ATOM      9  C   UNL     1      47.513   2.956  17.484  0.00  0.00    +0.000 A 
ATOM     10  N   UNL     1      47.339   3.223  16.151  0.00  0.00    +0.000 N 
ATOM     11  C   UNL     1      47.732   4.410  15.575  0.00  0.00    +0.000 A 
ATOM     12  O   UNL     1      47.647   4.603  14.357  0.00  0.00    +0.000 OA
ATOM     13  C   UNL     1      48.267   5.378  16.510  0.00  0.00    +0.000 A 
ATOM     14  H   UNL     1      46.963   2.523  15.530  0.00  0.00    +0.000 HD
ENDBRANCH   3   4
BRANCH   3  15
ATOM     15  N   UNL     1      49.580   6.627  14.014  0.00  0.00    +0.000 NA
ATOM     16  H   UNL     1      49.947   7.227  13.288  0.00  0.00    +0.000 HD
ATOM     17  H   UNL     1      48.933   5.987  13.557  0.00  0.00    +0.000 HD
ENDBRANCH   3  15
ENDBRANCH   1   3
BRANCH   1  18
ATOM     18  C   UNL     1      47.268   7.810  13.021  0.00  0.00    +0.000 C 
BRANCH  18  19
ATOM     19  C   UNL     1      46.232   6.997  12.285  0.00  0.00    +0.000 A 
ATOM     20  C   UNL     1      46.406   6.612  10.954  0.00  0.00    +0.000 A 
ATOM     21  C   UNL     1      45.523   5.705  10.373  0.00  0.00    +0.000 A 
ATOM     22  C   UNL     1      44.500   5.175  11.157  0.00  0.00    +0.000 A 
ATOM     23  N   UNL     1      44.242   5.617  12.417  0.00  0.00    +0.000 NA
ATOM     24  C   UNL     1      45.099   6.525  12.939  0.00  0.00    +0.000 A 
BRANCH  22  25
ATOM     25  C   UNL     1      43.722   3.946  10.691  0.00  0.00    +0.000 C 
BRANCH  25  26
ATOM     26  O   UNL     1      42.990   3.413  11.802  0.00  0.00    +0.000 OA
ATOM     27  H   UNL     1      43.343   3.891  12.581  0.00  0.00    +0.000 HD
ENDBRANCH  25  26
BRANCH  25  28
ATOM     28  C   UNL     1      44.743   2.894  10.155  0.00  0.00    +0.000 C 
BRANCH  28  29
ATOM     29  N   UNL     1      44.719   2.404   8.760  0.00  0.00    +0.000 NA
ATOM     30  C   UNL     1      45.791   1.477   8.407  0.00  0.00    +0.000 C 
ATOM     31  C   UNL     1      46.866   2.342   7.782  0.00  0.00    +0.000 C 
ATOM     32  C   UNL     1      46.067   3.372   7.010  0.00  0.00    +0.000 C 
ATOM     33  C   UNL     1      44.734   3.467   7.746  0.00  0.00    +0.000 C 
ENDBRANCH  28  29
ENDBRANCH  25  28
ENDBRANCH  22  25
ENDBRANCH  18  19
ENDBRANCH   1  18
TORSDOF 9
ENDMDL
MODEL 5
REMARK VINA RESULT:    -6.929      3.130      8.960
REMARK INTER + INTRA:         -10.884
REMARK INTER:                  -9.938
REMARK INTRA:                  -0.946
REMARK UNBOUND:                -0.715
REMARK  Name = 
REMARK  9 active torsions:
REMARK  status: ('A' for Active; 'I' for Inactive)
REMARK    1  A    between atoms: N_1  and  C_2
REMARK    2  A    between atoms: C_2  and  N_3
REMARK    3  A    between atoms: C_2  and  C_19
REMARK    4  A    between atoms: N_3  and  C_4
REMARK    5  A    between atoms: C_4  and  C_5
REMARK    6  A    between atoms: C_8  and  C_9
REMARK    7  A    between atoms: C_9  and  O_10
REMARK    8  A    between atoms: C_9  and  C_11
REMARK    9  A    between atoms: C_11  and  N_12
REMARK                            x       y       z     vdW  Elec       q    Type
REMARK                         _______ _______ _______ _____ _____    ______ ____
ROOT
ATOM      1  N   UNL     1      47.650   5.625  15.437  0.00  0.00    +0.000 NA
ATOM      2  H   UNL     1      47.630   4.603  15.385  0.00  0.00    +0.000 HD
ENDROOT
BRANCH   1   3
ATOM      3  C   UNL     1      48.095   6.059  14.129  0.00  0.00    +0.000 C 
BRANCH   3   4
ATOM      4  C   UNL     1      46.863   6.151  13.250  0.00  0.00    +0.000 A 
ATOM      5  C   UNL     1      46.313   7.318  12.736  0.00  0.00    +0.000 A 
ATOM      6  S   UNL     1      44.899   7.066  11.813  0.00  0.00    +0.000 S 
ATOM      7  C   UNL     1      44.982   5.384  12.042  0.00  0.00    +0.000 A 
ATOM      8  N   UNL     1      44.054   4.549  11.502  0.00  0.00    +0.000 NA
ATOM      9  C   UNL     1      44.254   3.299  11.762  0.00  0.00    +0.000 A 
ATOM     10  N   UNL     1      45.289   2.806  12.511  0.00  0.00    +0.000 N 
ATOM     11  C   UNL     1      46.223   3.621  13.113  0.00  0.00    +0.000 A 
ATOM     12  O   UNL     1      47.101   3.168  13.856  0.00  0.00    +0.000 OA
ATOM     13  C   UNL     1      46.064   5.029  12.818  0.00  0.00    +0.000 A 
ATOM     14  H   UNL     1      45.367   1.818  12.697  0.00  0.00    +0.000 HD
ENDBRANCH   3   4
BRANCH   3  15
ATOM     15  N   UNL     1      48.647   7.382  14.286  0.00  0.00    +0.000 NA
ATOM     16  H   UNL     1      49.628   7.311  14.521  0.00  0.00    +0.000 HD
ATOM     17  H   UNL     1      48.184   7.769  15.105  0.00  0.00    +0.000 HD
ENDBRANCH   3  15
ENDBRANCH   1   3
BRANCH   1  18
ATOM     18  C   UNL     1      48.550   5.956  16.533  0.00  0.00    +0.000 C 
BRANCH  18  19
ATOM     19  C   UNL     1      49.314   4.748  17.014  0.00  0.00    +0.000 A 
ATOM     20  C   UNL     1      48.749   3.471  17.015  0.00  0.00    +0.000 A 
ATOM     21  C   UNL     1      49.547   2.360  17.281  0.00  0.00    +0.000 A 
ATOM     22  C   UNL     1      50.908   2.555  17.507  0.00  0.00    +0.000 A 
ATOM     23  N   UNL     1      51.459   3.793  17.623  0.00  0.00    +0.000 NA
ATOM     24  C   UNL     1      50.648   4.852  17.392  0.00  0.00    +0.000 A 
BRANCH  22  25
ATOM     25  C   UNL     1      51.878   1.376  17.469  0.00  0.00    +0.000 C 
BRANCH  25  26
ATOM     26  O   UNL     1      51.280   0.264  18.148  0.00  0.00    +0.000 OA
ATOM     27  H   UNL     1      50.316   0.408  18.055  0.00  0.00    +0.000 HD
ENDBRANCH  25  26
BRANCH  25  28
ATOM     28  C   UNL     1      53.198   1.805  18.184  0.00  0.00    +0.000 C 
BRANCH  28  29
ATOM     29  N   UNL     1      54.461   1.051  18.037  0.00  0.00    +0.000 NA
ATOM     30  C   UNL     1      55.638   1.861  17.739  0.00  0.00    +0.000 C 
ATOM     31  C   UNL     1      55.772   1.817  16.231  0.00  0.00    +0.000 C 
ATOM     32  C   UNL     1      55.354   0.400  15.894  0.00  0.00    +0.000 C 
ATOM     33  C   UNL     1      54.415  -0.012  17.025  0.00  0.00    +0.000 C 
ENDBRANCH  28  29
ENDBRANCH  25  28
ENDBRANCH  22  25
ENDBRANCH  18  19
ENDBRANCH   1  18
TORSDOF 9
ENDMDL
MODEL 6
REMARK VINA RESULT:    -6.881      1.694      1.919
REMARK INTER + INTRA:         -10.815
REMARK INTER:                  -9.929
REMARK INTRA:                  -0.886
REMARK UNBOUND:                -0.715
REMARK  Name = 
REMARK  9 active torsions:
REMARK  status: ('A' for Active; 'I' for Inactive)
REMARK    1  A    between atoms: N_1  and  C_2
REMARK    2  A    between atoms: C_2  and  N_3
REMARK    3  A    between atoms: C_2  and  C_19
REMARK    4  A    between atoms: N_3  and  C_4
REMARK    5  A    between atoms: C_4  and  C_5
REMARK    6  A    between atoms: C_8  and  C_9
REMARK    7  A    between atoms: C_9  and  O_10
REMARK    8  A    between atoms: C_9  and  C_11
REMARK    9  A    between atoms: C_11  and  N_12
REMARK                            x       y       z     vdW  Elec       q    Type
REMARK                         _______ _______ _______ _____ _____    ______ ____
ROOT
ATOM      1  N   UNL     1      48.880   6.017  14.960  0.00  0.00    +0.000 NA
ATOM      2  H   UNL     1      48.396   5.115  14.929  0.00  0.00    +0.000 HD
ENDROOT
BRANCH   1   3
ATOM      3  C   UNL     1      48.845   6.414  16.353  0.00  0.00    +0.000 C 
BRANCH   3   4
ATOM      4  C   UNL     1      50.248   6.235  16.900  0.00  0.00    +0.000 A 
ATOM      5  C   UNL     1      51.191   7.240  17.070  0.00  0.00    +0.000 A 
ATOM      6  S   UNL     1      52.688   6.686  17.676  0.00  0.00    +0.000 S 
ATOM      7  C   UNL     1      52.124   5.085  17.760  0.00  0.00    +0.000 A 
ATOM      8  N   UNL     1      52.920   4.077  18.208  0.00  0.00    +0.000 NA
ATOM      9  C   UNL     1      52.350   2.918  18.216  0.00  0.00    +0.000 A 
ATOM     10  N   UNL     1      51.063   2.671  17.816  0.00  0.00    +0.000 N 
ATOM     11  C   UNL     1      50.240   3.655  17.314  0.00  0.00    +0.000 A 
ATOM     12  O   UNL     1      49.111   3.401  16.878  0.00  0.00    +0.000 OA
ATOM     13  C   UNL     1      50.823   4.980  17.322  0.00  0.00    +0.000 A 
ATOM     14  H   UNL     1      50.691   1.733  17.824  0.00  0.00    +0.000 HD
ENDBRANCH   3   4
BRANCH   3  15
ATOM     15  N   UNL     1      48.514   7.816  16.386  0.00  0.00    +0.000 NA
ATOM     16  H   UNL     1      47.526   7.925  16.569  0.00  0.00    +0.000 HD
ATOM     17  H   UNL     1      48.667   8.149  15.436  0.00  0.00    +0.000 HD
ENDBRANCH   3  15
ENDBRANCH   1   3
BRANCH   1  18
ATOM     18  C   UNL     1      48.157   6.896  14.052  0.00  0.00    +0.000 C 
BRANCH  18  19
ATOM     19  C   UNL     1      46.881   6.263  13.558  0.00  0.00    +0.000 A 
ATOM     20  C   UNL     1      45.933   6.985  12.829  0.00  0.00    +0.000 A 
ATOM     21  C   UNL     1      44.866   6.319  12.229  0.00  0.00    +0.000 A 
ATOM     22  C   UNL     1      44.795   4.933  12.345  0.00  0.00    +0.000 A 
ATOM     23  N   UNL     1      45.638   4.222  13.140  0.00  0.00    +0.000 NA
ATOM     24  C   UNL     1      46.644   4.904  13.737  0.00  0.00    +0.000 A 
BRANCH  22  25
ATOM     25  C   UNL     1      43.861   4.126  11.445  0.00  0.00    +0.000 C 
BRANCH  25  26
ATOM     26  O   UNL     1      42.935   3.405  12.268  0.00  0.00    +0.000 OA
ATOM     27  H   UNL     1      42.947   2.493  11.911  0.00  0.00    +0.000 HD
ENDBRANCH  25  26
BRANCH  25  28
ATOM     28  C   UNL     1      44.727   3.136  10.603  0.00  0.00    +0.000 C 
BRANCH  28  29
ATOM     29  N   UNL     1      44.414   2.809   9.196  0.00  0.00    +0.000 NA
ATOM     30  C   UNL     1      44.987   1.558   8.706  0.00  0.00    +0.000 C 
ATOM     31  C   UNL     1      46.279   1.958   8.025  0.00  0.00    +0.000 C 
ATOM     32  C   UNL     1      45.924   3.281   7.377  0.00  0.00    +0.000 C 
ATOM     33  C   UNL     1      44.798   3.850   8.234  0.00  0.00    +0.000 C 
ENDBRANCH  28  29
ENDBRANCH  25  28
ENDBRANCH  22  25
ENDBRANCH  18  19
ENDBRANCH   1  18
TORSDOF 9
ENDMDL
MODEL 7
REMARK VINA RESULT:    -6.878      2.666      3.740
REMARK INTER + INTRA:         -10.810
REMARK INTER:                 -10.131
REMARK INTRA:                  -0.679
REMARK UNBOUND:                -0.715
REMARK  Name = 
REMARK  9 active torsions:
REMARK  status: ('A' for Active; 'I' for Inactive)
REMARK    1  A    between atoms: N_1  and  C_2
REMARK    2  A    between atoms: C_2  and  N_3
REMARK    3  A    between atoms: C_2  and  C_19
REMARK    4  A    between atoms: N_3  and  C_4
REMARK    5  A    between atoms: C_4  and  C_5
REMARK    6  A    between atoms: C_8  and  C_9
REMARK    7  A    between atoms: C_9  and  O_10
REMARK    8  A    between atoms: C_9  and  C_11
REMARK    9  A    between atoms: C_11  and  N_12
REMARK                            x       y       z     vdW  Elec       q    Type
REMARK                         _______ _______ _______ _____ _____    ______ ____
ROOT
ATOM      1  N   UNL     1      47.893   6.458  15.347  0.00  0.00    +0.000 NA
ATOM      2  H   UNL     1      47.113   7.078  15.586  0.00  0.00    +0.000 HD
ENDROOT
BRANCH   1   3
ATOM      3  C   UNL     1      49.022   6.967  16.097  0.00  0.00    +0.000 C 
BRANCH   3   4
ATOM      4  C   UNL     1      48.924   6.385  17.494  0.00  0.00    +0.000 A 
ATOM      5  C   UNL     1      49.339   5.117  17.881  0.00  0.00    +0.000 A 
ATOM      6  S   UNL     1      49.047   4.767  19.526  0.00  0.00    +0.000 S 
ATOM      7  C   UNL     1      48.378   6.307  19.792  0.00  0.00    +0.000 A 
ATOM      8  N   UNL     1      47.918   6.676  21.018  0.00  0.00    +0.000 NA
ATOM      9  C   UNL     1      47.443   7.877  21.063  0.00  0.00    +0.000 A 
ATOM     10  N   UNL     1      47.379   8.739  20.000  0.00  0.00    +0.000 N 
ATOM     11  C   UNL     1      47.792   8.388  18.734  0.00  0.00    +0.000 A 
ATOM     12  O   UNL     1      47.650   9.147  17.768  0.00  0.00    +0.000 OA
ATOM     13  C   UNL     1      48.371   7.064  18.642  0.00  0.00    +0.000 A 
ATOM     14  H   UNL     1      46.968   9.654  20.103  0.00  0.00    +0.000 HD
ENDBRANCH   3   4
BRANCH   3  15
ATOM     15  N   UNL     1      50.214   6.455  15.469  0.00  0.00    +0.000 NA
ATOM     16  H   UNL     1      50.156   5.447  15.408  0.00  0.00    +0.000 HD
ATOM     17  H   UNL     1      50.968   6.658  16.122  0.00  0.00    +0.000 HD
ENDBRANCH   3  15
ENDBRANCH   1   3
BRANCH   1  18
ATOM     18  C   UNL     1      48.035   6.527  13.899  0.00  0.00    +0.000 C 
BRANCH  18  19
ATOM     19  C   UNL     1      46.798   6.035  13.191  0.00  0.00    +0.000 A 
ATOM     20  C   UNL     1      46.271   6.698  12.079  0.00  0.00    +0.000 A 
ATOM     21  C   UNL     1      45.248   6.107  11.341  0.00  0.00    +0.000 A 
ATOM     22  C   UNL     1      44.798   4.844  11.717  0.00  0.00    +0.000 A 
ATOM     23  N   UNL     1      45.214   4.229  12.857  0.00  0.00    +0.000 NA
ATOM     24  C   UNL     1      46.185   4.846  13.570  0.00  0.00    +0.000 A 
BRANCH  22  25
ATOM     25  C   UNL     1      43.935   4.013  10.769  0.00  0.00    +0.000 C 
BRANCH  25  26
ATOM     26  O   UNL     1      42.844   3.451  11.509  0.00  0.00    +0.000 OA
ATOM     27  H   UNL     1      42.052   3.917  11.171  0.00  0.00    +0.000 HD
ENDBRANCH  25  26
BRANCH  25  28
ATOM     28  C   UNL     1      44.824   2.882  10.163  0.00  0.00    +0.000 C 
BRANCH  28  29
ATOM     29  N   UNL     1      44.697   2.441   8.757  0.00  0.00    +0.000 NA
ATOM     30  C   UNL     1      45.617   1.381   8.352  0.00  0.00    +0.000 C 
ATOM     31  C   UNL     1      46.790   2.101   7.720  0.00  0.00    +0.000 C 
ATOM     32  C   UNL     1      46.129   3.257   6.997  0.00  0.00    +0.000 C 
ATOM     33  C   UNL     1      44.841   3.520   7.771  0.00  0.00    +0.000 C 
ENDBRANCH  28  29
ENDBRANCH  25  28
ENDBRANCH  22  25
ENDBRANCH  18  19
ENDBRANCH   1  18
TORSDOF 9
ENDMDL
MODEL 8
REMARK VINA RESULT:    -6.662      3.584      8.444
REMARK INTER + INTRA:         -10.493
REMARK INTER:                  -8.965
REMARK INTRA:                  -1.527
REMARK UNBOUND:                -0.715
REMARK  Name = 
REMARK  9 active torsions:
REMARK  status: ('A' for Active; 'I' for Inactive)
REMARK    1  A    between atoms: N_1  and  C_2
REMARK    2  A    between atoms: C_2  and  N_3
REMARK    3  A    between atoms: C_2  and  C_19
REMARK    4  A    between atoms: N_3  and  C_4
REMARK    5  A    between atoms: C_4  and  C_5
REMARK    6  A    between atoms: C_8  and  C_9
REMARK    7  A    between atoms: C_9  and  O_10
REMARK    8  A    between atoms: C_9  and  C_11
REMARK    9  A    between atoms: C_11  and  N_12
REMARK                            x       y       z     vdW  Elec       q    Type
REMARK                         _______ _______ _______ _____ _____    ______ ____
ROOT
ATOM      1  N   UNL     1      46.741   7.531  13.816  0.00  0.00    +0.000 NA
ATOM      2  H   UNL     1      46.645   7.027  14.703  0.00  0.00    +0.000 HD
ENDROOT
BRANCH   1   3
ATOM      3  C   UNL     1      46.953   6.502  12.819  0.00  0.00    +0.000 C 
BRANCH   3   4
ATOM      4  C   UNL     1      45.599   6.190  12.211  0.00  0.00    +0.000 A 
ATOM      5  C   UNL     1      44.746   7.104  11.608  0.00  0.00    +0.000 A 
ATOM      6  S   UNL     1      43.279   6.422  11.060  0.00  0.00    +0.000 S 
ATOM      7  C   UNL     1      43.740   4.872  11.585  0.00  0.00    +0.000 A 
ATOM      8  N   UNL     1      42.925   3.797  11.417  0.00  0.00    +0.000 NA
ATOM      9  C   UNL     1      43.415   2.688  11.864  0.00  0.00    +0.000 A 
ATOM     10  N   UNL     1      44.639   2.554  12.465  0.00  0.00    +0.000 N 
ATOM     11  C   UNL     1      45.474   3.624  12.695  0.00  0.00    +0.000 A 
ATOM     12  O   UNL     1      46.537   3.501  13.315  0.00  0.00    +0.000 OA
ATOM     13  C   UNL     1      44.985   4.884  12.175  0.00  0.00    +0.000 A 
ATOM     14  H   UNL     1      44.946   1.659  12.816  0.00  0.00    +0.000 HD
ENDBRANCH   3   4
BRANCH   3  15
ATOM     15  N   UNL     1      47.796   7.069  11.797  0.00  0.00    +0.000 NA
ATOM     16  H   UNL     1      47.219   7.481  11.075  0.00  0.00    +0.000 HD
ATOM     17  H   UNL     1      48.266   6.275  11.368  0.00  0.00    +0.000 HD
ENDBRANCH   3  15
ENDBRANCH   1   3
BRANCH   1  18
ATOM     18  C   UNL     1      47.855   8.454  13.994  0.00  0.00    +0.000 C 
BRANCH  18  19
ATOM     19  C   UNL     1      48.769   8.018  15.111  0.00  0.00    +0.000 A 
ATOM     20  C   UNL     1      48.585   8.452  16.426  0.00  0.00    +0.000 A 
ATOM     21  C   UNL     1      49.327   7.878  17.456  0.00  0.00    +0.000 A 
ATOM     22  C   UNL     1      50.216   6.850  17.145  0.00  0.00    +0.000 A 
ATOM     23  N   UNL     1      50.494   6.488  15.864  0.00  0.00    +0.000 NA
ATOM     24  C   UNL     1      49.780   7.091  14.884  0.00  0.00    +0.000 A 
BRANCH  22  25
ATOM     25  C   UNL     1      50.796   5.966  18.247  0.00  0.00    +0.000 C 
BRANCH  25  26
ATOM     26  O   UNL     1      52.186   6.279  18.407  0.00  0.00    +0.000 OA
ATOM     27  H   UNL     1      52.527   5.584  19.006  0.00  0.00    +0.000 HD
ENDBRANCH  25  26
BRANCH  25  28
ATOM     28  C   UNL     1      50.619   4.475  17.821  0.00  0.00    +0.000 C 
BRANCH  28  29
ATOM     29  N   UNL     1      49.379   3.715  18.090  0.00  0.00    +0.000 NA
ATOM     30  C   UNL     1      48.664   3.251  16.904  0.00  0.00    +0.000 C 
ATOM     31  C   UNL     1      47.616   4.311  16.637  0.00  0.00    +0.000 C 
ATOM     32  C   UNL     1      47.190   4.724  18.032  0.00  0.00    +0.000 C 
ATOM     33  C   UNL     1      48.399   4.432  18.916  0.00  0.00    +0.000 C 
ENDBRANCH  28  29
ENDBRANCH  25  28
ENDBRANCH  22  25
ENDBRANCH  18  19
ENDBRANCH   1  18
TORSDOF 9
ENDMDL
MODEL 9
REMARK VINA RESULT:    -6.619      2.127      2.853
REMARK INTER + INTRA:         -10.430
REMARK INTER:                  -9.496
REMARK INTRA:                  -0.934
REMARK UNBOUND:                -0.715
REMARK  Name = 
REMARK  9 active torsions:
REMARK  status: ('A' for Active; 'I' for Inactive)
REMARK    1  A    between atoms: N_1  and  C_2
REMARK    2  A    between atoms: C_2  and  N_3
REMARK    3  A    between atoms: C_2  and  C_19
REMARK    4  A    between atoms: N_3  and  C_4
REMARK    5  A    between atoms: C_4  and  C_5
REMARK    6  A    between atoms: C_8  and  C_9
REMARK    7  A    between atoms: C_9  and  O_10
REMARK    8  A    between atoms: C_9  and  C_11
REMARK    9  A    between atoms: C_11  and  N_12
REMARK                            x       y       z     vdW  Elec       q    Type
REMARK                         _______ _______ _______ _____ _____    ______ ____
ROOT
ATOM      1  N   UNL     1      50.002   5.740  16.248  0.00  0.00    +0.000 NA
ATOM      2  H   UNL     1      49.988   5.222  15.364  0.00  0.00    +0.000 HD
ENDROOT
BRANCH   1   3
ATOM      3  C   UNL     1      49.620   4.775  17.257  0.00  0.00    +0.000 C 
BRANCH   3   4
ATOM      4  C   UNL     1      50.898   4.298  17.920  0.00  0.00    +0.000 A 
ATOM      5  C   UNL     1      51.727   5.058  18.734  0.00  0.00    +0.000 A 
ATOM      6  S   UNL     1      53.107   4.220  19.288  0.00  0.00    +0.000 S 
ATOM      7  C   UNL     1      52.636   2.799  18.481  0.00  0.00    +0.000 A 
ATOM      8  N   UNL     1      53.390   1.668  18.542  0.00  0.00    +0.000 NA
ATOM      9  C   UNL     1      52.900   0.672  17.881  0.00  0.00    +0.000 A 
ATOM     10  N   UNL     1      51.733   0.701  17.164  0.00  0.00    +0.000 N 
ATOM     11  C   UNL     1      50.966   1.838  17.040  0.00  0.00    +0.000 A 
ATOM     12  O   UNL     1      49.961   1.872  16.320  0.00  0.00    +0.000 OA
ATOM     13  C   UNL     1      51.454   2.972  17.797  0.00  0.00    +0.000 A 
ATOM     14  H   UNL     1      51.425  -0.109  16.648  0.00  0.00    +0.000 HD
ENDBRANCH   3   4
BRANCH   3  15
ATOM     15  N   UNL     1      48.828   5.476  18.236  0.00  0.00    +0.000 NA
ATOM     16  H   UNL     1      48.090   5.987  17.769  0.00  0.00    +0.000 HD
ATOM     17  H   UNL     1      49.452   6.175  18.633  0.00  0.00    +0.000 HD
ENDBRANCH   3  15
ENDBRANCH   1   3
BRANCH   1  18
ATOM     18  C   UNL     1      49.077   6.852  16.078  0.00  0.00    +0.000 C 
BRANCH  18  19
ATOM     19  C   UNL     1      48.186   6.661  14.877  0.00  0.00    +0.000 A 
ATOM     20  C   UNL     1      47.534   5.451  14.627  0.00  0.00    +0.000 A 
ATOM     21  C   UNL     1      46.574   5.375  13.621  0.00  0.00    +0.000 A 
ATOM     22  C   UNL     1      46.263   6.531  12.907  0.00  0.00    +0.000 A 
ATOM     23  N   UNL     1      46.961   7.689  13.053  0.00  0.00    +0.000 NA
ATOM     24  C   UNL     1      47.911   7.719  14.017  0.00  0.00    +0.000 A 
BRANCH  22  25
ATOM     25  C   UNL     1      45.007   6.594  12.041  0.00  0.00    +0.000 C 
BRANCH  25  26
ATOM     26  O   UNL     1      44.514   7.940  12.040  0.00  0.00    +0.000 OA
ATOM     27  H   UNL     1      44.935   8.357  12.819  0.00  0.00    +0.000 HD
ENDBRANCH  25  26
BRANCH  25  28
ATOM     28  C   UNL     1      43.944   5.625  12.650  0.00  0.00    +0.000 C 
BRANCH  28  29
ATOM     29  N   UNL     1      43.329   4.531  11.868  0.00  0.00    +0.000 NA
ATOM     30  C   UNL     1      43.800   3.189  12.199  0.00  0.00    +0.000 C 
ATOM     31  C   UNL     1      44.898   2.901  11.196  0.00  0.00    +0.000 C 
ATOM     32  C   UNL     1      44.382   3.556   9.931  0.00  0.00    +0.000 C 
ATOM     33  C   UNL     1      43.466   4.677  10.413  0.00  0.00    +0.000 C 
ENDBRANCH  28  29
ENDBRANCH  25  28
ENDBRANCH  22  25
ENDBRANCH  18  19
ENDBRANCH   1  18
TORSDOF 9
ENDMDL
