MODEL 1
REMARK VINA RESULT:    -8.635      0.000      0.000
REMARK INTER + INTRA:         -14.250
REMARK INTER:                 -12.674
REMARK INTRA:                  -1.576
REMARK UNBOUND:                -1.576
REMARK  Name = 
REMARK  9 active torsions:
REMARK  status: ('A' for Active; 'I' for Inactive)
REMARK    1  A    between atoms: C_1  and  O_2
REMARK    2  A    between atoms: O_2  and  C_3
REMARK    3  A    between atoms: C_10  and  C_11
REMARK    4  A    between atoms: N_13  and  C_14
REMARK    5  A    between atoms: C_14  and  C_15
REMARK    6  A    between atoms: C_18  and  C_19
REMARK    7  A    between atoms: C_19  and  O_20
REMARK    8  A    between atoms: O_20  and  C_21
REMARK    9  A    between atoms: C_21  and  C_22
REMARK                            x       y       z     vdW  Elec       q    Type
REMARK                         _______ _______ _______ _____ _____    ______ ____
ROOT
ATOM      1  C   UNL     1      47.286   8.144  13.286  0.00  0.00    +0.000 C 
ENDROOT
BRANCH   1   2
ATOM      2  C   UNL     1      46.318   7.314  12.478  0.00  0.00    +0.000 A 
ATOM      3  C   UNL     1      44.989   7.162  12.894  0.00  0.00    +0.000 A 
ATOM      4  C   UNL     1      44.110   6.335  12.186  0.00  0.00    +0.000 A 
ATOM      5  C   UNL     1      44.542   5.630  11.055  0.00  0.00    +0.000 A 
ATOM      6  C   UNL     1      45.867   5.795  10.630  0.00  0.00    +0.000 A 
ATOM      7  C   UNL     1      46.745   6.626  11.335  0.00  0.00    +0.000 A 
BRANCH   5   8
ATOM      8  C   UNL     1      43.610   4.687  10.333  0.00  0.00    +0.000 C 
BRANCH   8   9
ATOM      9  O   UNL     1      44.237   4.233   9.139  0.00  0.00    +0.000 OA
BRANCH   9  10
ATOM     10  C   UNL     1      44.480   2.827   9.164  0.00  0.00    +0.000 C 
BRANCH  10  11
ATOM     11  C   UNL     1      45.549   2.478   8.157  0.00  0.00    +0.000 A 
ATOM     12  C   UNL     1      46.259   1.268   8.246  0.00  0.00    +0.000 A 
ATOM     13  C   UNL     1      47.226   0.931   7.297  0.00  0.00    +0.000 A 
ATOM     14  C   UNL     1      47.488   1.793   6.236  0.00  0.00    +0.000 A 
ATOM     15  C   UNL     1      46.777   2.984   6.134  0.00  0.00    +0.000 A 
ATOM     16  F   UNL     1      47.023   3.811   5.110  0.00  0.00    +0.000 F 
ATOM     17  C   UNL     1      45.812   3.331   7.076  0.00  0.00    +0.000 A 
ENDBRANCH  10  11
ENDBRANCH   9  10
ENDBRANCH   8   9
ENDBRANCH   5   8
ENDBRANCH   1   2
BRANCH   1  20
ATOM     18  C   UNL     1      48.839   6.916  14.765  0.00  0.00    +0.000 C 
ATOM     19  O   UNL     1      49.735   6.964  13.926  0.00  0.00    +0.000 OA
ATOM     20  N   UNL     1      47.615   7.481  14.526  0.00  0.00    +0.000 N 
ATOM     21  H   UNL     1      46.915   7.490  15.254  0.00  0.00    +0.000 HD
BRANCH  18  29
ATOM     22  C   UNL     1      47.290   4.231  16.275  0.00  0.00    +0.000 A 
ATOM     23  N   UNL     1      46.936   3.174  17.034  0.00  0.00    +0.000 NA
ATOM     24  C   UNL     1      47.616   2.954  18.162  0.00  0.00    +0.000 A 
ATOM     25  N   UNL     1      48.618   3.680  18.647  0.00  0.00    +0.000 NA
ATOM     26  C   UNL     1      48.946   4.718  17.859  0.00  0.00    +0.000 A 
ATOM     27  S   UNL     1      50.193   5.767  18.330  0.00  0.00    +0.000 S 
ATOM     28  C   UNL     1      50.017   6.692  16.916  0.00  0.00    +0.000 A 
ATOM     29  C   UNL     1      49.028   6.227  16.057  0.00  0.00    +0.000 A 
ATOM     30  C   UNL     1      48.359   5.067  16.644  0.00  0.00    +0.000 A 
BRANCH  22  32
ATOM     31  C   UNL     1      46.979   3.754  13.992  0.00  0.00    +0.000 C 
ATOM     32  O   UNL     1      46.561   4.496  15.134  0.00  0.00    +0.000 OA
ENDBRANCH  22  32
ENDBRANCH  18  29
ENDBRANCH   1  20
TORSDOF 8
ENDMDL
MODEL 2
REMARK VINA RESULT:    -8.172      1.970      2.547
REMARK INTER + INTRA:         -13.569
REMARK INTER:                 -12.271
REMARK INTRA:                  -1.298
REMARK UNBOUND:                -1.576
REMARK  Name = 
REMARK  9 active torsions:
REMARK  status: ('A' for Active; 'I' for Inactive)
REMARK    1  A    between atoms: C_1  and  O_2
REMARK    2  A    between atoms: O_2  and  C_3
REMARK    3  A    between atoms: C_10  and  C_11
REMARK    4  A    between atoms: N_13  and  C_14
REMARK    5  A    between atoms: C_14  and  C_15
REMARK    6  A    between atoms: C_18  and  C_19
REMARK    7  A    between atoms: C_19  and  O_20
REMARK    8  A    between atoms: O_20  and  C_21
REMARK    9  A    between atoms: C_21  and  C_22
REMARK                            x       y       z     vdW  Elec       q    Type
REMARK                         _______ _______ _______ _____ _____    ______ ____
ROOT
ATOM      1  C   UNL     1      48.436   6.633  13.709  0.00  0.00    +0.000 C 
ENDROOT
BRANCH   1   2
ATOM      2  C   UNL     1      47.185   6.160  13.011  0.00  0.00    +0.000 A 
ATOM      3  C   UNL     1      46.867   6.623  11.727  0.00  0.00    +0.000 A 
ATOM      4  C   UNL     1      45.672   6.242  11.107  0.00  0.00    +0.000 A 
ATOM      5  C   UNL     1      44.761   5.401  11.760  0.00  0.00    +0.000 A 
ATOM      6  C   UNL     1      45.088   4.925  13.037  0.00  0.00    +0.000 A 
ATOM      7  C   UNL     1      46.285   5.302  13.655  0.00  0.00    +0.000 A 
BRANCH   5   8
ATOM      8  C   UNL     1      43.443   5.046  11.116  0.00  0.00    +0.000 C 
BRANCH   8   9
ATOM      9  O   UNL     1      43.687   4.486   9.830  0.00  0.00    +0.000 OA
BRANCH   9  10
ATOM     10  C   UNL     1      44.112   3.126   9.909  0.00  0.00    +0.000 C 
BRANCH  10  11
ATOM     11  C   UNL     1      45.152   2.857   8.850  0.00  0.00    +0.000 A 
ATOM     12  C   UNL     1      45.688   3.904   8.079  0.00  0.00    +0.000 A 
ATOM     13  C   UNL     1      46.672   3.660   7.120  0.00  0.00    +0.000 A 
ATOM     14  C   UNL     1      47.147   2.365   6.927  0.00  0.00    +0.000 A 
ATOM     15  C   UNL     1      46.632   1.328   7.697  0.00  0.00    +0.000 A 
ATOM     16  F   UNL     1      47.093   0.083   7.516  0.00  0.00    +0.000 F 
ATOM     17  C   UNL     1      45.649   1.561   8.654  0.00  0.00    +0.000 A 
ENDBRANCH  10  11
ENDBRANCH   9  10
ENDBRANCH   8   9
ENDBRANCH   5   8
ENDBRANCH   1   2
BRANCH   1  20
ATOM     18  C   UNL     1      49.103   6.700  16.088  0.00  0.00    +0.000 C 
ATOM     19  O   UNL     1      50.233   6.296  15.822  0.00  0.00    +0.000 OA
ATOM     20  N   UNL     1      48.172   6.898  15.105  0.00  0.00    +0.000 N 
ATOM     21  H   UNL     1      47.272   7.295  15.336  0.00  0.00    +0.000 HD
BRANCH  18  29
ATOM     22  C   UNL     1      48.830   4.726  18.902  0.00  0.00    +0.000 A 
ATOM     23  N   UNL     1      48.730   4.220  20.148  0.00  0.00    +0.000 NA
ATOM     24  C   UNL     1      48.398   5.050  21.139  0.00  0.00    +0.000 A 
ATOM     25  N   UNL     1      48.132   6.348  21.040  0.00  0.00    +0.000 NA
ATOM     26  C   UNL     1      48.251   6.817  19.786  0.00  0.00    +0.000 A 
ATOM     27  S   UNL     1      47.929   8.451  19.467  0.00  0.00    +0.000 S 
ATOM     28  C   UNL     1      48.304   8.256  17.822  0.00  0.00    +0.000 A 
ATOM     29  C   UNL     1      48.688   6.965  17.480  0.00  0.00    +0.000 A 
ATOM     30  C   UNL     1      48.615   6.093  18.652  0.00  0.00    +0.000 A 
BRANCH  22  32
ATOM     31  C   UNL     1      48.007   3.121  17.392  0.00  0.00    +0.000 C 
ATOM     32  O   UNL     1      49.125   3.867  17.864  0.00  0.00    +0.000 OA
ENDBRANCH  22  32
ENDBRANCH  18  29
ENDBRANCH   1  20
TORSDOF 8
ENDMDL
MODEL 3
REMARK VINA RESULT:    -7.814      2.004      2.755
REMARK INTER + INTRA:         -13.045
REMARK INTER:                 -11.914
REMARK INTRA:                  -1.130
REMARK UNBOUND:                -1.576
REMARK  Name = 
REMARK  9 active torsions:
REMARK  status: ('A' for Active; 'I' for Inactive)
REMARK    1  A    between atoms: C_1  and  O_2
REMARK    2  A    between atoms: O_2  and  C_3
REMARK    3  A    between atoms: C_10  and  C_11
REMARK    4  A    between atoms: N_13  and  C_14
REMARK    5  A    between atoms: C_14  and  C_15
REMARK    6  A    between atoms: C_18  and  C_19
REMARK    7  A    between atoms: C_19  and  O_20
REMARK    8  A    between atoms: O_20  and  C_21
REMARK    9  A    between atoms: C_21  and  C_22
REMARK                            x       y       z     vdW  Elec       q    Type
REMARK                         _______ _______ _______ _____ _____    ______ ____
ROOT
ATOM      1  C   UNL     1      47.978   6.773  13.718  0.00  0.00    +0.000 C 
ENDROOT
BRANCH   1   2
ATOM      2  C   UNL     1      46.895   6.122  12.893  0.00  0.00    +0.000 A 
ATOM      3  C   UNL     1      46.704   6.485  11.553  0.00  0.00    +0.000 A 
ATOM      4  C   UNL     1      45.655   5.936  10.807  0.00  0.00    +0.000 A 
ATOM      5  C   UNL     1      44.765   5.021  11.386  0.00  0.00    +0.000 A 
ATOM      6  C   UNL     1      44.967   4.645  12.721  0.00  0.00    +0.000 A 
ATOM      7  C   UNL     1      46.019   5.191  13.465  0.00  0.00    +0.000 A 
BRANCH   5   8
ATOM      8  C   UNL     1      43.596   4.481  10.599  0.00  0.00    +0.000 C 
BRANCH   8   9
ATOM      9  O   UNL     1      44.055   4.029   9.330  0.00  0.00    +0.000 OA
BRANCH   9  10
ATOM     10  C   UNL     1      44.492   2.671   9.371  0.00  0.00    +0.000 C 
BRANCH  10  11
ATOM     11  C   UNL     1      45.530   2.439   8.301  0.00  0.00    +0.000 A 
ATOM     12  C   UNL     1      46.254   1.234   8.246  0.00  0.00    +0.000 A 
ATOM     13  C   UNL     1      47.193   1.006   7.239  0.00  0.00    +0.000 A 
ATOM     14  C   UNL     1      47.413   1.974   6.262  0.00  0.00    +0.000 A 
ATOM     15  C   UNL     1      46.689   3.160   6.303  0.00  0.00    +0.000 A 
ATOM     16  F   UNL     1      46.894   4.088   5.359  0.00  0.00    +0.000 F 
ATOM     17  C   UNL     1      45.751   3.398   7.304  0.00  0.00    +0.000 A 
ENDBRANCH  10  11
ENDBRANCH   9  10
ENDBRANCH   8   9
ENDBRANCH   5   8
ENDBRANCH   1   2
BRANCH   1  20
ATOM     18  C   UNL     1      48.991   6.286  15.918  0.00  0.00    +0.000 C 
ATOM     19  O   UNL     1      50.104   6.627  15.524  0.00  0.00    +0.000 OA
ATOM     20  N   UNL     1      47.900   6.339  15.094  0.00  0.00    +0.000 N 
ATOM     21  H   UNL     1      46.984   6.120  15.457  0.00  0.00    +0.000 HD
BRANCH  18  29
ATOM     22  C   UNL     1      48.017   7.766  18.876  0.00  0.00    +0.000 A 
ATOM     23  N   UNL     1      47.573   8.061  20.115  0.00  0.00    +0.000 NA
ATOM     24  C   UNL     1      47.468   7.065  20.998  0.00  0.00    +0.000 A 
ATOM     25  N   UNL     1      47.772   5.786  20.803  0.00  0.00    +0.000 NA
ATOM     26  C   UNL     1      48.202   5.532  19.555  0.00  0.00    +0.000 A 
ATOM     27  S   UNL     1      48.654   3.953  19.129  0.00  0.00    +0.000 S 
ATOM     28  C   UNL     1      49.007   4.429  17.537  0.00  0.00    +0.000 A 
ATOM     29  C   UNL     1      48.783   5.779  17.289  0.00  0.00    +0.000 A 
ATOM     30  C   UNL     1      48.339   6.447  18.513  0.00  0.00    +0.000 A 
BRANCH  22  32
ATOM     31  C   UNL     1      49.260   9.670  18.271  0.00  0.00    +0.000 C 
ATOM     32  O   UNL     1      48.176   8.796  17.972  0.00  0.00    +0.000 OA
ENDBRANCH  22  32
ENDBRANCH  18  29
ENDBRANCH   1  20
TORSDOF 8
ENDMDL
MODEL 4
REMARK VINA RESULT:    -7.721      2.109      2.593
REMARK INTER + INTRA:         -12.907
REMARK INTER:                 -11.797
REMARK INTRA:                  -1.110
REMARK UNBOUND:                -1.576
REMARK  Name = 
REMARK  9 active torsions:
REMARK  status: ('A' for Active; 'I' for Inactive)
REMARK    1  A    between atoms: C_1  and  O_2
REMARK    2  A    between atoms: O_2  and  C_3
REMARK    3  A    between atoms: C_10  and  C_11
REMARK    4  A    between atoms: N_13  and  C_14
REMARK    5  A    between atoms: C_14  and  C_15
REMARK    6  A    between atoms: C_18  and  C_19
REMARK    7  A    between atoms: C_19  and  O_20
REMARK    8  A    between atoms: O_20  and  C_21
REMARK    9  A    between atoms: C_21  and  C_22
REMARK                            x       y       z     vdW  Elec       q    Type
REMARK                         _______ _______ _______ _____ _____    ______ ____
ROOT
ATOM      1  C   UNL     1      48.451   7.527  14.879  0.00  0.00    +0.000 C 
ENDROOT
BRANCH   1   2
ATOM      2  C   UNL     1      47.565   6.874  13.847  0.00  0.00    +0.000 A 
ATOM      3  C   UNL     1      47.115   7.596  12.734  0.00  0.00    +0.000 A 
ATOM      4  C   UNL     1      46.235   7.015  11.814  0.00  0.00    +0.000 A 
ATOM      5  C   UNL     1      45.773   5.704  11.993  0.00  0.00    +0.000 A 
ATOM      6  C   UNL     1      46.236   4.977  13.098  0.00  0.00    +0.000 A 
ATOM      7  C   UNL     1      47.120   5.556  14.015  0.00  0.00    +0.000 A 
BRANCH   5   8
ATOM      8  C   UNL     1      44.772   5.104  11.036  0.00  0.00    +0.000 C 
BRANCH   8   9
ATOM      9  O   UNL     1      45.443   4.712   9.843  0.00  0.00    +0.000 OA
BRANCH   9  10
ATOM     10  C   UNL     1      44.748   3.672   9.155  0.00  0.00    +0.000 C 
BRANCH  10  11
ATOM     11  C   UNL     1      45.710   2.914   8.275  0.00  0.00    +0.000 A 
ATOM     12  C   UNL     1      46.544   3.588   7.366  0.00  0.00    +0.000 A 
ATOM     13  C   UNL     1      47.456   2.890   6.572  0.00  0.00    +0.000 A 
ATOM     14  C   UNL     1      47.559   1.506   6.688  0.00  0.00    +0.000 A 
ATOM     15  C   UNL     1      46.748   0.836   7.597  0.00  0.00    +0.000 A 
ATOM     16  F   UNL     1      46.852  -0.495   7.713  0.00  0.00    +0.000 F 
ATOM     17  C   UNL     1      45.834   1.522   8.391  0.00  0.00    +0.000 A 
ENDBRANCH  10  11
ENDBRANCH   9  10
ENDBRANCH   8   9
ENDBRANCH   5   8
ENDBRANCH   1   2
BRANCH   1  20
ATOM     18  C   UNL     1      49.632   6.567  16.826  0.00  0.00    +0.000 C 
ATOM     19  O   UNL     1      49.160   7.416  17.579  0.00  0.00    +0.000 OA
ATOM     20  N   UNL     1      49.323   6.552  15.493  0.00  0.00    +0.000 N 
ATOM     21  H   UNL     1      49.667   5.806  14.905  0.00  0.00    +0.000 HD
BRANCH  18  29
ATOM     22  C   UNL     1      49.640   3.120  16.750  0.00  0.00    +0.000 A 
ATOM     23  N   UNL     1      49.940   1.805  16.772  0.00  0.00    +0.000 NA
ATOM     24  C   UNL     1      51.114   1.436  17.289  0.00  0.00    +0.000 A 
ATOM     25  N   UNL     1      52.042   2.230  17.813  0.00  0.00    +0.000 NA
ATOM     26  C   UNL     1      51.711   3.532  17.765  0.00  0.00    +0.000 A 
ATOM     27  S   UNL     1      52.770   4.691  18.407  0.00  0.00    +0.000 S 
ATOM     28  C   UNL     1      51.730   5.959  17.964  0.00  0.00    +0.000 A 
ATOM     29  C   UNL     1      50.573   5.541  17.317  0.00  0.00    +0.000 A 
ATOM     30  C   UNL     1      50.545   4.080  17.236  0.00  0.00    +0.000 A 
BRANCH  22  32
ATOM     31  C   UNL     1      47.355   3.427  17.219  0.00  0.00    +0.000 C 
ATOM     32  O   UNL     1      48.408   3.506  16.264  0.00  0.00    +0.000 OA
ENDBRANCH  22  32
ENDBRANCH  18  29
ENDBRANCH   1  20
TORSDOF 8
ENDMDL
MODEL 5
REMARK VINA RESULT:    -7.434      2.743      3.630
REMARK INTER + INTRA:         -12.487
REMARK INTER:                 -11.467
REMARK INTRA:                  -1.019
REMARK UNBOUND:                -1.576
REMARK  Name = 
REMARK  9 active torsions:
REMARK  status: ('A' for Active; 'I' for Inactive)
REMARK    1  A    between atoms: C_1  and  O_2
REMARK    2  A    between atoms: O_2  and  C_3
REMARK    3  A    between atoms: C_10  and  C_11
REMARK    4  A    between atoms: N_13  and  C_14
REMARK    5  A    between atoms: C_14  and  C_15
REMARK    6  A    between atoms: C_18  and  C_19
REMARK    7  A    between atoms: C_19  and  O_20
REMARK    8  A    between atoms: O_20  and  C_21
REMARK    9  A    between atoms: C_21  and  C_22
REMARK                            x       y       z     vdW  Elec       q    Type
REMARK                         _______ _______ _______ _____ _____    ______ ____
ROOT
ATOM      1  C   UNL     1      48.910   6.993  14.235  0.00  0.00    +0.000 C 
ENDROOT
BRANCH   1   2
ATOM      2  C   UNL     1      47.721   6.510  13.441  0.00  0.00    +0.000 A 
ATOM      3  C   UNL     1      46.895   5.493  13.939  0.00  0.00    +0.000 A 
ATOM      4  C   UNL     1      45.835   4.995  13.173  0.00  0.00    +0.000 A 
ATOM      5  C   UNL     1      45.585   5.491  11.887  0.00  0.00    +0.000 A 
ATOM      6  C   UNL     1      46.401   6.519  11.395  0.00  0.00    +0.000 A 
ATOM      7  C   UNL     1      47.457   7.021  12.163  0.00  0.00    +0.000 A 
BRANCH   5   8
ATOM      8  C   UNL     1      44.483   4.904  11.037  0.00  0.00    +0.000 C 
BRANCH   8   9
ATOM      9  O   UNL     1      44.930   3.676  10.475  0.00  0.00    +0.000 OA
BRANCH   9  10
ATOM     10  C   UNL     1      44.474   3.504   9.133  0.00  0.00    +0.000 C 
BRANCH  10  11
ATOM     11  C   UNL     1      45.546   2.830   8.314  0.00  0.00    +0.000 A 
ATOM     12  C   UNL     1      46.432   3.582   7.523  0.00  0.00    +0.000 A 
ATOM     13  C   UNL     1      47.444   2.962   6.788  0.00  0.00    +0.000 A 
ATOM     14  C   UNL     1      47.596   1.579   6.846  0.00  0.00    +0.000 A 
ATOM     15  C   UNL     1      46.733   0.831   7.640  0.00  0.00    +0.000 A 
ATOM     16  F   UNL     1      46.883  -0.498   7.701  0.00  0.00    +0.000 F 
ATOM     17  C   UNL     1      45.719   1.440   8.374  0.00  0.00    +0.000 A 
ENDBRANCH  10  11
ENDBRANCH   9  10
ENDBRANCH   8   9
ENDBRANCH   5   8
ENDBRANCH   1   2
BRANCH   1  20
ATOM     18  C   UNL     1      48.918   6.313  16.611  0.00  0.00    +0.000 C 
ATOM     19  O   UNL     1      49.593   5.317  16.362  0.00  0.00    +0.000 OA
ATOM     20  N   UNL     1      48.553   7.185  15.622  0.00  0.00    +0.000 N 
ATOM     21  H   UNL     1      48.056   8.033  15.856  0.00  0.00    +0.000 HD
BRANCH  18  29
ATOM     22  C   UNL     1      48.200   9.226  18.310  0.00  0.00    +0.000 A 
ATOM     23  N   UNL     1      47.765  10.181  19.158  0.00  0.00    +0.000 NA
ATOM     24  C   UNL     1      47.283   9.797  20.342  0.00  0.00    +0.000 A 
ATOM     25  N   UNL     1      47.192   8.555  20.805  0.00  0.00    +0.000 NA
ATOM     26  C   UNL     1      47.627   7.632  19.928  0.00  0.00    +0.000 A 
ATOM     27  S   UNL     1      47.604   5.992  20.357  0.00  0.00    +0.000 S 
ATOM     28  C   UNL     1      48.221   5.535  18.842  0.00  0.00    +0.000 A 
ATOM     29  C   UNL     1      48.447   6.602  17.979  0.00  0.00    +0.000 A 
ATOM     30  C   UNL     1      48.129   7.863  18.649  0.00  0.00    +0.000 A 
BRANCH  22  32
ATOM     31  C   UNL     1      48.688  11.019  16.866  0.00  0.00    +0.000 C 
ATOM     32  O   UNL     1      48.746   9.616  17.104  0.00  0.00    +0.000 OA
ENDBRANCH  22  32
ENDBRANCH  18  29
ENDBRANCH   1  20
TORSDOF 8
ENDMDL
MODEL 6
REMARK VINA RESULT:    -6.872      2.243      3.038
REMARK INTER + INTRA:         -11.662
REMARK INTER:                 -10.359
REMARK INTRA:                  -1.302
REMARK UNBOUND:                -1.576
REMARK  Name = 
REMARK  9 active torsions:
REMARK  status: ('A' for Active; 'I' for Inactive)
REMARK    1  A    between atoms: C_1  and  O_2
REMARK    2  A    between atoms: O_2  and  C_3
REMARK    3  A    between atoms: C_10  and  C_11
REMARK    4  A    between atoms: N_13  and  C_14
REMARK    5  A    between atoms: C_14  and  C_15
REMARK    6  A    between atoms: C_18  and  C_19
REMARK    7  A    between atoms: C_19  and  O_20
REMARK    8  A    between atoms: O_20  and  C_21
REMARK    9  A    between atoms: C_21  and  C_22
REMARK                            x       y       z     vdW  Elec       q    Type
REMARK                         _______ _______ _______ _____ _____    ______ ____
ROOT
ATOM      1  C   UNL     1      49.503   7.825  13.322  0.00  0.00    +0.000 C 
ENDROOT
BRANCH   1   2
ATOM      2  C   UNL     1      48.314   7.009  12.877  0.00  0.00    +0.000 A 
ATOM      3  C   UNL     1      47.692   7.267  11.648  0.00  0.00    +0.000 A 
ATOM      4  C   UNL     1      46.546   6.560  11.266  0.00  0.00    +0.000 A 
ATOM      5  C   UNL     1      45.988   5.589  12.108  0.00  0.00    +0.000 A 
ATOM      6  C   UNL     1      46.622   5.319  13.330  0.00  0.00    +0.000 A 
ATOM      7  C   UNL     1      47.770   6.022  13.709  0.00  0.00    +0.000 A 
BRANCH   5   8
ATOM      8  C   UNL     1      44.715   4.876  11.723  0.00  0.00    +0.000 C 
BRANCH   8   9
ATOM      9  O   UNL     1      45.024   3.541  11.339  0.00  0.00    +0.000 OA
BRANCH   9  10
ATOM     10  C   UNL     1      44.258   3.117  10.212  0.00  0.00    +0.000 C 
BRANCH  10  11
ATOM     11  C   UNL     1      45.170   2.901   9.029  0.00  0.00    +0.000 A 
ATOM     12  C   UNL     1      45.613   3.985   8.251  0.00  0.00    +0.000 A 
ATOM     13  C   UNL     1      46.482   3.790   7.175  0.00  0.00    +0.000 A 
ATOM     14  C   UNL     1      46.932   2.508   6.871  0.00  0.00    +0.000 A 
ATOM     15  C   UNL     1      46.509   1.434   7.647  0.00  0.00    +0.000 A 
ATOM     16  F   UNL     1      46.948   0.202   7.359  0.00  0.00    +0.000 F 
ATOM     17  C   UNL     1      45.642   1.618   8.720  0.00  0.00    +0.000 A 
ENDBRANCH  10  11
ENDBRANCH   9  10
ENDBRANCH   8   9
ENDBRANCH   5   8
ENDBRANCH   1   2
BRANCH   1  20
ATOM     18  C   UNL     1      51.375   7.631  14.924  0.00  0.00    +0.000 C 
ATOM     19  O   UNL     1      51.902   8.652  14.489  0.00  0.00    +0.000 OA
ATOM     20  N   UNL     1      50.194   7.170  14.409  0.00  0.00    +0.000 N 
ATOM     21  H   UNL     1      49.742   6.368  14.825  0.00  0.00    +0.000 HD
BRANCH  18  29
ATOM     22  C   UNL     1      50.135   5.985  17.689  0.00  0.00    +0.000 A 
ATOM     23  N   UNL     1      49.915   5.195  18.760  0.00  0.00    +0.000 NA
ATOM     24  C   UNL     1      50.962   4.573  19.307  0.00  0.00    +0.000 A 
ATOM     25  N   UNL     1      52.231   4.652  18.922  0.00  0.00    +0.000 NA
ATOM     26  C   UNL     1      52.408   5.442  17.848  0.00  0.00    +0.000 A 
ATOM     27  S   UNL     1      53.970   5.676  17.229  0.00  0.00    +0.000 S 
ATOM     28  C   UNL     1      53.380   6.672  15.984  0.00  0.00    +0.000 A 
ATOM     29  C   UNL     1      52.000   6.840  16.002  0.00  0.00    +0.000 A 
ATOM     30  C   UNL     1      51.424   6.134  17.147  0.00  0.00    +0.000 A 
BRANCH  22  32
ATOM     31  C   UNL     1      48.146   7.169  18.112  0.00  0.00    +0.000 C 
ATOM     32  O   UNL     1      49.068   6.672  17.147  0.00  0.00    +0.000 OA
ENDBRANCH  22  32
ENDBRANCH  18  29
ENDBRANCH   1  20
TORSDOF 8
ENDMDL
MODEL 7
REMARK VINA RESULT:    -6.845      3.451      4.966
REMARK INTER + INTRA:         -11.622
REMARK INTER:                 -10.494
REMARK INTRA:                  -1.128
REMARK UNBOUND:                -1.576
REMARK  Name = 
REMARK  9 active torsions:
REMARK  status: ('A' for Active; 'I' for Inactive)
REMARK    1  A    between atoms: C_1  and  O_2
REMARK    2  A    between atoms: O_2  and  C_3
REMARK    3  A    between atoms: C_10  and  C_11
REMARK    4  A    between atoms: N_13  and  C_14
REMARK    5  A    between atoms: C_14  and  C_15
REMARK    6  A    between atoms: C_18  and  C_19
REMARK    7  A    between atoms: C_19  and  O_20
REMARK    8  A    between atoms: O_20  and  C_21
REMARK    9  A    between atoms: C_21  and  C_22
REMARK                            x       y       z     vdW  Elec       q    Type
REMARK                         _______ _______ _______ _____ _____    ______ ____
ROOT
ATOM      1  C   UNL     1      48.031   6.403  14.080  0.00  0.00    +0.000 C 
ENDROOT
BRANCH   1   2
ATOM      2  C   UNL     1      46.944   5.925  13.148  0.00  0.00    +0.000 A 
ATOM      3  C   UNL     1      46.861   6.417  11.839  0.00  0.00    +0.000 A 
ATOM      4  C   UNL     1      45.812   6.031  10.997  0.00  0.00    +0.000 A 
ATOM      5  C   UNL     1      44.815   5.155  11.448  0.00  0.00    +0.000 A 
ATOM      6  C   UNL     1      44.908   4.651  12.752  0.00  0.00    +0.000 A 
ATOM      7  C   UNL     1      45.960   5.033  13.592  0.00  0.00    +0.000 A 
BRANCH   5   8
ATOM      8  C   UNL     1      43.649   4.794  10.560  0.00  0.00    +0.000 C 
BRANCH   8   9
ATOM      9  O   UNL     1      44.142   4.273   9.331  0.00  0.00    +0.000 OA
BRANCH   9  10
ATOM     10  C   UNL     1      44.494   2.894   9.436  0.00  0.00    +0.000 C 
BRANCH  10  11
ATOM     11  C   UNL     1      45.501   2.543   8.369  0.00  0.00    +0.000 A 
ATOM     12  C   UNL     1      46.150   1.296   8.369  0.00  0.00    +0.000 A 
ATOM     13  C   UNL     1      47.059   0.958   7.365  0.00  0.00    +0.000 A 
ATOM     14  C   UNL     1      47.322   1.859   6.336  0.00  0.00    +0.000 A 
ATOM     15  C   UNL     1      46.671   3.088   6.322  0.00  0.00    +0.000 A 
ATOM     16  F   UNL     1      46.919   3.951   5.329  0.00  0.00    +0.000 F 
ATOM     17  C   UNL     1      45.764   3.434   7.320  0.00  0.00    +0.000 A 
ENDBRANCH  10  11
ENDBRANCH   9  10
ENDBRANCH   8   9
ENDBRANCH   5   8
ENDBRANCH   1   2
BRANCH   1  20
ATOM     18  C   UNL     1      49.850   8.008  13.609  0.00  0.00    +0.000 C 
ATOM     19  O   UNL     1      49.497   8.737  14.532  0.00  0.00    +0.000 OA
ATOM     20  N   UNL     1      49.187   6.843  13.333  0.00  0.00    +0.000 N 
ATOM     21  H   UNL     1      49.534   6.224  12.614  0.00  0.00    +0.000 HD
BRANCH  18  29
ATOM     22  C   UNL     1      53.226   8.434  14.165  0.00  0.00    +0.000 A 
ATOM     23  N   UNL     1      54.566   8.564  14.083  0.00  0.00    +0.000 NA
ATOM     24  C   UNL     1      55.103   8.786  12.882  0.00  0.00    +0.000 A 
ATOM     25  N   UNL     1      54.458   8.913  11.727  0.00  0.00    +0.000 NA
ATOM     26  C   UNL     1      53.127   8.769  11.849  0.00  0.00    +0.000 A 
ATOM     27  S   UNL     1      52.138   8.920  10.479  0.00  0.00    +0.000 S 
ATOM     28  C   UNL     1      50.741   8.601  11.390  0.00  0.00    +0.000 A 
ATOM     29  C   UNL     1      50.987   8.364  12.738  0.00  0.00    +0.000 A 
ATOM     30  C   UNL     1      52.416   8.507  13.018  0.00  0.00    +0.000 A 
BRANCH  22  32
ATOM     31  C   UNL     1      52.796   6.935  15.927  0.00  0.00    +0.000 C 
ATOM     32  O   UNL     1      52.657   8.254  15.409  0.00  0.00    +0.000 OA
ENDBRANCH  22  32
ENDBRANCH  18  29
ENDBRANCH   1  20
TORSDOF 8
ENDMDL
MODEL 8
REMARK VINA RESULT:    -6.533      4.307      6.068
REMARK INTER + INTRA:         -11.164
REMARK INTER:                 -10.048
REMARK INTRA:                  -1.115
REMARK UNBOUND:                -1.576
REMARK  Name = 
REMARK  9 active torsions:
REMARK  status: ('A' for Active; 'I' for Inactive)
REMARK    1  A    between atoms: C_1  and  O_2
REMARK    2  A    between atoms: O_2  and  C_3
REMARK    3  A    between atoms: C_10  and  C_11
REMARK    4  A    between atoms: N_13  and  C_14
REMARK    5  A    between atoms: C_14  and  C_15
REMARK    6  A    between atoms: C_18  and  C_19
REMARK    7  A    between atoms: C_19  and  O_20
REMARK    8  A    between atoms: O_20  and  C_21
REMARK    9  A    between atoms: C_21  and  C_22
REMARK                            x       y       z     vdW  Elec       q    Type
REMARK                         _______ _______ _______ _____ _____    ______ ____
ROOT
ATOM      1  C   UNL     1      48.757   7.008  13.336  0.00  0.00    +0.000 C 
ENDROOT
BRANCH   1   2
ATOM      2  C   UNL     1      47.577   6.259  12.768  0.00  0.00    +0.000 A 
ATOM      3  C   UNL     1      46.987   6.667  11.563  0.00  0.00    +0.000 A 
ATOM      4  C   UNL     1      45.849   6.019  11.071  0.00  0.00    +0.000 A 
ATOM      5  C   UNL     1      45.265   4.958  11.778  0.00  0.00    +0.000 A 
ATOM      6  C   UNL     1      45.866   4.541  12.973  0.00  0.00    +0.000 A 
ATOM      7  C   UNL     1      47.007   5.185  13.462  0.00  0.00    +0.000 A 
BRANCH   5   8
ATOM      8  C   UNL     1      43.999   4.306  11.278  0.00  0.00    +0.000 C 
BRANCH   8   9
ATOM      9  O   UNL     1      44.161   3.959   9.908  0.00  0.00    +0.000 OA
BRANCH   9  10
ATOM     10  C   UNL     1      44.461   2.574   9.738  0.00  0.00    +0.000 C 
BRANCH  10  11
ATOM     11  C   UNL     1      45.439   2.402   8.602  0.00  0.00    +0.000 A 
ATOM     12  C   UNL     1      46.060   1.163   8.363  0.00  0.00    +0.000 A 
ATOM     13  C   UNL     1      46.942   0.995   7.294  0.00  0.00    +0.000 A 
ATOM     14  C   UNL     1      47.206   2.061   6.438  0.00  0.00    +0.000 A 
ATOM     15  C   UNL     1      46.583   3.284   6.660  0.00  0.00    +0.000 A 
ATOM     16  F   UNL     1      46.832   4.307   5.833  0.00  0.00    +0.000 F 
ATOM     17  C   UNL     1      45.704   3.462   7.724  0.00  0.00    +0.000 A 
ENDBRANCH  10  11
ENDBRANCH   9  10
ENDBRANCH   8   9
ENDBRANCH   5   8
ENDBRANCH   1   2
BRANCH   1  20
ATOM     18  C   UNL     1      50.571   8.436  12.456  0.00  0.00    +0.000 C 
ATOM     19  O   UNL     1      51.304   8.153  13.401  0.00  0.00    +0.000 OA
ATOM     20  N   UNL     1      49.314   7.907  12.352  0.00  0.00    +0.000 N 
ATOM     21  H   UNL     1      48.754   8.098  11.534  0.00  0.00    +0.000 HD
BRANCH  18  29
ATOM     22  C   UNL     1      53.140   8.421  10.156  0.00  0.00    +0.000 A 
ATOM     23  N   UNL     1      53.974   8.622   9.115  0.00  0.00    +0.000 NA
ATOM     24  C   UNL     1      53.788   9.708   8.361  0.00  0.00    +0.000 A 
ATOM     25  N   UNL     1      52.864  10.649   8.527  0.00  0.00    +0.000 NA
ATOM     26  C   UNL     1      52.048  10.409   9.568  0.00  0.00    +0.000 A 
ATOM     27  S   UNL     1      50.819  11.516   9.942  0.00  0.00    +0.000 S 
ATOM     28  C   UNL     1      50.278  10.555  11.234  0.00  0.00    +0.000 A 
ATOM     29  C   UNL     1      51.001   9.380  11.405  0.00  0.00    +0.000 A 
ATOM     30  C   UNL     1      52.089   9.315  10.429  0.00  0.00    +0.000 A 
BRANCH  22  32
ATOM     31  C   UNL     1      53.603   6.117  10.264  0.00  0.00    +0.000 C 
ATOM     32  O   UNL     1      53.354   7.329  10.970  0.00  0.00    +0.000 OA
ENDBRANCH  22  32
ENDBRANCH  18  29
ENDBRANCH   1  20
TORSDOF 8
ENDMDL
MODEL 9
REMARK VINA RESULT:    -6.425      3.026      5.122
REMARK INTER + INTRA:         -11.005
REMARK INTER:                 -10.459
REMARK INTRA:                  -0.547
REMARK UNBOUND:                -1.576
REMARK  Name = 
REMARK  9 active torsions:
REMARK  status: ('A' for Active; 'I' for Inactive)
REMARK    1  A    between atoms: C_1  and  O_2
REMARK    2  A    between atoms: O_2  and  C_3
REMARK    3  A    between atoms: C_10  and  C_11
REMARK    4  A    between atoms: N_13  and  C_14
REMARK    5  A    between atoms: C_14  and  C_15
REMARK    6  A    between atoms: C_18  and  C_19
REMARK    7  A    between atoms: C_19  and  O_20
REMARK    8  A    between atoms: O_20  and  C_21
REMARK    9  A    between atoms: C_21  and  C_22
REMARK                            x       y       z     vdW  Elec       q    Type
REMARK                         _______ _______ _______ _____ _____    ______ ____
ROOT
ATOM      1  C   UNL     1      47.463   5.821  14.541  0.00  0.00    +0.000 C 
ENDROOT
BRANCH   1   2
ATOM      2  C   UNL     1      46.570   5.203  13.493  0.00  0.00    +0.000 A 
ATOM      3  C   UNL     1      45.697   5.999  12.741  0.00  0.00    +0.000 A 
ATOM      4  C   UNL     1      44.817   5.419  11.820  0.00  0.00    +0.000 A 
ATOM      5  C   UNL     1      44.780   4.030  11.639  0.00  0.00    +0.000 A 
ATOM      6  C   UNL     1      45.666   3.236  12.381  0.00  0.00    +0.000 A 
ATOM      7  C   UNL     1      46.549   3.816  13.298  0.00  0.00    +0.000 A 
BRANCH   5   8
ATOM      8  C   UNL     1      43.784   3.403  10.694  0.00  0.00    +0.000 C 
BRANCH   8   9
ATOM      9  O   UNL     1      43.965   3.951   9.393  0.00  0.00    +0.000 OA
BRANCH   9  10
ATOM     10  C   UNL     1      45.327   4.292   9.140  0.00  0.00    +0.000 C 
BRANCH  10  11
ATOM     11  C   UNL     1      45.925   3.306   8.167  0.00  0.00    +0.000 A 
ATOM     12  C   UNL     1      46.463   3.736   6.941  0.00  0.00    +0.000 A 
ATOM     13  C   UNL     1      47.044   2.829   6.053  0.00  0.00    +0.000 A 
ATOM     14  C   UNL     1      47.108   1.478   6.384  0.00  0.00    +0.000 A 
ATOM     15  C   UNL     1      46.592   1.049   7.602  0.00  0.00    +0.000 A 
ATOM     16  F   UNL     1      46.660  -0.249   7.924  0.00  0.00    +0.000 F 
ATOM     17  C   UNL     1      46.009   1.946   8.493  0.00  0.00    +0.000 A 
ENDBRANCH  10  11
ENDBRANCH   9  10
ENDBRANCH   8   9
ENDBRANCH   5   8
ENDBRANCH   1   2
BRANCH   1  20
ATOM     18  C   UNL     1      48.621   7.955  14.082  0.00  0.00    +0.000 C 
ATOM     19  O   UNL     1      47.829   8.580  14.782  0.00  0.00    +0.000 OA
ATOM     20  N   UNL     1      48.511   6.600  13.924  0.00  0.00    +0.000 N 
ATOM     21  H   UNL     1      49.212   6.095  13.399  0.00  0.00    +0.000 HD
BRANCH  18  29
ATOM     22  C   UNL     1      48.694  10.209  11.473  0.00  0.00    +0.000 A 
ATOM     23  N   UNL     1      49.002  11.147  10.554  0.00  0.00    +0.000 NA
ATOM     24  C   UNL     1      50.286  11.479  10.402  0.00  0.00    +0.000 A 
ATOM     25  N   UNL     1      51.327  10.973  11.054  0.00  0.00    +0.000 NA
ATOM     26  C   UNL     1      50.979  10.048  11.967  0.00  0.00    +0.000 A 
ATOM     27  S   UNL     1      52.181   9.278  12.882  0.00  0.00    +0.000 S 
ATOM     28  C   UNL     1      51.024   8.373  13.734  0.00  0.00    +0.000 A 
ATOM     29  C   UNL     1      49.712   8.636  13.357  0.00  0.00    +0.000 A 
ATOM     30  C   UNL     1      49.690   9.612  12.267  0.00  0.00    +0.000 A 
BRANCH  22  32
ATOM     31  C   UNL     1      46.466  10.906  11.767  0.00  0.00    +0.000 C 
ATOM     32  O   UNL     1      47.376   9.822  11.603  0.00  0.00    +0.000 OA
ENDBRANCH  22  32
ENDBRANCH  18  29
ENDBRANCH   1  20
TORSDOF 8
ENDMDL
