MODEL 1
REMARK VINA RESULT:    -7.714      0.000      0.000
REMARK INTER + INTRA:         -11.605
REMARK INTER:                 -10.871
REMARK INTRA:                  -0.734
REMARK UNBOUND:                -0.734
REMARK  Name = 
REMARK  8 active torsions:
REMARK  status: ('A' for Active; 'I' for Inactive)
REMARK    1  A    between atoms: C_1  and  N_2
REMARK    2  A    between atoms: N_2  and  C_3
REMARK    3  A    between atoms: C_3  and  C_4
REMARK    4  A    between atoms: C_4  and  C_5
REMARK    5  A    between atoms: C_8  and  C_9
REMARK    6  A    between atoms: C_9  and  O_10
REMARK    7  A    between atoms: O_10  and  C_11
REMARK    8  A    between atoms: C_14  and  C_15
REMARK                            x       y       z     vdW  Elec       q    Type
REMARK                         _______ _______ _______ _____ _____    ______ ____
ROOT
ATOM      1  C   UNL     1      43.784   5.474  10.833  0.00  0.00    +0.000 C 
ENDROOT
BRANCH   1   5
ATOM      2  C   UNL     1      46.560   4.994  13.969  0.00  0.00    +0.000 A 
ATOM      3  C   UNL     1      46.815   5.849  12.903  0.00  0.00    +0.000 A 
ATOM      4  N   UNL     1      45.955   6.020  11.869  0.00  0.00    +0.000 NA
ATOM      5  C   UNL     1      44.807   5.295  11.926  0.00  0.00    +0.000 A 
ATOM      6  C   UNL     1      44.563   4.423  12.980  0.00  0.00    +0.000 A 
ATOM      7  N   UNL     1      45.418   4.264  14.019  0.00  0.00    +0.000 NA
BRANCH   2   8
ATOM      8  C   UNL     1      47.517   4.877  15.126  0.00  0.00    +0.000 C 
BRANCH   8   9
ATOM      9  C   UNL     1      47.491   3.471  15.732  0.00  0.00    +0.000 C 
BRANCH   9  11
ATOM     10  C   UNL     1      47.180   4.641  17.809  0.00  0.00    +0.000 C 
ATOM     11  N   UNL     1      46.803   3.468  17.029  0.00  0.00    +0.000 NA
ATOM     12  H   UNL     1      45.793   3.470  16.888  0.00  0.00    +0.000 HD
ENDBRANCH   9  11
ENDBRANCH   8   9
ENDBRANCH   2   8
ENDBRANCH   1   5
BRANCH   1  13
ATOM     13  O   UNL     1      43.511   4.218  10.212  0.00  0.00    +0.000 OA
BRANCH  13  14
ATOM     14  C   UNL     1      44.481   3.716   9.386  0.00  0.00    +0.000 A 
ATOM     15  C   UNL     1      45.251   4.449   8.481  0.00  0.00    +0.000 A 
ATOM     16  C   UNL     1      46.194   3.801   7.674  0.00  0.00    +0.000 A 
ATOM     17  C   UNL     1      46.388   2.419   7.774  0.00  0.00    +0.000 A 
ATOM     18  C   UNL     1      45.616   1.682   8.678  0.00  0.00    +0.000 A 
ATOM     19  C   UNL     1      44.671   2.333   9.477  0.00  0.00    +0.000 A 
BRANCH  17  20
ATOM     20  C   UNL     1      47.393   1.781   6.883  0.00  0.00    +0.000 C 
ATOM     21  N   UNL     1      48.454   2.541   6.478  0.00  0.00    +0.000 N 
ATOM     22  O   UNL     1      47.262   0.626   6.491  0.00  0.00    +0.000 OA
ATOM     23  H   UNL     1      48.475   3.546   6.576  0.00  0.00    +0.000 HD
ATOM     24  H   UNL     1      49.065   2.123   5.787  0.00  0.00    +0.000 HD
ENDBRANCH  17  20
ENDBRANCH  13  14
ENDBRANCH   1  13
TORSDOF 7
ENDMDL
MODEL 2
REMARK VINA RESULT:    -7.709      1.699      2.920
REMARK INTER + INTRA:         -11.598
REMARK INTER:                 -10.707
REMARK INTRA:                  -0.891
REMARK UNBOUND:                -0.734
REMARK  Name = 
REMARK  8 active torsions:
REMARK  status: ('A' for Active; 'I' for Inactive)
REMARK    1  A    between atoms: C_1  and  N_2
REMARK    2  A    between atoms: N_2  and  C_3
REMARK    3  A    between atoms: C_3  and  C_4
REMARK    4  A    between atoms: C_4  and  C_5
REMARK    5  A    between atoms: C_8  and  C_9
REMARK    6  A    between atoms: C_9  and  O_10
REMARK    7  A    between atoms: O_10  and  C_11
REMARK    8  A    between atoms: C_14  and  C_15
REMARK                            x       y       z     vdW  Elec       q    Type
REMARK                         _______ _______ _______ _____ _____    ______ ____
ROOT
ATOM      1  C   UNL     1      43.602   3.078  11.758  0.00  0.00    +0.000 C 
ENDROOT
BRANCH   1   5
ATOM      2  C   UNL     1      46.654   5.459  13.427  0.00  0.00    +0.000 A 
ATOM      3  C   UNL     1      46.733   4.071  13.438  0.00  0.00    +0.000 A 
ATOM      4  N   UNL     1      45.768   3.271  12.924  0.00  0.00    +0.000 NA
ATOM      5  C   UNL     1      44.691   3.906  12.391  0.00  0.00    +0.000 A 
ATOM      6  C   UNL     1      44.602   5.293  12.402  0.00  0.00    +0.000 A 
ATOM      7  N   UNL     1      45.575   6.091  12.903  0.00  0.00    +0.000 NA
BRANCH   2   8
ATOM      8  C   UNL     1      47.777   6.312  13.956  0.00  0.00    +0.000 C 
BRANCH   8   9
ATOM      9  C   UNL     1      48.772   6.675  12.850  0.00  0.00    +0.000 C 
BRANCH   9  11
ATOM     10  C   UNL     1      48.550   8.890  11.941  0.00  0.00    +0.000 C 
ATOM     11  N   UNL     1      48.132   7.499  11.816  0.00  0.00    +0.000 NA
ATOM     12  H   UNL     1      48.384   7.154  10.890  0.00  0.00    +0.000 HD
ENDBRANCH   9  11
ENDBRANCH   8   9
ENDBRANCH   2   8
ENDBRANCH   1   5
BRANCH   1  13
ATOM     13  O   UNL     1      43.400   3.491  10.406  0.00  0.00    +0.000 OA
BRANCH  13  14
ATOM     14  C   UNL     1      44.355   3.115   9.499  0.00  0.00    +0.000 A 
ATOM     15  C   UNL     1      44.829   1.817   9.294  0.00  0.00    +0.000 A 
ATOM     16  C   UNL     1      45.833   1.577   8.348  0.00  0.00    +0.000 A 
ATOM     17  C   UNL     1      46.361   2.626   7.587  0.00  0.00    +0.000 A 
ATOM     18  C   UNL     1      45.889   3.927   7.792  0.00  0.00    +0.000 A 
ATOM     19  C   UNL     1      44.891   4.163   8.743  0.00  0.00    +0.000 A 
BRANCH  17  20
ATOM     20  C   UNL     1      47.435   2.316   6.606  0.00  0.00    +0.000 C 
ATOM     21  N   UNL     1      47.449   3.024   5.437  0.00  0.00    +0.000 N 
ATOM     22  O   UNL     1      48.259   1.433   6.816  0.00  0.00    +0.000 OA
ATOM     23  H   UNL     1      46.664   3.577   5.125  0.00  0.00    +0.000 HD
ATOM     24  H   UNL     1      48.119   2.722   4.741  0.00  0.00    +0.000 HD
ENDBRANCH  17  20
ENDBRANCH  13  14
ENDBRANCH   1  13
TORSDOF 7
ENDMDL
MODEL 3
REMARK VINA RESULT:    -7.278      2.243      3.717
REMARK INTER + INTRA:         -10.991
REMARK INTER:                 -10.600
REMARK INTRA:                  -0.391
REMARK UNBOUND:                -0.734
REMARK  Name = 
REMARK  8 active torsions:
REMARK  status: ('A' for Active; 'I' for Inactive)
REMARK    1  A    between atoms: C_1  and  N_2
REMARK    2  A    between atoms: N_2  and  C_3
REMARK    3  A    between atoms: C_3  and  C_4
REMARK    4  A    between atoms: C_4  and  C_5
REMARK    5  A    between atoms: C_8  and  C_9
REMARK    6  A    between atoms: C_9  and  O_10
REMARK    7  A    between atoms: O_10  and  C_11
REMARK    8  A    between atoms: C_14  and  C_15
REMARK                            x       y       z     vdW  Elec       q    Type
REMARK                         _______ _______ _______ _____ _____    ______ ____
ROOT
ATOM      1  C   UNL     1      43.829   3.415  11.632  0.00  0.00    +0.000 C 
ENDROOT
BRANCH   1   5
ATOM      2  C   UNL     1      45.332   7.232  12.602  0.00  0.00    +0.000 A 
ATOM      3  C   UNL     1      44.274   7.077  11.713  0.00  0.00    +0.000 A 
ATOM      4  N   UNL     1      43.771   5.867  11.366  0.00  0.00    +0.000 NA
ATOM      5  C   UNL     1      44.370   4.789  11.937  0.00  0.00    +0.000 A 
ATOM      6  C   UNL     1      45.443   4.944  12.807  0.00  0.00    +0.000 A 
ATOM      7  N   UNL     1      45.933   6.154  13.164  0.00  0.00    +0.000 NA
BRANCH   2   8
ATOM      8  C   UNL     1      45.821   8.598  13.006  0.00  0.00    +0.000 C 
BRANCH   8   9
ATOM      9  C   UNL     1      45.393   9.666  11.995  0.00  0.00    +0.000 C 
BRANCH   9  11
ATOM     10  C   UNL     1      43.552  11.061  11.327  0.00  0.00    +0.000 C 
ATOM     11  N   UNL     1      44.176  10.356  12.441  0.00  0.00    +0.000 NA
ATOM     12  H   UNL     1      43.514   9.681  12.824  0.00  0.00    +0.000 HD
ENDBRANCH   9  11
ENDBRANCH   8   9
ENDBRANCH   2   8
ENDBRANCH   1   5
BRANCH   1  13
ATOM     13  O   UNL     1      43.418   3.346  10.266  0.00  0.00    +0.000 OA
BRANCH  13  14
ATOM     14  C   UNL     1      44.407   3.179   9.333  0.00  0.00    +0.000 A 
ATOM     15  C   UNL     1      44.875   4.153   8.449  0.00  0.00    +0.000 A 
ATOM     16  C   UNL     1      45.876   3.837   7.522  0.00  0.00    +0.000 A 
ATOM     17  C   UNL     1      46.429   2.552   7.480  0.00  0.00    +0.000 A 
ATOM     18  C   UNL     1      45.959   1.575   8.363  0.00  0.00    +0.000 A 
ATOM     19  C   UNL     1      44.955   1.893   9.283  0.00  0.00    +0.000 A 
BRANCH  17  20
ATOM     20  C   UNL     1      47.479   2.268   6.466  0.00  0.00    +0.000 C 
ATOM     21  N   UNL     1      47.489   3.032   5.333  0.00  0.00    +0.000 N 
ATOM     22  O   UNL     1      48.288   1.360   6.618  0.00  0.00    +0.000 OA
ATOM     23  H   UNL     1      46.711   3.616   5.062  0.00  0.00    +0.000 HD
ATOM     24  H   UNL     1      48.140   2.752   4.611  0.00  0.00    +0.000 HD
ENDBRANCH  17  20
ENDBRANCH  13  14
ENDBRANCH   1  13
TORSDOF 7
ENDMDL
MODEL 4
REMARK VINA RESULT:    -6.800      1.757      2.279
REMARK INTER + INTRA:         -10.317
REMARK INTER:                  -9.746
REMARK INTRA:                  -0.571
REMARK UNBOUND:                -0.734
REMARK  Name = 
REMARK  8 active torsions:
REMARK  status: ('A' for Active; 'I' for Inactive)
REMARK    1  A    between atoms: C_1  and  N_2
REMARK    2  A    between atoms: N_2  and  C_3
REMARK    3  A    between atoms: C_3  and  C_4
REMARK    4  A    between atoms: C_4  and  C_5
REMARK    5  A    between atoms: C_8  and  C_9
REMARK    6  A    between atoms: C_9  and  O_10
REMARK    7  A    between atoms: O_10  and  C_11
REMARK    8  A    between atoms: C_14  and  C_15
REMARK                            x       y       z     vdW  Elec       q    Type
REMARK                         _______ _______ _______ _____ _____    ______ ____
ROOT
ATOM      1  C   UNL     1      44.028   4.386  11.651  0.00  0.00    +0.000 C 
ENDROOT
BRANCH   1   5
ATOM      2  C   UNL     1      47.291   6.535  13.231  0.00  0.00    +0.000 A 
ATOM      3  C   UNL     1      46.443   7.102  12.287  0.00  0.00    +0.000 A 
ATOM      4  N   UNL     1      45.391   6.440  11.745  0.00  0.00    +0.000 NA
ATOM      5  C   UNL     1      45.208   5.164  12.176  0.00  0.00    +0.000 A 
ATOM      6  C   UNL     1      46.071   4.590  13.102  0.00  0.00    +0.000 A 
ATOM      7  N   UNL     1      47.111   5.259  13.653  0.00  0.00    +0.000 NA
BRANCH   2   8
ATOM      8  C   UNL     1      48.413   7.327  13.851  0.00  0.00    +0.000 C 
BRANCH   8   9
ATOM      9  C   UNL     1      48.805   6.762  15.220  0.00  0.00    +0.000 C 
BRANCH   9  11
ATOM     10  C   UNL     1      48.307   9.051  15.764  0.00  0.00    +0.000 C 
ATOM     11  N   UNL     1      48.993   7.840  16.200  0.00  0.00    +0.000 NA
ATOM     12  H   UNL     1      48.625   7.554  17.107  0.00  0.00    +0.000 HD
ENDBRANCH   9  11
ENDBRANCH   8   9
ENDBRANCH   2   8
ENDBRANCH   1   5
BRANCH   1  13
ATOM     13  O   UNL     1      43.906   4.580  10.242  0.00  0.00    +0.000 OA
BRANCH  13  14
ATOM     14  C   UNL     1      44.707   3.809   9.442  0.00  0.00    +0.000 A 
ATOM     15  C   UNL     1      44.794   2.415   9.465  0.00  0.00    +0.000 A 
ATOM     16  C   UNL     1      45.680   1.752   8.608  0.00  0.00    +0.000 A 
ATOM     17  C   UNL     1      46.475   2.473   7.709  0.00  0.00    +0.000 A 
ATOM     18  C   UNL     1      46.391   3.868   7.686  0.00  0.00    +0.000 A 
ATOM     19  C   UNL     1      45.509   4.526   8.549  0.00  0.00    +0.000 A 
BRANCH  17  20
ATOM     20  C   UNL     1      47.409   1.718   6.831  0.00  0.00    +0.000 C 
ATOM     21  N   UNL     1      48.471   2.397   6.304  0.00  0.00    +0.000 N 
ATOM     22  O   UNL     1      47.220   0.538   6.557  0.00  0.00    +0.000 OA
ATOM     23  H   UNL     1      48.530   3.406   6.306  0.00  0.00    +0.000 HD
ATOM     24  H   UNL     1      49.029   1.896   5.625  0.00  0.00    +0.000 HD
ENDBRANCH  17  20
ENDBRANCH  13  14
ENDBRANCH   1  13
TORSDOF 7
ENDMDL
MODEL 5
REMARK VINA RESULT:    -6.127      3.091      6.814
REMARK INTER + INTRA:          -9.368
REMARK INTER:                  -8.879
REMARK INTRA:                  -0.489
REMARK UNBOUND:                -0.734
REMARK  Name = 
REMARK  8 active torsions:
REMARK  status: ('A' for Active; 'I' for Inactive)
REMARK    1  A    between atoms: C_1  and  N_2
REMARK    2  A    between atoms: N_2  and  C_3
REMARK    3  A    between atoms: C_3  and  C_4
REMARK    4  A    between atoms: C_4  and  C_5
REMARK    5  A    between atoms: C_8  and  C_9
REMARK    6  A    between atoms: C_9  and  O_10
REMARK    7  A    between atoms: O_10  and  C_11
REMARK    8  A    between atoms: C_14  and  C_15
REMARK                            x       y       z     vdW  Elec       q    Type
REMARK                         _______ _______ _______ _____ _____    ______ ____
ROOT
ATOM      1  C   UNL     1      43.047   4.022  12.022  0.00  0.00    +0.000 C 
ENDROOT
BRANCH   1   5
ATOM      2  C   UNL     1      45.197   3.100   8.515  0.00  0.00    +0.000 A 
ATOM      3  C   UNL     1      44.557   4.325   8.669  0.00  0.00    +0.000 A 
ATOM      4  N   UNL     1      43.845   4.654   9.775  0.00  0.00    +0.000 NA
ATOM      5  C   UNL     1      43.781   3.704  10.745  0.00  0.00    +0.000 A 
ATOM      6  C   UNL     1      44.401   2.471  10.580  0.00  0.00    +0.000 A 
ATOM      7  N   UNL     1      45.124   2.150   9.480  0.00  0.00    +0.000 NA
BRANCH   2   8
ATOM      8  C   UNL     1      46.026   2.798   7.295  0.00  0.00    +0.000 C 
BRANCH   8   9
ATOM      9  C   UNL     1      46.945   1.595   7.528  0.00  0.00    +0.000 C 
BRANCH   9  11
ATOM     10  C   UNL     1      47.728   2.452   5.422  0.00  0.00    +0.000 C 
ATOM     11  N   UNL     1      47.764   1.320   6.340  0.00  0.00    +0.000 NA
ATOM     12  H   UNL     1      48.729   1.142   6.616  0.00  0.00    +0.000 HD
ENDBRANCH   9  11
ENDBRANCH   8   9
ENDBRANCH   2   8
ENDBRANCH   1   5
BRANCH   1  13
ATOM     13  O   UNL     1      43.948   3.966  13.128  0.00  0.00    +0.000 OA
BRANCH  13  14
ATOM     14  C   UNL     1      44.958   4.891  13.147  0.00  0.00    +0.000 A 
ATOM     15  C   UNL     1      44.832   6.252  12.862  0.00  0.00    +0.000 A 
ATOM     16  C   UNL     1      45.958   7.084  12.891  0.00  0.00    +0.000 A 
ATOM     17  C   UNL     1      47.216   6.567  13.220  0.00  0.00    +0.000 A 
ATOM     18  C   UNL     1      47.346   5.204  13.503  0.00  0.00    +0.000 A 
ATOM     19  C   UNL     1      46.219   4.376  13.467  0.00  0.00    +0.000 A 
BRANCH  17  20
ATOM     20  C   UNL     1      48.380   7.493  13.222  0.00  0.00    +0.000 C 
ATOM     21  N   UNL     1      48.864   7.906  12.012  0.00  0.00    +0.000 N 
ATOM     22  O   UNL     1      48.915   7.849  14.266  0.00  0.00    +0.000 OA
ATOM     23  H   UNL     1      48.615   7.456  11.142  0.00  0.00    +0.000 HD
ATOM     24  H   UNL     1      49.720   8.445  12.033  0.00  0.00    +0.000 HD
ENDBRANCH  17  20
ENDBRANCH  13  14
ENDBRANCH   1  13
TORSDOF 7
ENDMDL
MODEL 6
REMARK VINA RESULT:    -5.950      3.372      8.633
REMARK INTER + INTRA:          -9.119
REMARK INTER:                  -8.526
REMARK INTRA:                  -0.593
REMARK UNBOUND:                -0.734
REMARK  Name = 
REMARK  8 active torsions:
REMARK  status: ('A' for Active; 'I' for Inactive)
REMARK    1  A    between atoms: C_1  and  N_2
REMARK    2  A    between atoms: N_2  and  C_3
REMARK    3  A    between atoms: C_3  and  C_4
REMARK    4  A    between atoms: C_4  and  C_5
REMARK    5  A    between atoms: C_8  and  C_9
REMARK    6  A    between atoms: C_9  and  O_10
REMARK    7  A    between atoms: O_10  and  C_11
REMARK    8  A    between atoms: C_14  and  C_15
REMARK                            x       y       z     vdW  Elec       q    Type
REMARK                         _______ _______ _______ _____ _____    ______ ____
ROOT
ATOM      1  C   UNL     1      46.441   5.004  14.095  0.00  0.00    +0.000 C 
ENDROOT
BRANCH   1   5
ATOM      2  C   UNL     1      44.800   4.284  10.279  0.00  0.00    +0.000 A 
ATOM      3  C   UNL     1      44.734   3.327  11.286  0.00  0.00    +0.000 A 
ATOM      4  N   UNL     1      45.261   3.515  12.520  0.00  0.00    +0.000 NA
ATOM      5  C   UNL     1      45.876   4.709  12.728  0.00  0.00    +0.000 A 
ATOM      6  C   UNL     1      45.962   5.655  11.714  0.00  0.00    +0.000 A 
ATOM      7  N   UNL     1      45.422   5.471  10.486  0.00  0.00    +0.000 NA
BRANCH   2   8
ATOM      8  C   UNL     1      44.150   4.057   8.939  0.00  0.00    +0.000 C 
BRANCH   8   9
ATOM      9  C   UNL     1      45.074   3.282   7.995  0.00  0.00    +0.000 C 
BRANCH   9  11
ATOM     10  C   UNL     1      47.229   3.268   6.929  0.00  0.00    +0.000 C 
ATOM     11  N   UNL     1      46.243   4.089   7.622  0.00  0.00    +0.000 NA
ATOM     12  H   UNL     1      45.957   4.856   7.013  0.00  0.00    +0.000 HD
ENDBRANCH   9  11
ENDBRANCH   8   9
ENDBRANCH   2   8
ENDBRANCH   1   5
BRANCH   1  13
ATOM     13  O   UNL     1      46.975   3.810  14.668  0.00  0.00    +0.000 OA
BRANCH  13  14
ATOM     14  C   UNL     1      47.528   3.920  15.916  0.00  0.00    +0.000 A 
ATOM     15  C   UNL     1      47.550   2.925  16.895  0.00  0.00    +0.000 A 
ATOM     16  C   UNL     1      48.127   3.182  18.145  0.00  0.00    +0.000 A 
ATOM     17  C   UNL     1      48.701   4.428  18.422  0.00  0.00    +0.000 A 
ATOM     18  C   UNL     1      48.678   5.426  17.443  0.00  0.00    +0.000 A 
ATOM     19  C   UNL     1      48.095   5.167  16.199  0.00  0.00    +0.000 A 
BRANCH  17  20
ATOM     20  C   UNL     1      49.287   4.650  19.771  0.00  0.00    +0.000 C 
ATOM     21  N   UNL     1      48.676   4.048  20.835  0.00  0.00    +0.000 N 
ATOM     22  O   UNL     1      50.261   5.376  19.935  0.00  0.00    +0.000 OA
ATOM     23  H   UNL     1      47.750   3.648  20.778  0.00  0.00    +0.000 HD
ATOM     24  H   UNL     1      49.024   4.300  21.751  0.00  0.00    +0.000 HD
ENDBRANCH  17  20
ENDBRANCH  13  14
ENDBRANCH   1  13
TORSDOF 7
ENDMDL
MODEL 7
REMARK VINA RESULT:    -5.713      3.704      8.157
REMARK INTER + INTRA:          -8.785
REMARK INTER:                  -8.185
REMARK INTRA:                  -0.600
REMARK UNBOUND:                -0.734
REMARK  Name = 
REMARK  8 active torsions:
REMARK  status: ('A' for Active; 'I' for Inactive)
REMARK    1  A    between atoms: C_1  and  N_2
REMARK    2  A    between atoms: N_2  and  C_3
REMARK    3  A    between atoms: C_3  and  C_4
REMARK    4  A    between atoms: C_4  and  C_5
REMARK    5  A    between atoms: C_8  and  C_9
REMARK    6  A    between atoms: C_9  and  O_10
REMARK    7  A    between atoms: O_10  and  C_11
REMARK    8  A    between atoms: C_14  and  C_15
REMARK                            x       y       z     vdW  Elec       q    Type
REMARK                         _______ _______ _______ _____ _____    ______ ____
ROOT
ATOM      1  C   UNL     1      46.735   5.176  14.526  0.00  0.00    +0.000 C 
ENDROOT
BRANCH   1   5
ATOM      2  C   UNL     1      44.820   4.217  10.895  0.00  0.00    +0.000 A 
ATOM      3  C   UNL     1      44.899   3.297  11.935  0.00  0.00    +0.000 A 
ATOM      4  N   UNL     1      45.518   3.562  13.112  0.00  0.00    +0.000 NA
ATOM      5  C   UNL     1      46.074   4.797  13.225  0.00  0.00    +0.000 A 
ATOM      6  C   UNL     1      46.015   5.707  12.177  0.00  0.00    +0.000 A 
ATOM      7  N   UNL     1      45.383   5.445  11.007  0.00  0.00    +0.000 NA
BRANCH   2   8
ATOM      8  C   UNL     1      44.072   3.901   9.626  0.00  0.00    +0.000 C 
BRANCH   8   9
ATOM      9  C   UNL     1      44.994   3.274   8.576  0.00  0.00    +0.000 C 
BRANCH   9  11
ATOM     10  C   UNL     1      46.777   3.668   7.012  0.00  0.00    +0.000 C 
ATOM     11  N   UNL     1      45.886   4.283   7.989  0.00  0.00    +0.000 NA
ATOM     12  H   UNL     1      45.336   5.009   7.531  0.00  0.00    +0.000 HD
ENDBRANCH   9  11
ENDBRANCH   8   9
ENDBRANCH   2   8
ENDBRANCH   1   5
BRANCH   1  13
ATOM     13  O   UNL     1      46.796   4.041  15.390  0.00  0.00    +0.000 OA
BRANCH  13  14
ATOM     14  C   UNL     1      47.945   3.880  16.117  0.00  0.00    +0.000 A 
ATOM     15  C   UNL     1      48.673   4.897  16.738  0.00  0.00    +0.000 A 
ATOM     16  C   UNL     1      49.852   4.595  17.430  0.00  0.00    +0.000 A 
ATOM     17  C   UNL     1      50.307   3.275  17.520  0.00  0.00    +0.000 A 
ATOM     18  C   UNL     1      49.581   2.255  16.897  0.00  0.00    +0.000 A 
ATOM     19  C   UNL     1      48.407   2.563  16.202  0.00  0.00    +0.000 A 
BRANCH  17  20
ATOM     20  C   UNL     1      51.573   3.013  18.255  0.00  0.00    +0.000 C 
ATOM     21  N   UNL     1      51.887   3.845  19.294  0.00  0.00    +0.000 N 
ATOM     22  O   UNL     1      52.331   2.108  17.925  0.00  0.00    +0.000 OA
ATOM     23  H   UNL     1      51.424   4.730  19.442  0.00  0.00    +0.000 HD
ATOM     24  H   UNL     1      52.801   3.718  19.707  0.00  0.00    +0.000 HD
ENDBRANCH  17  20
ENDBRANCH  13  14
ENDBRANCH   1  13
TORSDOF 7
ENDMDL
MODEL 8
REMARK VINA RESULT:    -5.686      3.207      7.144
REMARK INTER + INTRA:          -8.747
REMARK INTER:                  -8.425
REMARK INTRA:                  -0.322
REMARK UNBOUND:                -0.734
REMARK  Name = 
REMARK  8 active torsions:
REMARK  status: ('A' for Active; 'I' for Inactive)
REMARK    1  A    between atoms: C_1  and  N_2
REMARK    2  A    between atoms: N_2  and  C_3
REMARK    3  A    between atoms: C_3  and  C_4
REMARK    4  A    between atoms: C_4  and  C_5
REMARK    5  A    between atoms: C_8  and  C_9
REMARK    6  A    between atoms: C_9  and  O_10
REMARK    7  A    between atoms: O_10  and  C_11
REMARK    8  A    between atoms: C_14  and  C_15
REMARK                            x       y       z     vdW  Elec       q    Type
REMARK                         _______ _______ _______ _____ _____    ______ ____
ROOT
ATOM      1  C   UNL     1      43.925   5.300  12.050  0.00  0.00    +0.000 C 
ENDROOT
BRANCH   1   5
ATOM      2  C   UNL     1      45.484   3.398   8.626  0.00  0.00    +0.000 A 
ATOM      3  C   UNL     1      44.830   2.676   9.618  0.00  0.00    +0.000 A 
ATOM      4  N   UNL     1      44.327   3.249  10.739  0.00  0.00    +0.000 NA
ATOM      5  C   UNL     1      44.503   4.592  10.850  0.00  0.00    +0.000 A 
ATOM      6  C   UNL     1      45.177   5.308   9.870  0.00  0.00    +0.000 A 
ATOM      7  N   UNL     1      45.666   4.736   8.743  0.00  0.00    +0.000 NA
BRANCH   2   8
ATOM      8  C   UNL     1      45.976   2.731   7.368  0.00  0.00    +0.000 C 
BRANCH   8   9
ATOM      9  C   UNL     1      46.744   1.444   7.683  0.00  0.00    +0.000 C 
BRANCH   9  11
ATOM     10  C   UNL     1      47.901   2.303   5.758  0.00  0.00    +0.000 C 
ATOM     11  N   UNL     1      47.940   1.324   6.838  0.00  0.00    +0.000 NA
ATOM     12  H   UNL     1      48.779   1.474   7.398  0.00  0.00    +0.000 HD
ENDBRANCH   9  11
ENDBRANCH   8   9
ENDBRANCH   2   8
ENDBRANCH   1   5
BRANCH   1  13
ATOM     13  O   UNL     1      44.900   5.371  13.090  0.00  0.00    +0.000 OA
BRANCH  13  14
ATOM     14  C   UNL     1      45.929   6.257  12.911  0.00  0.00    +0.000 A 
ATOM     15  C   UNL     1      47.291   5.947  12.910  0.00  0.00    +0.000 A 
ATOM     16  C   UNL     1      48.242   6.960  12.743  0.00  0.00    +0.000 A 
ATOM     17  C   UNL     1      47.843   8.289  12.559  0.00  0.00    +0.000 A 
ATOM     18  C   UNL     1      46.480   8.602  12.561  0.00  0.00    +0.000 A 
ATOM     19  C   UNL     1      45.534   7.587  12.735  0.00  0.00    +0.000 A 
BRANCH  17  20
ATOM     20  C   UNL     1      48.896   9.326  12.400  0.00  0.00    +0.000 C 
ATOM     21  N   UNL     1      50.099   9.108  13.012  0.00  0.00    +0.000 N 
ATOM     22  O   UNL     1      48.690  10.360  11.774  0.00  0.00    +0.000 OA
ATOM     23  H   UNL     1      50.229   8.402  13.723  0.00  0.00    +0.000 HD
ATOM     24  H   UNL     1      50.761   9.873  12.983  0.00  0.00    +0.000 HD
ENDBRANCH  17  20
ENDBRANCH  13  14
ENDBRANCH   1  13
TORSDOF 7
ENDMDL
MODEL 9
REMARK VINA RESULT:    -5.671      2.622      7.549
REMARK INTER + INTRA:          -8.725
REMARK INTER:                  -8.378
REMARK INTRA:                  -0.347
REMARK UNBOUND:                -0.734
REMARK  Name = 
REMARK  8 active torsions:
REMARK  status: ('A' for Active; 'I' for Inactive)
REMARK    1  A    between atoms: C_1  and  N_2
REMARK    2  A    between atoms: N_2  and  C_3
REMARK    3  A    between atoms: C_3  and  C_4
REMARK    4  A    between atoms: C_4  and  C_5
REMARK    5  A    between atoms: C_8  and  C_9
REMARK    6  A    between atoms: C_9  and  O_10
REMARK    7  A    between atoms: O_10  and  C_11
REMARK    8  A    between atoms: C_14  and  C_15
REMARK                            x       y       z     vdW  Elec       q    Type
REMARK                         _______ _______ _______ _____ _____    ______ ____
ROOT
ATOM      1  C   UNL     1      44.946   5.914  11.800  0.00  0.00    +0.000 C 
ENDROOT
BRANCH   1   5
ATOM      2  C   UNL     1      45.642   3.440   8.458  0.00  0.00    +0.000 A 
ATOM      3  C   UNL     1      45.084   2.935   9.627  0.00  0.00    +0.000 A 
ATOM      4  N   UNL     1      44.857   3.694  10.727  0.00  0.00    +0.000 NA
ATOM      5  C   UNL     1      45.216   5.002  10.630  0.00  0.00    +0.000 A 
ATOM      6  C   UNL     1      45.795   5.500   9.470  0.00  0.00    +0.000 A 
ATOM      7  N   UNL     1      46.007   4.743   8.367  0.00  0.00    +0.000 NA
BRANCH   2   8
ATOM      8  C   UNL     1      45.823   2.575   7.239  0.00  0.00    +0.000 C 
BRANCH   8   9
ATOM      9  C   UNL     1      46.746   1.388   7.529  0.00  0.00    +0.000 C 
BRANCH   9  11
ATOM     10  C   UNL     1      47.753   2.410   5.600  0.00  0.00    +0.000 C 
ATOM     11  N   UNL     1      47.913   1.398   6.637  0.00  0.00    +0.000 NA
ATOM     12  H   UNL     1      48.759   1.597   7.172  0.00  0.00    +0.000 HD
ENDBRANCH   9  11
ENDBRANCH   8   9
ENDBRANCH   2   8
ENDBRANCH   1   5
BRANCH   1  13
ATOM     13  O   UNL     1      46.156   6.555  12.206  0.00  0.00    +0.000 OA
BRANCH  13  14
ATOM     14  C   UNL     1      46.737   6.099  13.359  0.00  0.00    +0.000 A 
ATOM     15  C   UNL     1      47.776   6.720  14.057  0.00  0.00    +0.000 A 
ATOM     16  C   UNL     1      48.298   6.128  15.213  0.00  0.00    +0.000 A 
ATOM     17  C   UNL     1      47.778   4.920  15.692  0.00  0.00    +0.000 A 
ATOM     18  C   UNL     1      46.739   4.296  14.994  0.00  0.00    +0.000 A 
ATOM     19  C   UNL     1      46.226   4.888  13.836  0.00  0.00    +0.000 A 
BRANCH  17  20
ATOM     20  C   UNL     1      48.380   4.329  16.916  0.00  0.00    +0.000 C 
ATOM     21  N   UNL     1      47.537   3.998  17.941  0.00  0.00    +0.000 N 
ATOM     22  O   UNL     1      49.591   4.174  17.025  0.00  0.00    +0.000 OA
ATOM     23  H   UNL     1      46.583   4.325  17.989  0.00  0.00    +0.000 HD
ATOM     24  H   UNL     1      47.977   3.701  18.802  0.00  0.00    +0.000 HD
ENDBRANCH  17  20
ENDBRANCH  13  14
ENDBRANCH   1  13
TORSDOF 7
ENDMDL
