MODEL 1
REMARK VINA RESULT:    -8.236      0.000      0.000
REMARK INTER + INTRA:         -12.618
REMARK INTER:                 -11.366
REMARK INTRA:                  -1.252
REMARK UNBOUND:                -1.252
REMARK  Name = 
REMARK  8 active torsions:
REMARK  status: ('A' for Active; 'I' for Inactive)
REMARK    1  A    between atoms: C_1  and  C_2
REMARK    2  A    between atoms: C_2  and  C_3
REMARK    3  A    between atoms: C_7  and  C_8
REMARK    4  A    between atoms: C_8  and  C_9
REMARK    5  A    between atoms: C_9  and  N_10
REMARK    6  A    between atoms: N_10  and  C_11
REMARK    7  A    between atoms: C_14  and  C_15
REMARK    8  A    between atoms: C_24  and  O_25
REMARK                            x       y       z     vdW  Elec       q    Type
REMARK                         _______ _______ _______ _____ _____    ______ ____
ROOT
ATOM      1  C   UNL     1      43.357   5.302  12.344  0.00  0.00    +0.000 C 
ENDROOT
BRANCH   1   6
ATOM      2  C   UNL     1      47.004   6.412  12.991  0.00  0.00    +0.000 A 
ATOM      3  C   UNL     1      47.523   5.222  13.526  0.00  0.00    +0.000 A 
ATOM      4  C   UNL     1      46.724   4.079  13.653  0.00  0.00    +0.000 A 
ATOM      5  C   UNL     1      45.385   4.100  13.260  0.00  0.00    +0.000 A 
ATOM      6  C   UNL     1      44.832   5.262  12.716  0.00  0.00    +0.000 A 
ATOM      7  C   UNL     1      45.667   6.386  12.573  0.00  0.00    +0.000 A 
BRANCH   2   9
ATOM      8  C   UNL     1      46.824   8.880  12.812  0.00  0.00    +0.000 C 
ATOM      9  C   UNL     1      47.836   7.717  12.951  0.00  0.00    +0.000 C 
ATOM     10  C   UNL     1      48.664   7.860  14.257  0.00  0.00    +0.000 C 
ATOM     11  C   UNL     1      49.622   9.059  14.259  0.00  0.00    +0.000 C 
ATOM     12  C   UNL     1      50.541   9.104  13.042  0.00  0.00    +0.000 C 
ATOM     13  C   UNL     1      49.766   8.978  11.737  0.00  0.00    +0.000 C 
ATOM     14  C   UNL     1      48.823   7.775  11.740  0.00  0.00    +0.000 C 
BRANCH  12  15
ATOM     15  O   UNL     1      51.523   8.073  13.127  0.00  0.00    +0.000 OA
ATOM     16  H   UNL     1      52.244   8.367  13.707  0.00  0.00    +0.000 HD
ENDBRANCH  12  15
ENDBRANCH   2   9
ENDBRANCH   1   6
BRANCH   1  17
ATOM     17  C   UNL     1      43.023   4.473  11.095  0.00  0.00    +0.000 C 
BRANCH  17  18
ATOM     18  N   UNL     1      43.758   4.881   9.903  0.00  0.00    +0.000 N 
ATOM     19  H   UNL     1      44.288   5.745  10.033  0.00  0.00    +0.000 HD
BRANCH  18  20
ATOM     20  C   UNL     1      44.601   3.887   9.348  0.00  0.00    +0.000 A 
ATOM     21  C   UNL     1      44.338   2.514   9.452  0.00  0.00    +0.000 A 
ATOM     22  C   UNL     1      45.150   1.568   8.815  0.00  0.00    +0.000 A 
ATOM     23  C   UNL     1      46.233   1.972   8.024  0.00  0.00    +0.000 A 
ATOM     24  C   UNL     1      46.500   3.335   7.890  0.00  0.00    +0.000 A 
ATOM     25  C   UNL     1      45.684   4.267   8.537  0.00  0.00    +0.000 A 
ATOM     26  F   UNL     1      45.969   5.571   8.394  0.00  0.00    +0.000 F 
BRANCH  23  27
ATOM     27  C   UNL     1      47.029   0.903   7.360  0.00  0.00    +0.000 C 
ATOM     28  N   UNL     1      46.773  -0.400   7.676  0.00  0.00    +0.000 N 
ATOM     29  O   UNL     1      47.907   1.173   6.547  0.00  0.00    +0.000 OA
ATOM     30  H   UNL     1      46.103  -0.718   8.356  0.00  0.00    +0.000 HD
ATOM     31  H   UNL     1      47.356  -1.094   7.227  0.00  0.00    +0.000 HD
ENDBRANCH  23  27
ENDBRANCH  18  20
ENDBRANCH  17  18
ENDBRANCH   1  17
TORSDOF 7
ENDMDL
MODEL 2
REMARK VINA RESULT:    -8.151      2.850      4.045
REMARK INTER + INTRA:         -12.500
REMARK INTER:                 -11.483
REMARK INTRA:                  -1.017
REMARK UNBOUND:                -1.252
REMARK  Name = 
REMARK  8 active torsions:
REMARK  status: ('A' for Active; 'I' for Inactive)
REMARK    1  A    between atoms: C_1  and  C_2
REMARK    2  A    between atoms: C_2  and  C_3
REMARK    3  A    between atoms: C_7  and  C_8
REMARK    4  A    between atoms: C_8  and  C_9
REMARK    5  A    between atoms: C_9  and  N_10
REMARK    6  A    between atoms: N_10  and  C_11
REMARK    7  A    between atoms: C_14  and  C_15
REMARK    8  A    between atoms: C_24  and  O_25
REMARK                            x       y       z     vdW  Elec       q    Type
REMARK                         _______ _______ _______ _____ _____    ______ ____
ROOT
ATOM      1  C   UNL     1      44.989   4.703  12.311  0.00  0.00    +0.000 C 
ENDROOT
BRANCH   1   6
ATOM      2  C   UNL     1      47.576   5.366  15.109  0.00  0.00    +0.000 A 
ATOM      3  C   UNL     1      48.242   6.472  14.559  0.00  0.00    +0.000 A 
ATOM      4  C   UNL     1      47.852   7.009  13.325  0.00  0.00    +0.000 A 
ATOM      5  C   UNL     1      46.796   6.448  12.607  0.00  0.00    +0.000 A 
ATOM      6  C   UNL     1      46.101   5.351  13.123  0.00  0.00    +0.000 A 
ATOM      7  C   UNL     1      46.496   4.851  14.378  0.00  0.00    +0.000 A 
BRANCH   2   9
ATOM      8  C   UNL     1      47.126   5.174  17.541  0.00  0.00    +0.000 C 
ATOM      9  C   UNL     1      48.065   4.686  16.411  0.00  0.00    +0.000 C 
ATOM     10  C   UNL     1      47.994   3.142  16.263  0.00  0.00    +0.000 C 
ATOM     11  C   UNL     1      48.581   2.375  17.457  0.00  0.00    +0.000 C 
ATOM     12  C   UNL     1      49.998   2.809  17.820  0.00  0.00    +0.000 C 
ATOM     13  C   UNL     1      50.107   4.319  17.985  0.00  0.00    +0.000 C 
ATOM     14  C   UNL     1      49.532   5.073  16.787  0.00  0.00    +0.000 C 
BRANCH  12  15
ATOM     15  O   UNL     1      50.920   2.358  16.830  0.00  0.00    +0.000 OA
ATOM     16  H   UNL     1      51.374   1.564  17.156  0.00  0.00    +0.000 HD
ENDBRANCH  12  15
ENDBRANCH   2   9
ENDBRANCH   1   6
BRANCH   1  17
ATOM     17  C   UNL     1      44.486   5.583  11.158  0.00  0.00    +0.000 C 
BRANCH  17  18
ATOM     18  N   UNL     1      43.779   4.844  10.118  0.00  0.00    +0.000 N 
ATOM     19  H   UNL     1      43.191   5.439   9.531  0.00  0.00    +0.000 HD
BRANCH  18  20
ATOM     20  C   UNL     1      44.599   4.030   9.297  0.00  0.00    +0.000 A 
ATOM     21  C   UNL     1      45.522   4.552   8.380  0.00  0.00    +0.000 A 
ATOM     22  C   UNL     1      46.374   3.714   7.651  0.00  0.00    +0.000 A 
ATOM     23  C   UNL     1      46.351   2.327   7.843  0.00  0.00    +0.000 A 
ATOM     24  C   UNL     1      45.453   1.789   8.765  0.00  0.00    +0.000 A 
ATOM     25  C   UNL     1      44.604   2.638   9.482  0.00  0.00    +0.000 A 
ATOM     26  F   UNL     1      43.748   2.090  10.359  0.00  0.00    +0.000 F 
BRANCH  23  27
ATOM     27  C   UNL     1      47.308   1.511   7.047  0.00  0.00    +0.000 C 
ATOM     28  N   UNL     1      48.421   2.115   6.537  0.00  0.00    +0.000 N 
ATOM     29  O   UNL     1      47.111   0.318   6.839  0.00  0.00    +0.000 OA
ATOM     30  H   UNL     1      48.649   3.092   6.621  0.00  0.00    +0.000 HD
ATOM     31  H   UNL     1      49.031   1.535   5.977  0.00  0.00    +0.000 HD
ENDBRANCH  23  27
ENDBRANCH  18  20
ENDBRANCH  17  18
ENDBRANCH   1  17
TORSDOF 7
ENDMDL
MODEL 3
REMARK VINA RESULT:    -8.144      1.607      2.536
REMARK INTER + INTRA:         -12.490
REMARK INTER:                 -11.553
REMARK INTRA:                  -0.937
REMARK UNBOUND:                -1.252
REMARK  Name = 
REMARK  8 active torsions:
REMARK  status: ('A' for Active; 'I' for Inactive)
REMARK    1  A    between atoms: C_1  and  C_2
REMARK    2  A    between atoms: C_2  and  C_3
REMARK    3  A    between atoms: C_7  and  C_8
REMARK    4  A    between atoms: C_8  and  C_9
REMARK    5  A    between atoms: C_9  and  N_10
REMARK    6  A    between atoms: N_10  and  C_11
REMARK    7  A    between atoms: C_14  and  C_15
REMARK    8  A    between atoms: C_24  and  O_25
REMARK                            x       y       z     vdW  Elec       q    Type
REMARK                         _______ _______ _______ _____ _____    ______ ____
ROOT
ATOM      1  C   UNL     1      45.728   5.286  11.687  0.00  0.00    +0.000 C 
ENDROOT
BRANCH   1   6
ATOM      2  C   UNL     1      47.639   8.620  12.113  0.00  0.00    +0.000 A 
ATOM      3  C   UNL     1      46.555   9.509  12.176  0.00  0.00    +0.000 A 
ATOM      4  C   UNL     1      45.236   9.044  12.108  0.00  0.00    +0.000 A 
ATOM      5  C   UNL     1      44.968   7.682  11.964  0.00  0.00    +0.000 A 
ATOM      6  C   UNL     1      46.018   6.763  11.905  0.00  0.00    +0.000 A 
ATOM      7  C   UNL     1      47.333   7.257  12.006  0.00  0.00    +0.000 A 
BRANCH   2   9
ATOM      8  C   UNL     1      49.116  10.356  11.132  0.00  0.00    +0.000 C 
ATOM      9  C   UNL     1      49.103   9.124  12.069  0.00  0.00    +0.000 C 
ATOM     10  C   UNL     1      49.575   9.511  13.496  0.00  0.00    +0.000 C 
ATOM     11  C   UNL     1      51.057   9.901  13.577  0.00  0.00    +0.000 C 
ATOM     12  C   UNL     1      51.993   8.858  12.974  0.00  0.00    +0.000 C 
ATOM     13  C   UNL     1      51.571   8.458  11.567  0.00  0.00    +0.000 C 
ATOM     14  C   UNL     1      50.097   8.060  11.499  0.00  0.00    +0.000 C 
BRANCH  12  15
ATOM     15  O   UNL     1      52.052   7.705  13.812  0.00  0.00    +0.000 OA
ATOM     16  H   UNL     1      51.686   6.945  13.332  0.00  0.00    +0.000 HD
ENDBRANCH  12  15
ENDBRANCH   2   9
ENDBRANCH   1   6
BRANCH   1  17
ATOM     17  C   UNL     1      44.237   4.984  11.481  0.00  0.00    +0.000 C 
BRANCH  17  18
ATOM     18  N   UNL     1      43.838   4.916  10.079  0.00  0.00    +0.000 N 
ATOM     19  H   UNL     1      43.749   5.835   9.641  0.00  0.00    +0.000 HD
BRANCH  18  20
ATOM     20  C   UNL     1      44.642   4.080   9.265  0.00  0.00    +0.000 A 
ATOM     21  C   UNL     1      45.581   4.577   8.350  0.00  0.00    +0.000 A 
ATOM     22  C   UNL     1      46.417   3.717   7.628  0.00  0.00    +0.000 A 
ATOM     23  C   UNL     1      46.362   2.332   7.827  0.00  0.00    +0.000 A 
ATOM     24  C   UNL     1      45.449   1.818   8.748  0.00  0.00    +0.000 A 
ATOM     25  C   UNL     1      44.616   2.689   9.457  0.00  0.00    +0.000 A 
ATOM     26  F   UNL     1      43.745   2.165  10.333  0.00  0.00    +0.000 F 
BRANCH  23  27
ATOM     27  C   UNL     1      47.304   1.490   7.039  0.00  0.00    +0.000 C 
ATOM     28  N   UNL     1      48.405   2.079   6.485  0.00  0.00    +0.000 N 
ATOM     29  O   UNL     1      47.106   0.291   6.875  0.00  0.00    +0.000 OA
ATOM     30  H   UNL     1      48.632   3.058   6.531  0.00  0.00    +0.000 HD
ATOM     31  H   UNL     1      49.004   1.480   5.932  0.00  0.00    +0.000 HD
ENDBRANCH  23  27
ENDBRANCH  18  20
ENDBRANCH  17  18
ENDBRANCH   1  17
TORSDOF 7
ENDMDL
MODEL 4
REMARK VINA RESULT:    -8.138      2.472      3.532
REMARK INTER + INTRA:         -12.482
REMARK INTER:                 -11.392
REMARK INTRA:                  -1.090
REMARK UNBOUND:                -1.252
REMARK  Name = 
REMARK  8 active torsions:
REMARK  status: ('A' for Active; 'I' for Inactive)
REMARK    1  A    between atoms: C_1  and  C_2
REMARK    2  A    between atoms: C_2  and  C_3
REMARK    3  A    between atoms: C_7  and  C_8
REMARK    4  A    between atoms: C_8  and  C_9
REMARK    5  A    between atoms: C_9  and  N_10
REMARK    6  A    between atoms: N_10  and  C_11
REMARK    7  A    between atoms: C_14  and  C_15
REMARK    8  A    between atoms: C_24  and  O_25
REMARK                            x       y       z     vdW  Elec       q    Type
REMARK                         _______ _______ _______ _____ _____    ______ ____
ROOT
ATOM      1  C   UNL     1      45.667   5.330  12.042  0.00  0.00    +0.000 C 
ENDROOT
BRANCH   1   6
ATOM      2  C   UNL     1      48.434   7.133  14.054  0.00  0.00    +0.000 A 
ATOM      3  C   UNL     1      49.077   7.818  13.011  0.00  0.00    +0.000 A 
ATOM      4  C   UNL     1      48.616   7.723  11.693  0.00  0.00    +0.000 A 
ATOM      5  C   UNL     1      47.509   6.932  11.382  0.00  0.00    +0.000 A 
ATOM      6  C   UNL     1      46.836   6.239  12.390  0.00  0.00    +0.000 A 
ATOM      7  C   UNL     1      47.304   6.378  13.711  0.00  0.00    +0.000 A 
BRANCH   2   9
ATOM      8  C   UNL     1      50.539   7.167  15.366  0.00  0.00    +0.000 C 
ATOM      9  C   UNL     1      48.997   7.131  15.496  0.00  0.00    +0.000 C 
ATOM     10  C   UNL     1      48.480   8.374  16.270  0.00  0.00    +0.000 C 
ATOM     11  C   UNL     1      48.879   8.395  17.752  0.00  0.00    +0.000 C 
ATOM     12  C   UNL     1      48.513   7.116  18.498  0.00  0.00    +0.000 C 
ATOM     13  C   UNL     1      49.013   5.872  17.776  0.00  0.00    +0.000 C 
ATOM     14  C   UNL     1      48.600   5.853  16.305  0.00  0.00    +0.000 C 
BRANCH  12  15
ATOM     15  O   UNL     1      47.100   7.039  18.681  0.00  0.00    +0.000 OA
ATOM     16  H   UNL     1      46.832   6.106  18.692  0.00  0.00    +0.000 HD
ENDBRANCH  12  15
ENDBRANCH   2   9
ENDBRANCH   1   6
BRANCH   1  17
ATOM     17  C   UNL     1      44.748   5.910  10.959  0.00  0.00    +0.000 C 
BRANCH  17  18
ATOM     18  N   UNL     1      44.015   4.900  10.203  0.00  0.00    +0.000 N 
ATOM     19  H   UNL     1      43.210   5.278   9.701  0.00  0.00    +0.000 HD
BRANCH  18  20
ATOM     20  C   UNL     1      44.803   4.123   9.318  0.00  0.00    +0.000 A 
ATOM     21  C   UNL     1      45.696   4.685   8.395  0.00  0.00    +0.000 A 
ATOM     22  C   UNL     1      46.520   3.881   7.599  0.00  0.00    +0.000 A 
ATOM     23  C   UNL     1      46.499   2.486   7.728  0.00  0.00    +0.000 A 
ATOM     24  C   UNL     1      45.632   1.907   8.656  0.00  0.00    +0.000 A 
ATOM     25  C   UNL     1      44.811   2.724   9.439  0.00  0.00    +0.000 A 
ATOM     26  F   UNL     1      43.984   2.138  10.320  0.00  0.00    +0.000 F 
BRANCH  23  27
ATOM     27  C   UNL     1      47.426   1.705   6.863  0.00  0.00    +0.000 C 
ATOM     28  N   UNL     1      48.550   2.316   6.387  0.00  0.00    +0.000 N 
ATOM     29  O   UNL     1      47.194   0.538   6.569  0.00  0.00    +0.000 OA
ATOM     30  H   UNL     1      48.806   3.277   6.540  0.00  0.00    +0.000 HD
ATOM     31  H   UNL     1      49.138   1.762   5.778  0.00  0.00    +0.000 HD
ENDBRANCH  23  27
ENDBRANCH  18  20
ENDBRANCH  17  18
ENDBRANCH   1  17
TORSDOF 7
ENDMDL
MODEL 5
REMARK VINA RESULT:    -8.011      1.405      1.749
REMARK INTER + INTRA:         -12.307
REMARK INTER:                 -11.175
REMARK INTRA:                  -1.132
REMARK UNBOUND:                -1.252
REMARK  Name = 
REMARK  8 active torsions:
REMARK  status: ('A' for Active; 'I' for Inactive)
REMARK    1  A    between atoms: C_1  and  C_2
REMARK    2  A    between atoms: C_2  and  C_3
REMARK    3  A    between atoms: C_7  and  C_8
REMARK    4  A    between atoms: C_8  and  C_9
REMARK    5  A    between atoms: C_9  and  N_10
REMARK    6  A    between atoms: N_10  and  C_11
REMARK    7  A    between atoms: C_14  and  C_15
REMARK    8  A    between atoms: C_24  and  O_25
REMARK                            x       y       z     vdW  Elec       q    Type
REMARK                         _______ _______ _______ _____ _____    ______ ____
ROOT
ATOM      1  C   UNL     1      44.655   4.883  12.437  0.00  0.00    +0.000 C 
ENDROOT
BRANCH   1   6
ATOM      2  C   UNL     1      47.947   6.616  13.495  0.00  0.00    +0.000 A 
ATOM      3  C   UNL     1      48.217   5.910  14.678  0.00  0.00    +0.000 A 
ATOM      4  C   UNL     1      47.372   4.882  15.114  0.00  0.00    +0.000 A 
ATOM      5  C   UNL     1      46.231   4.542  14.385  0.00  0.00    +0.000 A 
ATOM      6  C   UNL     1      45.930   5.214  13.199  0.00  0.00    +0.000 A 
ATOM      7  C   UNL     1      46.814   6.222  12.769  0.00  0.00    +0.000 A 
BRANCH   2   9
ATOM      8  C   UNL     1      47.813   8.989  12.787  0.00  0.00    +0.000 C 
ATOM      9  C   UNL     1      48.802   7.831  13.058  0.00  0.00    +0.000 C 
ATOM     10  C   UNL     1      49.800   8.210  14.185  0.00  0.00    +0.000 C 
ATOM     11  C   UNL     1      50.783   9.323  13.798  0.00  0.00    +0.000 C 
ATOM     12  C   UNL     1      51.532   9.046  12.498  0.00  0.00    +0.000 C 
ATOM     13  C   UNL     1      50.586   8.680  11.361  0.00  0.00    +0.000 C 
ATOM     14  C   UNL     1      49.620   7.563  11.753  0.00  0.00    +0.000 C 
BRANCH  12  15
ATOM     15  O   UNL     1      52.488   8.005  12.691  0.00  0.00    +0.000 OA
ATOM     16  H   UNL     1      53.382   8.377  12.621  0.00  0.00    +0.000 HD
ENDBRANCH  12  15
ENDBRANCH   2   9
ENDBRANCH   1   6
BRANCH   1  17
ATOM     17  C   UNL     1      44.533   5.634  11.103  0.00  0.00    +0.000 C 
BRANCH  17  18
ATOM     18  N   UNL     1      43.829   4.884  10.068  0.00  0.00    +0.000 N 
ATOM     19  H   UNL     1      43.242   5.473   9.474  0.00  0.00    +0.000 HD
BRANCH  18  20
ATOM     20  C   UNL     1      44.652   4.063   9.257  0.00  0.00    +0.000 A 
ATOM     21  C   UNL     1      45.579   4.577   8.340  0.00  0.00    +0.000 A 
ATOM     22  C   UNL     1      46.434   3.733   7.622  0.00  0.00    +0.000 A 
ATOM     23  C   UNL     1      46.409   2.348   7.824  0.00  0.00    +0.000 A 
ATOM     24  C   UNL     1      45.506   1.817   8.747  0.00  0.00    +0.000 A 
ATOM     25  C   UNL     1      44.656   2.672   9.453  0.00  0.00    +0.000 A 
ATOM     26  F   UNL     1      43.795   2.132  10.331  0.00  0.00    +0.000 F 
BRANCH  23  27
ATOM     27  C   UNL     1      47.369   1.524   7.039  0.00  0.00    +0.000 C 
ATOM     28  N   UNL     1      48.459   2.134   6.488  0.00  0.00    +0.000 N 
ATOM     29  O   UNL     1      47.194   0.321   6.875  0.00  0.00    +0.000 OA
ATOM     30  H   UNL     1      48.667   3.117   6.533  0.00  0.00    +0.000 HD
ATOM     31  H   UNL     1      49.071   1.547   5.936  0.00  0.00    +0.000 HD
ENDBRANCH  23  27
ENDBRANCH  18  20
ENDBRANCH  17  18
ENDBRANCH   1  17
TORSDOF 7
ENDMDL
MODEL 6
REMARK VINA RESULT:    -7.958      1.818      2.270
REMARK INTER + INTRA:         -12.233
REMARK INTER:                 -11.061
REMARK INTRA:                  -1.172
REMARK UNBOUND:                -1.252
REMARK  Name = 
REMARK  8 active torsions:
REMARK  status: ('A' for Active; 'I' for Inactive)
REMARK    1  A    between atoms: C_1  and  C_2
REMARK    2  A    between atoms: C_2  and  C_3
REMARK    3  A    between atoms: C_7  and  C_8
REMARK    4  A    between atoms: C_8  and  C_9
REMARK    5  A    between atoms: C_9  and  N_10
REMARK    6  A    between atoms: N_10  and  C_11
REMARK    7  A    between atoms: C_14  and  C_15
REMARK    8  A    between atoms: C_24  and  O_25
REMARK                            x       y       z     vdW  Elec       q    Type
REMARK                         _______ _______ _______ _____ _____    ______ ____
ROOT
ATOM      1  C   UNL     1      43.626   5.922  12.039  0.00  0.00    +0.000 C 
ENDROOT
BRANCH   1   6
ATOM      2  C   UNL     1      47.306   6.877  12.748  0.00  0.00    +0.000 A 
ATOM      3  C   UNL     1      47.674   5.803  13.574  0.00  0.00    +0.000 A 
ATOM      4  C   UNL     1      46.766   4.781  13.878  0.00  0.00    +0.000 A 
ATOM      5  C   UNL     1      45.466   4.812  13.372  0.00  0.00    +0.000 A 
ATOM      6  C   UNL     1      45.061   5.858  12.540  0.00  0.00    +0.000 A 
ATOM      7  C   UNL     1      46.004   6.855  12.228  0.00  0.00    +0.000 A 
BRANCH   2   9
ATOM      8  C   UNL     1      49.215   7.643  11.361  0.00  0.00    +0.000 C 
ATOM      9  C   UNL     1      48.255   8.074  12.497  0.00  0.00    +0.000 C 
ATOM     10  C   UNL     1      47.435   9.325  12.082  0.00  0.00    +0.000 C 
ATOM     11  C   UNL     1      48.275  10.600  11.936  0.00  0.00    +0.000 C 
ATOM     12  C   UNL     1      49.129  10.909  13.162  0.00  0.00    +0.000 C 
ATOM     13  C   UNL     1      49.959   9.709  13.596  0.00  0.00    +0.000 C 
ATOM     14  C   UNL     1      49.112   8.447  13.751  0.00  0.00    +0.000 C 
BRANCH  12  15
ATOM     15  O   UNL     1      48.303  11.346  14.240  0.00  0.00    +0.000 OA
ATOM     16  H   UNL     1      48.813  11.312  15.065  0.00  0.00    +0.000 HD
ENDBRANCH  12  15
ENDBRANCH   2   9
ENDBRANCH   1   6
BRANCH   1  17
ATOM     17  C   UNL     1      43.456   5.381  10.612  0.00  0.00    +0.000 C 
BRANCH  17  18
ATOM     18  N   UNL     1      43.708   3.949  10.491  0.00  0.00    +0.000 N 
ATOM     19  H   UNL     1      42.852   3.395  10.413  0.00  0.00    +0.000 HD
BRANCH  18  20
ATOM     20  C   UNL     1      44.605   3.582   9.458  0.00  0.00    +0.000 A 
ATOM     21  C   UNL     1      45.409   4.507   8.778  0.00  0.00    +0.000 A 
ATOM     22  C   UNL     1      46.346   4.092   7.824  0.00  0.00    +0.000 A 
ATOM     23  C   UNL     1      46.530   2.732   7.545  0.00  0.00    +0.000 A 
ATOM     24  C   UNL     1      45.753   1.793   8.226  0.00  0.00    +0.000 A 
ATOM     25  C   UNL     1      44.819   2.223   9.172  0.00  0.00    +0.000 A 
ATOM     26  F   UNL     1      44.083   1.297   9.807  0.00  0.00    +0.000 F 
BRANCH  23  27
ATOM     27  C   UNL     1      47.565   2.375   6.536  0.00  0.00    +0.000 C 
ATOM     28  N   UNL     1      47.674   3.138   5.409  0.00  0.00    +0.000 N 
ATOM     29  O   UNL     1      48.307   1.412   6.697  0.00  0.00    +0.000 OA
ATOM     30  H   UNL     1      47.088   3.920   5.171  0.00  0.00    +0.000 HD
ATOM     31  H   UNL     1      48.368   2.844   4.734  0.00  0.00    +0.000 HD
ENDBRANCH  23  27
ENDBRANCH  18  20
ENDBRANCH  17  18
ENDBRANCH   1  17
TORSDOF 7
ENDMDL
MODEL 7
REMARK VINA RESULT:    -7.783      1.546      2.185
REMARK INTER + INTRA:         -11.992
REMARK INTER:                 -10.843
REMARK INTRA:                  -1.149
REMARK UNBOUND:                -1.252
REMARK  Name = 
REMARK  8 active torsions:
REMARK  status: ('A' for Active; 'I' for Inactive)
REMARK    1  A    between atoms: C_1  and  C_2
REMARK    2  A    between atoms: C_2  and  C_3
REMARK    3  A    between atoms: C_7  and  C_8
REMARK    4  A    between atoms: C_8  and  C_9
REMARK    5  A    between atoms: C_9  and  N_10
REMARK    6  A    between atoms: N_10  and  C_11
REMARK    7  A    between atoms: C_14  and  C_15
REMARK    8  A    between atoms: C_24  and  O_25
REMARK                            x       y       z     vdW  Elec       q    Type
REMARK                         _______ _______ _______ _____ _____    ______ ____
ROOT
ATOM      1  C   UNL     1      45.387   3.515  12.501  0.00  0.00    +0.000 C 
ENDROOT
BRANCH   1   6
ATOM      2  C   UNL     1      46.826   7.093  12.790  0.00  0.00    +0.000 A 
ATOM      3  C   UNL     1      45.643   7.836  12.649  0.00  0.00    +0.000 A 
ATOM      4  C   UNL     1      44.406   7.201  12.489  0.00  0.00    +0.000 A 
ATOM      5  C   UNL     1      44.321   5.808  12.454  0.00  0.00    +0.000 A 
ATOM      6  C   UNL     1      45.472   5.031  12.599  0.00  0.00    +0.000 A 
ATOM      7  C   UNL     1      46.698   5.697  12.788  0.00  0.00    +0.000 A 
BRANCH   2   9
ATOM      8  C   UNL     1      49.024   7.031  13.940  0.00  0.00    +0.000 C 
ATOM      9  C   UNL     1      48.214   7.776  12.851  0.00  0.00    +0.000 C 
ATOM     10  C   UNL     1      48.918   7.670  11.471  0.00  0.00    +0.000 C 
ATOM     11  C   UNL     1      50.249   8.431  11.392  0.00  0.00    +0.000 C 
ATOM     12  C   UNL     1      50.140   9.891  11.821  0.00  0.00    +0.000 C 
ATOM     13  C   UNL     1      49.464  10.038  13.178  0.00  0.00    +0.000 C 
ATOM     14  C   UNL     1      48.134   9.287  13.243  0.00  0.00    +0.000 C 
BRANCH  12  15
ATOM     15  O   UNL     1      49.430  10.643  10.839  0.00  0.00    +0.000 OA
ATOM     16  H   UNL     1      49.996  10.760  10.058  0.00  0.00    +0.000 HD
ENDBRANCH  12  15
ENDBRANCH   2   9
ENDBRANCH   1   6
BRANCH   1  17
ATOM     17  C   UNL     1      44.062   3.019  11.904  0.00  0.00    +0.000 C 
BRANCH  17  18
ATOM     18  N   UNL     1      43.790   3.531  10.565  0.00  0.00    +0.000 N 
ATOM     19  H   UNL     1      43.609   4.537  10.548  0.00  0.00    +0.000 HD
BRANCH  18  20
ATOM     20  C   UNL     1      44.765   3.209   9.589  0.00  0.00    +0.000 A 
ATOM     21  C   UNL     1      45.021   1.898   9.166  0.00  0.00    +0.000 A 
ATOM     22  C   UNL     1      45.931   1.630   8.137  0.00  0.00    +0.000 A 
ATOM     23  C   UNL     1      46.590   2.674   7.475  0.00  0.00    +0.000 A 
ATOM     24  C   UNL     1      46.334   3.989   7.867  0.00  0.00    +0.000 A 
ATOM     25  C   UNL     1      45.427   4.239   8.900  0.00  0.00    +0.000 A 
ATOM     26  F   UNL     1      45.205   5.514   9.258  0.00  0.00    +0.000 F 
BRANCH  23  27
ATOM     27  C   UNL     1      47.522   2.305   6.374  0.00  0.00    +0.000 C 
ATOM     28  N   UNL     1      47.496   3.035   5.220  0.00  0.00    +0.000 N 
ATOM     29  O   UNL     1      48.299   1.363   6.483  0.00  0.00    +0.000 OA
ATOM     30  H   UNL     1      46.870   3.798   5.022  0.00  0.00    +0.000 HD
ATOM     31  H   UNL     1      48.122   2.735   4.485  0.00  0.00    +0.000 HD
ENDBRANCH  23  27
ENDBRANCH  18  20
ENDBRANCH  17  18
ENDBRANCH   1  17
TORSDOF 7
ENDMDL
MODEL 8
REMARK VINA RESULT:    -7.114      3.505      5.667
REMARK INTER + INTRA:         -11.069
REMARK INTER:                  -9.717
REMARK INTRA:                  -1.352
REMARK UNBOUND:                -1.252
REMARK  Name = 
REMARK  8 active torsions:
REMARK  status: ('A' for Active; 'I' for Inactive)
REMARK    1  A    between atoms: C_1  and  C_2
REMARK    2  A    between atoms: C_2  and  C_3
REMARK    3  A    between atoms: C_7  and  C_8
REMARK    4  A    between atoms: C_8  and  C_9
REMARK    5  A    between atoms: C_9  and  N_10
REMARK    6  A    between atoms: N_10  and  C_11
REMARK    7  A    between atoms: C_14  and  C_15
REMARK    8  A    between atoms: C_24  and  O_25
REMARK                            x       y       z     vdW  Elec       q    Type
REMARK                         _______ _______ _______ _____ _____    ______ ____
ROOT
ATOM      1  C   UNL     1      48.553   7.892  12.999  0.00  0.00    +0.000 C 
ENDROOT
BRANCH   1   6
ATOM      2  C   UNL     1      48.840   6.561  16.618  0.00  0.00    +0.000 A 
ATOM      3  C   UNL     1      49.103   7.764  17.293  0.00  0.00    +0.000 A 
ATOM      4  C   UNL     1      49.162   8.981  16.603  0.00  0.00    +0.000 A 
ATOM      5  C   UNL     1      48.972   9.025  15.221  0.00  0.00    +0.000 A 
ATOM      6  C   UNL     1      48.701   7.852  14.513  0.00  0.00    +0.000 A 
ATOM      7  C   UNL     1      48.617   6.648  15.237  0.00  0.00    +0.000 A 
BRANCH   2   9
ATOM      8  C   UNL     1      48.599   5.479  18.838  0.00  0.00    +0.000 C 
ATOM      9  C   UNL     1      48.887   5.194  17.344  0.00  0.00    +0.000 C 
ATOM     10  C   UNL     1      47.817   4.240  16.748  0.00  0.00    +0.000 C 
ATOM     11  C   UNL     1      47.871   2.814  17.314  0.00  0.00    +0.000 C 
ATOM     12  C   UNL     1      49.255   2.178  17.228  0.00  0.00    +0.000 C 
ATOM     13  C   UNL     1      50.334   3.080  17.813  0.00  0.00    +0.000 C 
ATOM     14  C   UNL     1      50.281   4.494  17.235  0.00  0.00    +0.000 C 
BRANCH  12  15
ATOM     15  O   UNL     1      49.568   1.859  15.873  0.00  0.00    +0.000 OA
ATOM     16  H   UNL     1      50.533   1.856  15.762  0.00  0.00    +0.000 HD
ENDBRANCH  12  15
ENDBRANCH   2   9
ENDBRANCH   1   6
BRANCH   1  17
ATOM     17  C   UNL     1      47.185   8.411  12.535  0.00  0.00    +0.000 C 
BRANCH  17  18
ATOM     18  N   UNL     1      46.056   7.792  13.223  0.00  0.00    +0.000 N 
ATOM     19  H   UNL     1      45.263   8.425  13.345  0.00  0.00    +0.000 HD
BRANCH  18  20
ATOM     20  C   UNL     1      45.605   6.572  12.660  0.00  0.00    +0.000 A 
ATOM     21  C   UNL     1      45.869   5.321  13.233  0.00  0.00    +0.000 A 
ATOM     22  C   UNL     1      45.331   4.147  12.694  0.00  0.00    +0.000 A 
ATOM     23  C   UNL     1      44.484   4.193  11.580  0.00  0.00    +0.000 A 
ATOM     24  C   UNL     1      44.192   5.431  11.005  0.00  0.00    +0.000 A 
ATOM     25  C   UNL     1      44.741   6.595  11.553  0.00  0.00    +0.000 A 
ATOM     26  F   UNL     1      44.446   7.770  10.976  0.00  0.00    +0.000 F 
BRANCH  23  27
ATOM     27  C   UNL     1      43.934   2.902  11.084  0.00  0.00    +0.000 C 
ATOM     28  N   UNL     1      44.513   2.316   9.996  0.00  0.00    +0.000 N 
ATOM     29  O   UNL     1      42.974   2.365  11.628  0.00  0.00    +0.000 OA
ATOM     30  H   UNL     1      45.276   2.696   9.461  0.00  0.00    +0.000 HD
ATOM     31  H   UNL     1      44.092   1.455   9.671  0.00  0.00    +0.000 HD
ENDBRANCH  23  27
ENDBRANCH  18  20
ENDBRANCH  17  18
ENDBRANCH   1  17
TORSDOF 7
ENDMDL
MODEL 9
REMARK VINA RESULT:    -7.065      5.071      8.278
REMARK INTER + INTRA:         -11.002
REMARK INTER:                 -10.108
REMARK INTRA:                  -0.894
REMARK UNBOUND:                -1.252
REMARK  Name = 
REMARK  8 active torsions:
REMARK  status: ('A' for Active; 'I' for Inactive)
REMARK    1  A    between atoms: C_1  and  C_2
REMARK    2  A    between atoms: C_2  and  C_3
REMARK    3  A    between atoms: C_7  and  C_8
REMARK    4  A    between atoms: C_8  and  C_9
REMARK    5  A    between atoms: C_9  and  N_10
REMARK    6  A    between atoms: N_10  and  C_11
REMARK    7  A    between atoms: C_14  and  C_15
REMARK    8  A    between atoms: C_24  and  O_25
REMARK                            x       y       z     vdW  Elec       q    Type
REMARK                         _______ _______ _______ _____ _____    ______ ____
ROOT
ATOM      1  C   UNL     1      48.787   6.227  15.694  0.00  0.00    +0.000 C 
ENDROOT
BRANCH   1   6
ATOM      2  C   UNL     1      46.664   5.974  12.472  0.00  0.00    +0.000 A 
ATOM      3  C   UNL     1      47.264   6.991  11.712  0.00  0.00    +0.000 A 
ATOM      4  C   UNL     1      48.345   7.725  12.215  0.00  0.00    +0.000 A 
ATOM      5  C   UNL     1      48.845   7.471  13.493  0.00  0.00    +0.000 A 
ATOM      6  C   UNL     1      48.281   6.463  14.279  0.00  0.00    +0.000 A 
ATOM      7  C   UNL     1      47.216   5.721  13.735  0.00  0.00    +0.000 A 
BRANCH   2   9
ATOM      8  C   UNL     1      44.185   5.997  12.568  0.00  0.00    +0.000 C 
ATOM      9  C   UNL     1      45.396   5.232  11.982  0.00  0.00    +0.000 C 
ATOM     10  C   UNL     1      45.349   5.230  10.430  0.00  0.00    +0.000 C 
ATOM     11  C   UNL     1      44.195   4.405   9.844  0.00  0.00    +0.000 C 
ATOM     12  C   UNL     1      44.137   2.977  10.378  0.00  0.00    +0.000 C 
ATOM     13  C   UNL     1      44.170   2.936  11.900  0.00  0.00    +0.000 C 
ATOM     14  C   UNL     1      45.329   3.750  12.474  0.00  0.00    +0.000 C 
BRANCH  12  15
ATOM     15  O   UNL     1      45.213   2.207   9.847  0.00  0.00    +0.000 OA
ATOM     16  H   UNL     1      44.969   1.887   8.963  0.00  0.00    +0.000 HD
ENDBRANCH  12  15
ENDBRANCH   2   9
ENDBRANCH   1   6
BRANCH   1  17
ATOM     17  C   UNL     1      47.915   5.251  16.496  0.00  0.00    +0.000 C 
BRANCH  17  18
ATOM     18  N   UNL     1      48.498   4.850  17.772  0.00  0.00    +0.000 N 
ATOM     19  H   UNL     1      47.819   4.433  18.411  0.00  0.00    +0.000 HD
BRANCH  18  20
ATOM     20  C   UNL     1      49.635   4.011  17.676  0.00  0.00    +0.000 A 
ATOM     21  C   UNL     1      50.904   4.385  18.138  0.00  0.00    +0.000 A 
ATOM     22  C   UNL     1      51.983   3.493  18.103  0.00  0.00    +0.000 A 
ATOM     23  C   UNL     1      51.814   2.185  17.634  0.00  0.00    +0.000 A 
ATOM     24  C   UNL     1      50.553   1.785  17.188  0.00  0.00    +0.000 A 
ATOM     25  C   UNL     1      49.488   2.689  17.224  0.00  0.00    +0.000 A 
ATOM     26  F   UNL     1      48.288   2.277  16.784  0.00  0.00    +0.000 F 
BRANCH  23  27
ATOM     27  C   UNL     1      53.005   1.292  17.656  0.00  0.00    +0.000 C 
ATOM     28  N   UNL     1      52.859   0.013  18.112  0.00  0.00    +0.000 N 
ATOM     29  O   UNL     1      54.105   1.684  17.281  0.00  0.00    +0.000 OA
ATOM     30  H   UNL     1      52.010  -0.387  18.475  0.00  0.00    +0.000 HD
ATOM     31  H   UNL     1      53.697  -0.553  18.140  0.00  0.00    +0.000 HD
ENDBRANCH  23  27
ENDBRANCH  18  20
ENDBRANCH  17  18
ENDBRANCH   1  17
TORSDOF 7
ENDMDL
