MODEL 1
REMARK VINA RESULT:    -8.850      0.000      0.000
REMARK INTER + INTRA:         -11.732
REMARK INTER:                 -10.919
REMARK INTRA:                  -0.812
REMARK UNBOUND:                -0.812
REMARK  Name = 
REMARK  4 active torsions:
REMARK  status: ('A' for Active; 'I' for Inactive)
REMARK    1  A    between atoms: C_2  and  C_4
REMARK    2  A    between atoms: N_8  and  C_9
REMARK    3  A    between atoms: C_9  and  C_10
REMARK    4  A    between atoms: C_14  and  C_15
REMARK                            x       y       z     vdW  Elec       q    Type
REMARK                         _______ _______ _______ _____ _____    ______ ____
ROOT
ATOM      1  C   UNL     1      43.888   4.793  11.588  0.00  0.00    +0.000 C 
ATOM      2  C   UNL     1      42.545   5.187  12.192  0.00  0.00    +0.000 C 
ATOM      3  C   UNL     1      43.038   5.900  10.977  0.00  0.00    +0.000 C 
ENDROOT
BRANCH   1   8
ATOM      4  C   UNL     1      46.454   2.786   7.551  0.00  0.00    +0.000 A 
ATOM      5  C   UNL     1      46.297   4.106   7.953  0.00  0.00    +0.000 A 
ATOM      6  C   UNL     1      45.487   4.390   9.056  0.00  0.00    +0.000 A 
ATOM      7  C   UNL     1      44.860   3.351   9.738  0.00  0.00    +0.000 A 
ATOM      8  N   UNL     1      44.009   3.550  10.821  0.00  0.00    +0.000 N 
ATOM      9  N   UNL     1      45.020   2.063   9.361  0.00  0.00    +0.000 NA
ATOM     10  C   UNL     1      45.796   1.807   8.277  0.00  0.00    +0.000 A 
ATOM     11  H   UNL     1      43.735   2.657  11.213  0.00  0.00    +0.000 HD
BRANCH   4  13
ATOM     12  N   UNL     1      47.171   3.177   5.256  0.00  0.00    +0.000 N 
ATOM     13  C   UNL     1      47.248   2.383   6.366  0.00  0.00    +0.000 C 
ATOM     14  O   UNL     1      47.960   1.388   6.382  0.00  0.00    +0.000 OA
ATOM     15  H   UNL     1      47.773   2.927   4.481  0.00  0.00    +0.000 HD
ATOM     16  H   UNL     1      46.790   4.112   5.270  0.00  0.00    +0.000 HD
ENDBRANCH   4  13
ENDBRANCH   1   8
BRANCH   1  17
ATOM     17  C   UNL     1      45.135   5.228  12.372  0.00  0.00    +0.000 A 
ATOM     18  C   UNL     1      45.804   4.359  13.229  0.00  0.00    +0.000 A 
ATOM     19  C   UNL     1      47.027   4.741  13.771  0.00  0.00    +0.000 A 
ATOM     20  C   UNL     1      47.556   5.991  13.456  0.00  0.00    +0.000 A 
ATOM     21  C   UNL     1      46.830   6.845  12.634  0.00  0.00    +0.000 A 
ATOM     22  N   UNL     1      45.637   6.467  12.113  0.00  0.00    +0.000 NA
BRANCH  21  23
ATOM     23  C   UNL     1      47.302   8.181  12.202  0.00  0.00    +0.000 A 
ATOM     24  C   UNL     1      48.642   8.365  11.802  0.00  0.00    +0.000 A 
ATOM     25  C   UNL     1      49.131   9.614  11.410  0.00  0.00    +0.000 A 
ATOM     26  C   UNL     1      48.283  10.715  11.401  0.00  0.00    +0.000 A 
ATOM     27  C   UNL     1      46.950  10.563  11.776  0.00  0.00    +0.000 A 
ATOM     28  C   UNL     1      46.465   9.309  12.168  0.00  0.00    +0.000 A 
ENDBRANCH  21  23
ENDBRANCH   1  17
TORSDOF 4
ENDMDL
MODEL 2
REMARK VINA RESULT:    -8.548      1.574      3.557
REMARK INTER + INTRA:         -11.359
REMARK INTER:                 -10.850
REMARK INTRA:                  -0.509
REMARK UNBOUND:                -0.812
REMARK  Name = 
REMARK  4 active torsions:
REMARK  status: ('A' for Active; 'I' for Inactive)
REMARK    1  A    between atoms: C_2  and  C_4
REMARK    2  A    between atoms: N_8  and  C_9
REMARK    3  A    between atoms: C_9  and  C_10
REMARK    4  A    between atoms: C_14  and  C_15
REMARK                            x       y       z     vdW  Elec       q    Type
REMARK                         _______ _______ _______ _____ _____    ______ ____
ROOT
ATOM      1  C   UNL     1      44.137   4.833  11.556  0.00  0.00    +0.000 C 
ATOM      2  C   UNL     1      42.901   5.091  12.408  0.00  0.00    +0.000 C 
ATOM      3  C   UNL     1      43.021   5.751  11.075  0.00  0.00    +0.000 C 
ENDROOT
BRANCH   1   8
ATOM      4  C   UNL     1      46.530   2.745   7.453  0.00  0.00    +0.000 A 
ATOM      5  C   UNL     1      46.307   4.075   7.786  0.00  0.00    +0.000 A 
ATOM      6  C   UNL     1      45.565   4.374   8.932  0.00  0.00    +0.000 A 
ATOM      7  C   UNL     1      45.070   3.342   9.723  0.00  0.00    +0.000 A 
ATOM      8  N   UNL     1      44.291   3.553  10.858  0.00  0.00    +0.000 N 
ATOM      9  N   UNL     1      45.294   2.046   9.413  0.00  0.00    +0.000 NA
ATOM     10  C   UNL     1      46.003   1.774   8.288  0.00  0.00    +0.000 A 
ATOM     11  H   UNL     1      44.114   2.671  11.323  0.00  0.00    +0.000 HD
BRANCH   4  13
ATOM     12  N   UNL     1      47.135   3.104   5.121  0.00  0.00    +0.000 N 
ATOM     13  C   UNL     1      47.259   2.321   6.234  0.00  0.00    +0.000 C 
ATOM     14  O   UNL     1      47.960   1.318   6.226  0.00  0.00    +0.000 OA
ATOM     15  H   UNL     1      47.694   2.839   4.320  0.00  0.00    +0.000 HD
ATOM     16  H   UNL     1      46.765   4.043   5.144  0.00  0.00    +0.000 HD
ENDBRANCH   4  13
ENDBRANCH   1   8
BRANCH   1  17
ATOM     17  C   UNL     1      45.436   5.506  12.027  0.00  0.00    +0.000 A 
ATOM     18  C   UNL     1      45.946   6.638  11.397  0.00  0.00    +0.000 A 
ATOM     19  C   UNL     1      47.019   7.313  11.972  0.00  0.00    +0.000 A 
ATOM     20  C   UNL     1      47.570   6.839  13.160  0.00  0.00    +0.000 A 
ATOM     21  C   UNL     1      47.058   5.677  13.728  0.00  0.00    +0.000 A 
ATOM     22  N   UNL     1      46.016   5.023  13.159  0.00  0.00    +0.000 NA
BRANCH  21  23
ATOM     23  C   UNL     1      47.537   5.097  15.003  0.00  0.00    +0.000 A 
ATOM     24  C   UNL     1      48.387   5.841  15.847  0.00  0.00    +0.000 A 
ATOM     25  C   UNL     1      48.877   5.319  17.047  0.00  0.00    +0.000 A 
ATOM     26  C   UNL     1      48.521   4.034  17.438  0.00  0.00    +0.000 A 
ATOM     27  C   UNL     1      47.672   3.278  16.632  0.00  0.00    +0.000 A 
ATOM     28  C   UNL     1      47.183   3.806  15.431  0.00  0.00    +0.000 A 
ENDBRANCH  21  23
ENDBRANCH   1  17
TORSDOF 4
ENDMDL
MODEL 3
REMARK VINA RESULT:    -6.976      2.813      6.931
REMARK INTER + INTRA:          -9.419
REMARK INTER:                  -8.895
REMARK INTRA:                  -0.525
REMARK UNBOUND:                -0.812
REMARK  Name = 
REMARK  4 active torsions:
REMARK  status: ('A' for Active; 'I' for Inactive)
REMARK    1  A    between atoms: C_2  and  C_4
REMARK    2  A    between atoms: N_8  and  C_9
REMARK    3  A    between atoms: C_9  and  C_10
REMARK    4  A    between atoms: C_14  and  C_15
REMARK                            x       y       z     vdW  Elec       q    Type
REMARK                         _______ _______ _______ _____ _____    ______ ____
ROOT
ATOM      1  C   UNL     1      46.199   5.558  13.417  0.00  0.00    +0.000 C 
ATOM      2  C   UNL     1      46.399   4.584  14.572  0.00  0.00    +0.000 C 
ATOM      3  C   UNL     1      47.457   4.705  13.526  0.00  0.00    +0.000 C 
ENDROOT
BRANCH   1   8
ATOM      4  C   UNL     1      48.829   9.652  11.618  0.00  0.00    +0.000 A 
ATOM      5  C   UNL     1      49.040   8.292  11.431  0.00  0.00    +0.000 A 
ATOM      6  C   UNL     1      48.214   7.378  12.092  0.00  0.00    +0.000 A 
ATOM      7  C   UNL     1      47.193   7.840  12.916  0.00  0.00    +0.000 A 
ATOM      8  N   UNL     1      46.352   6.999  13.639  0.00  0.00    +0.000 N 
ATOM      9  N   UNL     1      46.973   9.162  13.093  0.00  0.00    +0.000 NA
ATOM     10  C   UNL     1      47.795  10.036  12.456  0.00  0.00    +0.000 A 
ATOM     11  H   UNL     1      45.634   7.543  14.100  0.00  0.00    +0.000 HD
BRANCH   4  13
ATOM     12  N   UNL     1      50.970  10.800  11.441  0.00  0.00    +0.000 N 
ATOM     13  C   UNL     1      49.678  10.701  11.006  0.00  0.00    +0.000 C 
ATOM     14  O   UNL     1      49.248  11.441  10.131  0.00  0.00    +0.000 OA
ATOM     15  H   UNL     1      51.555  11.475  10.964  0.00  0.00    +0.000 HD
ATOM     16  H   UNL     1      51.428  10.080  11.981  0.00  0.00    +0.000 HD
ENDBRANCH   4  13
ENDBRANCH   1   8
BRANCH   1  17
ATOM     17  C   UNL     1      45.170   5.143  12.354  0.00  0.00    +0.000 A 
ATOM     18  C   UNL     1      43.840   5.553  12.421  0.00  0.00    +0.000 A 
ATOM     19  C   UNL     1      42.995   5.305  11.344  0.00  0.00    +0.000 A 
ATOM     20  C   UNL     1      43.490   4.642  10.223  0.00  0.00    +0.000 A 
ATOM     21  C   UNL     1      44.811   4.209  10.221  0.00  0.00    +0.000 A 
ATOM     22  N   UNL     1      45.627   4.450  11.276  0.00  0.00    +0.000 NA
BRANCH  21  23
ATOM     23  C   UNL     1      45.458   3.525   9.077  0.00  0.00    +0.000 A 
ATOM     24  C   UNL     1      45.579   2.120   9.065  0.00  0.00    +0.000 A 
ATOM     25  C   UNL     1      46.202   1.441   8.015  0.00  0.00    +0.000 A 
ATOM     26  C   UNL     1      46.718   2.156   6.941  0.00  0.00    +0.000 A 
ATOM     27  C   UNL     1      46.603   3.544   6.916  0.00  0.00    +0.000 A 
ATOM     28  C   UNL     1      45.976   4.219   7.970  0.00  0.00    +0.000 A 
ENDBRANCH  21  23
ENDBRANCH   1  17
TORSDOF 4
ENDMDL
MODEL 4
REMARK VINA RESULT:    -6.955      3.443      7.421
REMARK INTER + INTRA:          -9.394
REMARK INTER:                  -9.504
REMARK INTRA:                   0.110
REMARK UNBOUND:                -0.812
REMARK  Name = 
REMARK  4 active torsions:
REMARK  status: ('A' for Active; 'I' for Inactive)
REMARK    1  A    between atoms: C_2  and  C_4
REMARK    2  A    between atoms: N_8  and  C_9
REMARK    3  A    between atoms: C_9  and  C_10
REMARK    4  A    between atoms: C_14  and  C_15
REMARK                            x       y       z     vdW  Elec       q    Type
REMARK                         _______ _______ _______ _____ _____    ______ ____
ROOT
ATOM      1  C   UNL     1      48.634   7.805  12.562  0.00  0.00    +0.000 C 
ATOM      2  C   UNL     1      49.607   7.441  11.448  0.00  0.00    +0.000 C 
ATOM      3  C   UNL     1      49.394   8.878  11.792  0.00  0.00    +0.000 C 
ENDROOT
BRANCH   1   8
ATOM      4  C   UNL     1      47.845   4.529  16.506  0.00  0.00    +0.000 A 
ATOM      5  C   UNL     1      47.157   4.681  15.310  0.00  0.00    +0.000 A 
ATOM      6  C   UNL     1      47.536   5.701  14.432  0.00  0.00    +0.000 A 
ATOM      7  C   UNL     1      48.597   6.537  14.763  0.00  0.00    +0.000 A 
ATOM      8  N   UNL     1      49.014   7.598  13.963  0.00  0.00    +0.000 N 
ATOM      9  N   UNL     1      49.281   6.386  15.918  0.00  0.00    +0.000 NA
ATOM     10  C   UNL     1      48.889   5.402  16.767  0.00  0.00    +0.000 A 
ATOM     11  H   UNL     1      49.850   8.016  14.352  0.00  0.00    +0.000 HD
BRANCH   4  13
ATOM     12  N   UNL     1      48.340   3.364  18.588  0.00  0.00    +0.000 N 
ATOM     13  C   UNL     1      47.491   3.515  17.527  0.00  0.00    +0.000 C 
ATOM     14  O   UNL     1      46.468   2.848  17.437  0.00  0.00    +0.000 OA
ATOM     15  H   UNL     1      48.047   2.717  19.310  0.00  0.00    +0.000 HD
ATOM     16  H   UNL     1      49.057   4.035  18.822  0.00  0.00    +0.000 HD
ENDBRANCH   4  13
ENDBRANCH   1   8
BRANCH   1  17
ATOM     17  C   UNL     1      47.141   7.643  12.236  0.00  0.00    +0.000 A 
ATOM     18  C   UNL     1      46.221   8.659  12.482  0.00  0.00    +0.000 A 
ATOM     19  C   UNL     1      44.921   8.533  12.002  0.00  0.00    +0.000 A 
ATOM     20  C   UNL     1      44.559   7.389  11.295  0.00  0.00    +0.000 A 
ATOM     21  C   UNL     1      45.498   6.379  11.115  0.00  0.00    +0.000 A 
ATOM     22  N   UNL     1      46.762   6.507  11.590  0.00  0.00    +0.000 NA
BRANCH  21  23
ATOM     23  C   UNL     1      45.242   5.134  10.354  0.00  0.00    +0.000 A 
ATOM     24  C   UNL     1      45.702   5.006   9.027  0.00  0.00    +0.000 A 
ATOM     25  C   UNL     1      45.461   3.858   8.269  0.00  0.00    +0.000 A 
ATOM     26  C   UNL     1      44.756   2.798   8.827  0.00  0.00    +0.000 A 
ATOM     27  C   UNL     1      44.300   2.888  10.140  0.00  0.00    +0.000 A 
ATOM     28  C   UNL     1      44.545   4.041  10.896  0.00  0.00    +0.000 A 
ENDBRANCH  21  23
ENDBRANCH   1  17
TORSDOF 4
ENDMDL
MODEL 5
REMARK VINA RESULT:    -6.688      3.104      7.060
REMARK INTER + INTRA:          -9.064
REMARK INTER:                  -9.009
REMARK INTRA:                  -0.055
REMARK UNBOUND:                -0.812
REMARK  Name = 
REMARK  4 active torsions:
REMARK  status: ('A' for Active; 'I' for Inactive)
REMARK    1  A    between atoms: C_2  and  C_4
REMARK    2  A    between atoms: N_8  and  C_9
REMARK    3  A    between atoms: C_9  and  C_10
REMARK    4  A    between atoms: C_14  and  C_15
REMARK                            x       y       z     vdW  Elec       q    Type
REMARK                         _______ _______ _______ _____ _____    ______ ____
ROOT
ATOM      1  C   UNL     1      45.039   6.133  11.514  0.00  0.00    +0.000 C 
ATOM      2  C   UNL     1      43.824   7.052  11.506  0.00  0.00    +0.000 C 
ATOM      3  C   UNL     1      44.384   6.591  12.811  0.00  0.00    +0.000 C 
ENDROOT
BRANCH   1   8
ATOM      4  C   UNL     1      49.539   7.273  13.830  0.00  0.00    +0.000 A 
ATOM      5  C   UNL     1      48.288   7.007  14.372  0.00  0.00    +0.000 A 
ATOM      6  C   UNL     1      47.206   6.792  13.514  0.00  0.00    +0.000 A 
ATOM      7  C   UNL     1      47.398   6.838  12.136  0.00  0.00    +0.000 A 
ATOM      8  N   UNL     1      46.368   6.673  11.214  0.00  0.00    +0.000 N 
ATOM      9  N   UNL     1      48.615   7.083  11.602  0.00  0.00    +0.000 NA
ATOM     10  C   UNL     1      49.651   7.306  12.450  0.00  0.00    +0.000 A 
ATOM     11  H   UNL     1      46.746   6.660  10.275  0.00  0.00    +0.000 HD
BRANCH   4  13
ATOM     12  N   UNL     1      51.814   8.123  14.020  0.00  0.00    +0.000 N 
ATOM     13  C   UNL     1      50.738   7.565  14.651  0.00  0.00    +0.000 C 
ATOM     14  O   UNL     1      50.761   7.334  15.853  0.00  0.00    +0.000 OA
ATOM     15  H   UNL     1      52.597   8.380  14.608  0.00  0.00    +0.000 HD
ATOM     16  H   UNL     1      51.762   8.537  13.101  0.00  0.00    +0.000 HD
ENDBRANCH   4  13
ENDBRANCH   1   8
BRANCH   1  17
ATOM     17  C   UNL     1      44.789   4.678  11.086  0.00  0.00    +0.000 A 
ATOM     18  C   UNL     1      43.834   3.882  11.714  0.00  0.00    +0.000 A 
ATOM     19  C   UNL     1      43.520   2.640  11.173  0.00  0.00    +0.000 A 
ATOM     20  C   UNL     1      44.172   2.208  10.020  0.00  0.00    +0.000 A 
ATOM     21  C   UNL     1      45.153   3.017   9.455  0.00  0.00    +0.000 A 
ATOM     22  N   UNL     1      45.457   4.225   9.991  0.00  0.00    +0.000 NA
BRANCH  21  23
ATOM     23  C   UNL     1      45.889   2.683   8.214  0.00  0.00    +0.000 A 
ATOM     24  C   UNL     1      46.441   1.397   8.040  0.00  0.00    +0.000 A 
ATOM     25  C   UNL     1      47.161   1.051   6.893  0.00  0.00    +0.000 A 
ATOM     26  C   UNL     1      47.342   1.988   5.883  0.00  0.00    +0.000 A 
ATOM     27  C   UNL     1      46.797   3.263   6.019  0.00  0.00    +0.000 A 
ATOM     28  C   UNL     1      46.075   3.604   7.169  0.00  0.00    +0.000 A 
ENDBRANCH  21  23
ENDBRANCH   1  17
TORSDOF 4
ENDMDL
MODEL 6
REMARK VINA RESULT:    -6.543      5.769      8.547
REMARK INTER + INTRA:          -8.885
REMARK INTER:                  -8.418
REMARK INTRA:                  -0.467
REMARK UNBOUND:                -0.812
REMARK  Name = 
REMARK  4 active torsions:
REMARK  status: ('A' for Active; 'I' for Inactive)
REMARK    1  A    between atoms: C_2  and  C_4
REMARK    2  A    between atoms: N_8  and  C_9
REMARK    3  A    between atoms: C_9  and  C_10
REMARK    4  A    between atoms: C_14  and  C_15
REMARK                            x       y       z     vdW  Elec       q    Type
REMARK                         _______ _______ _______ _____ _____    ______ ____
ROOT
ATOM      1  C   UNL     1      48.630   5.258  17.567  0.00  0.00    +0.000 C 
ATOM      2  C   UNL     1      47.406   5.554  18.425  0.00  0.00    +0.000 C 
ATOM      3  C   UNL     1      47.531   4.221  17.765  0.00  0.00    +0.000 C 
ENDROOT
BRANCH   1   8
ATOM      4  C   UNL     1      52.369   1.665  17.713  0.00  0.00    +0.000 A 
ATOM      5  C   UNL     1      51.070   1.595  17.228  0.00  0.00    +0.000 A 
ATOM      6  C   UNL     1      50.228   2.702  17.372  0.00  0.00    +0.000 A 
ATOM      7  C   UNL     1      50.705   3.855  17.987  0.00  0.00    +0.000 A 
ATOM      8  N   UNL     1      49.922   4.986  18.203  0.00  0.00    +0.000 N 
ATOM      9  N   UNL     1      51.972   3.936  18.450  0.00  0.00    +0.000 NA
ATOM     10  C   UNL     1      52.770   2.846  18.317  0.00  0.00    +0.000 A 
ATOM     11  H   UNL     1      50.491   5.731  18.586  0.00  0.00    +0.000 HD
BRANCH   4  13
ATOM     12  N   UNL     1      53.033  -0.574  18.405  0.00  0.00    +0.000 N 
ATOM     13  C   UNL     1      53.323   0.533  17.657  0.00  0.00    +0.000 C 
ATOM     14  O   UNL     1      54.325   0.576  16.955  0.00  0.00    +0.000 OA
ATOM     15  H   UNL     1      53.658  -1.364  18.302  0.00  0.00    +0.000 HD
ATOM     16  H   UNL     1      52.124  -0.745  18.809  0.00  0.00    +0.000 HD
ENDBRANCH   4  13
ENDBRANCH   1   8
BRANCH   1  17
ATOM     17  C   UNL     1      48.684   5.961  16.202  0.00  0.00    +0.000 A 
ATOM     18  C   UNL     1      49.686   6.874  15.885  0.00  0.00    +0.000 A 
ATOM     19  C   UNL     1      49.795   7.341  14.579  0.00  0.00    +0.000 A 
ATOM     20  C   UNL     1      48.894   6.897  13.614  0.00  0.00    +0.000 A 
ATOM     21  C   UNL     1      47.879   6.022  13.987  0.00  0.00    +0.000 A 
ATOM     22  N   UNL     1      47.777   5.575  15.263  0.00  0.00    +0.000 NA
BRANCH  21  23
ATOM     23  C   UNL     1      46.885   5.456  13.047  0.00  0.00    +0.000 A 
ATOM     24  C   UNL     1      46.534   6.159  11.876  0.00  0.00    +0.000 A 
ATOM     25  C   UNL     1      45.584   5.668  10.977  0.00  0.00    +0.000 A 
ATOM     26  C   UNL     1      44.963   4.450  11.225  0.00  0.00    +0.000 A 
ATOM     27  C   UNL     1      45.298   3.724  12.366  0.00  0.00    +0.000 A 
ATOM     28  C   UNL     1      46.252   4.220  13.263  0.00  0.00    +0.000 A 
ENDBRANCH  21  23
ENDBRANCH   1  17
TORSDOF 4
ENDMDL
MODEL 7
REMARK VINA RESULT:    -6.422      3.482      6.546
REMARK INTER + INTRA:          -8.736
REMARK INTER:                  -8.055
REMARK INTRA:                  -0.681
REMARK UNBOUND:                -0.812
REMARK  Name = 
REMARK  4 active torsions:
REMARK  status: ('A' for Active; 'I' for Inactive)
REMARK    1  A    between atoms: C_2  and  C_4
REMARK    2  A    between atoms: N_8  and  C_9
REMARK    3  A    between atoms: C_9  and  C_10
REMARK    4  A    between atoms: C_14  and  C_15
REMARK                            x       y       z     vdW  Elec       q    Type
REMARK                         _______ _______ _______ _____ _____    ______ ____
ROOT
ATOM      1  C   UNL     1      48.307   8.311  13.369  0.00  0.00    +0.000 C 
ATOM      2  C   UNL     1      49.271   9.261  12.668  0.00  0.00    +0.000 C 
ATOM      3  C   UNL     1      49.381   7.792  12.422  0.00  0.00    +0.000 C 
ENDROOT
BRANCH   1   8
ATOM      4  C   UNL     1      44.679   4.776  12.247  0.00  0.00    +0.000 A 
ATOM      5  C   UNL     1      46.051   4.638  12.412  0.00  0.00    +0.000 A 
ATOM      6  C   UNL     1      46.826   5.778  12.647  0.00  0.00    +0.000 A 
ATOM      7  C   UNL     1      46.214   7.025  12.721  0.00  0.00    +0.000 A 
ATOM      8  N   UNL     1      46.917   8.212  12.914  0.00  0.00    +0.000 N 
ATOM      9  N   UNL     1      44.879   7.166  12.574  0.00  0.00    +0.000 NA
ATOM     10  C   UNL     1      44.144   6.051  12.330  0.00  0.00    +0.000 A 
ATOM     11  H   UNL     1      46.268   8.983  13.020  0.00  0.00    +0.000 HD
BRANCH   4  13
ATOM     12  N   UNL     1      43.847   2.544  12.756  0.00  0.00    +0.000 N 
ATOM     13  C   UNL     1      43.777   3.640  11.943  0.00  0.00    +0.000 C 
ATOM     14  O   UNL     1      42.985   3.686  11.011  0.00  0.00    +0.000 OA
ATOM     15  H   UNL     1      43.176   1.808  12.577  0.00  0.00    +0.000 HD
ATOM     16  H   UNL     1      44.306   2.551  13.655  0.00  0.00    +0.000 HD
ENDBRANCH   4  13
ENDBRANCH   1   8
BRANCH   1  17
ATOM     17  C   UNL     1      48.543   8.095  14.872  0.00  0.00    +0.000 A 
ATOM     18  C   UNL     1      48.276   9.092  15.807  0.00  0.00    +0.000 A 
ATOM     19  C   UNL     1      48.332   8.787  17.164  0.00  0.00    +0.000 A 
ATOM     20  C   UNL     1      48.664   7.494  17.563  0.00  0.00    +0.000 A 
ATOM     21  C   UNL     1      48.969   6.544  16.594  0.00  0.00    +0.000 A 
ATOM     22  N   UNL     1      48.917   6.851  15.274  0.00  0.00    +0.000 NA
BRANCH  21  23
ATOM     23  C   UNL     1      49.303   5.132  16.892  0.00  0.00    +0.000 A 
ATOM     24  C   UNL     1      50.591   4.789  17.352  0.00  0.00    +0.000 A 
ATOM     25  C   UNL     1      50.951   3.466  17.623  0.00  0.00    +0.000 A 
ATOM     26  C   UNL     1      50.021   2.448  17.446  0.00  0.00    +0.000 A 
ATOM     27  C   UNL     1      48.735   2.757  17.007  0.00  0.00    +0.000 A 
ATOM     28  C   UNL     1      48.380   4.084  16.738  0.00  0.00    +0.000 A 
ENDBRANCH  21  23
ENDBRANCH   1  17
TORSDOF 4
ENDMDL
MODEL 8
REMARK VINA RESULT:    -6.215      2.943      5.681
REMARK INTER + INTRA:          -8.480
REMARK INTER:                  -8.004
REMARK INTRA:                  -0.476
REMARK UNBOUND:                -0.812
REMARK  Name = 
REMARK  4 active torsions:
REMARK  status: ('A' for Active; 'I' for Inactive)
REMARK    1  A    between atoms: C_2  and  C_4
REMARK    2  A    between atoms: N_8  and  C_9
REMARK    3  A    between atoms: C_9  and  C_10
REMARK    4  A    between atoms: C_14  and  C_15
REMARK                            x       y       z     vdW  Elec       q    Type
REMARK                         _______ _______ _______ _____ _____    ______ ____
ROOT
ATOM      1  C   UNL     1      47.228   8.195  12.673  0.00  0.00    +0.000 C 
ATOM      2  C   UNL     1      46.006   8.863  13.291  0.00  0.00    +0.000 C 
ATOM      3  C   UNL     1      46.945   9.677  12.464  0.00  0.00    +0.000 C 
ENDROOT
BRANCH   1   8
ATOM      4  C   UNL     1      44.682   3.940  11.147  0.00  0.00    +0.000 A 
ATOM      5  C   UNL     1      44.886   4.460  12.418  0.00  0.00    +0.000 A 
ATOM      6  C   UNL     1      45.679   5.602  12.566  0.00  0.00    +0.000 A 
ATOM      7  C   UNL     1      46.241   6.203  11.444  0.00  0.00    +0.000 A 
ATOM      8  N   UNL     1      47.072   7.318  11.508  0.00  0.00    +0.000 N 
ATOM      9  N   UNL     1      46.036   5.710  10.203  0.00  0.00    +0.000 NA
ATOM     10  C   UNL     1      45.277   4.591  10.079  0.00  0.00    +0.000 A 
ATOM     11  H   UNL     1      47.296   7.635  10.573  0.00  0.00    +0.000 HD
BRANCH   4  13
ATOM     12  N   UNL     1      44.272   1.940   9.817  0.00  0.00    +0.000 N 
ATOM     13  C   UNL     1      43.902   2.707  10.887  0.00  0.00    +0.000 C 
ATOM     14  O   UNL     1      42.973   2.374  11.610  0.00  0.00    +0.000 OA
ATOM     15  H   UNL     1      43.775   1.067   9.695  0.00  0.00    +0.000 HD
ATOM     16  H   UNL     1      45.156   2.047   9.340  0.00  0.00    +0.000 HD
ENDBRANCH   4  13
ENDBRANCH   1   8
BRANCH   1  17
ATOM     17  C   UNL     1      48.364   7.834  13.642  0.00  0.00    +0.000 A 
ATOM     18  C   UNL     1      49.505   8.624  13.763  0.00  0.00    +0.000 A 
ATOM     19  C   UNL     1      50.415   8.357  14.780  0.00  0.00    +0.000 A 
ATOM     20  C   UNL     1      50.177   7.298  15.653  0.00  0.00    +0.000 A 
ATOM     21  C   UNL     1      49.048   6.506  15.465  0.00  0.00    +0.000 A 
ATOM     22  N   UNL     1      48.168   6.771  14.468  0.00  0.00    +0.000 NA
BRANCH  21  23
ATOM     23  C   UNL     1      48.671   5.377  16.346  0.00  0.00    +0.000 A 
ATOM     24  C   UNL     1      47.515   4.618  16.071  0.00  0.00    +0.000 A 
ATOM     25  C   UNL     1      47.114   3.560  16.891  0.00  0.00    +0.000 A 
ATOM     26  C   UNL     1      47.869   3.229  18.010  0.00  0.00    +0.000 A 
ATOM     27  C   UNL     1      49.024   3.951  18.301  0.00  0.00    +0.000 A 
ATOM     28  C   UNL     1      49.422   5.010  17.476  0.00  0.00    +0.000 A 
ENDBRANCH  21  23
ENDBRANCH   1  17
TORSDOF 4
ENDMDL
MODEL 9
REMARK VINA RESULT:    -5.961      3.298      6.759
REMARK INTER + INTRA:          -8.167
REMARK INTER:                  -8.940
REMARK INTRA:                   0.773
REMARK UNBOUND:                -0.812
REMARK  Name = 
REMARK  4 active torsions:
REMARK  status: ('A' for Active; 'I' for Inactive)
REMARK    1  A    between atoms: C_2  and  C_4
REMARK    2  A    between atoms: N_8  and  C_9
REMARK    3  A    between atoms: C_9  and  C_10
REMARK    4  A    between atoms: C_14  and  C_15
REMARK                            x       y       z     vdW  Elec       q    Type
REMARK                         _______ _______ _______ _____ _____    ______ ____
ROOT
ATOM      1  C   UNL     1      46.312   5.367  13.574  0.00  0.00    +0.000 C 
ATOM      2  C   UNL     1      46.683   4.624  14.852  0.00  0.00    +0.000 C 
ATOM      3  C   UNL     1      47.650   4.651  13.715  0.00  0.00    +0.000 C 
ENDROOT
BRANCH   1   8
ATOM      4  C   UNL     1      44.148   9.392  11.118  0.00  0.00    +0.000 A 
ATOM      5  C   UNL     1      44.164   8.042  10.795  0.00  0.00    +0.000 A 
ATOM      6  C   UNL     1      44.888   7.157  11.601  0.00  0.00    +0.000 A 
ATOM      7  C   UNL     1      45.571   7.639  12.713  0.00  0.00    +0.000 A 
ATOM      8  N   UNL     1      46.344   6.833  13.544  0.00  0.00    +0.000 N 
ATOM      9  N   UNL     1      45.549   8.949  13.042  0.00  0.00    +0.000 NA
ATOM     10  C   UNL     1      44.855   9.796  12.239  0.00  0.00    +0.000 A 
ATOM     11  H   UNL     1      46.678   7.372  14.334  0.00  0.00    +0.000 HD
BRANCH   4  13
ATOM     12  N   UNL     1      43.630  10.369   8.948  0.00  0.00    +0.000 N 
ATOM     13  C   UNL     1      43.456  10.418  10.303  0.00  0.00    +0.000 C 
ATOM     14  O   UNL     1      42.740  11.267  10.818  0.00  0.00    +0.000 OA
ATOM     15  H   UNL     1      43.095  11.033   8.402  0.00  0.00    +0.000 HD
ATOM     16  H   UNL     1      44.013   9.568   8.468  0.00  0.00    +0.000 HD
ENDBRANCH   4  13
ENDBRANCH   1   8
BRANCH   1  17
ATOM     17  C   UNL     1      45.255   4.696  12.684  0.00  0.00    +0.000 A 
ATOM     18  C   UNL     1      43.903   4.703  13.018  0.00  0.00    +0.000 A 
ATOM     19  C   UNL     1      42.970   4.244  12.093  0.00  0.00    +0.000 A 
ATOM     20  C   UNL     1      43.405   3.776  10.855  0.00  0.00    +0.000 A 
ATOM     21  C   UNL     1      44.768   3.743  10.585  0.00  0.00    +0.000 A 
ATOM     22  N   UNL     1      45.672   4.187  11.493  0.00  0.00    +0.000 NA
BRANCH  21  23
ATOM     23  C   UNL     1      45.348   3.299   9.296  0.00  0.00    +0.000 A 
ATOM     24  C   UNL     1      45.557   1.927   9.046  0.00  0.00    +0.000 A 
ATOM     25  C   UNL     1      46.121   1.472   7.852  0.00  0.00    +0.000 A 
ATOM     26  C   UNL     1      46.487   2.384   6.869  0.00  0.00    +0.000 A 
ATOM     27  C   UNL     1      46.281   3.745   7.080  0.00  0.00    +0.000 A 
ATOM     28  C   UNL     1      45.714   4.197   8.278  0.00  0.00    +0.000 A 
ENDBRANCH  21  23
ENDBRANCH   1  17
TORSDOF 4
ENDMDL
