MODEL 1
REMARK VINA RESULT:    -8.257      0.000      0.000
REMARK INTER + INTRA:         -10.538
REMARK INTER:                 -10.187
REMARK INTRA:                  -0.351
REMARK UNBOUND:                -0.351
REMARK  Name = 
REMARK  4 active torsions:
REMARK  status: ('A' for Active; 'I' for Inactive)
REMARK    1  A    between atoms: C_2  and  C_4
REMARK    2  A    between atoms: C_7  and  N_8
REMARK    3  A    between atoms: N_8  and  C_9
REMARK    4  A    between atoms: C_9  and  C_10
REMARK                            x       y       z     vdW  Elec       q    Type
REMARK                         _______ _______ _______ _____ _____    ______ ____
ROOT
ATOM      1  C   UNL     1      46.500   2.544   7.681  0.00  0.00    +0.000 A 
ATOM      2  C   UNL     1      46.429   3.921   7.550  0.00  0.00    +0.000 A 
ATOM      3  N   UNL     1      45.609   4.690   8.318  0.00  0.00    +0.000 NA
ATOM      4  C   UNL     1      44.837   4.043   9.220  0.00  0.00    +0.000 A 
ATOM      5  C   UNL     1      44.907   2.643   9.314  0.00  0.00    +0.000 A 
ATOM      6  N   UNL     1      45.740   1.860   8.577  0.00  0.00    +0.000 NA
ENDROOT
BRANCH   1   8
ATOM      7  N   UNL     1      48.546   2.422   6.386  0.00  0.00    +0.000 N 
ATOM      8  C   UNL     1      47.432   1.756   6.823  0.00  0.00    +0.000 C 
ATOM      9  O   UNL     1      47.217   0.591   6.521  0.00  0.00    +0.000 OA
ATOM     10  H   UNL     1      49.218   1.946   5.803  0.00  0.00    +0.000 HD
ATOM     11  H   UNL     1      48.695   3.389   6.653  0.00  0.00    +0.000 HD
ENDBRANCH   1   8
BRANCH   4  12
ATOM     12  N   UNL     1      43.903   4.745  10.023  0.00  0.00    +0.000 N 
ATOM     13  H   UNL     1      42.958   4.525   9.730  0.00  0.00    +0.000 HD
BRANCH  12  14
ATOM     14  C   UNL     1      44.074   4.728  11.500  0.00  0.00    +0.000 C 
ATOM     15  C   UNL     1      43.291   3.718  12.324  0.00  0.00    +0.000 C 
ATOM     16  C   UNL     1      42.871   5.149  12.344  0.00  0.00    +0.000 C 
BRANCH  14  17
ATOM     17  C   UNL     1      45.427   5.211  12.001  0.00  0.00    +0.000 A 
ATOM     18  C   UNL     1      46.002   6.414  11.562  0.00  0.00    +0.000 A 
ATOM     19  C   UNL     1      47.195   6.880  12.113  0.00  0.00    +0.000 A 
ATOM     20  C   UNL     1      47.799   6.122  13.098  0.00  0.00    +0.000 A 
ATOM     21  N   UNL     1      47.314   4.944  13.538  0.00  0.00    +0.000 NA
ATOM     22  C   UNL     1      46.155   4.519  12.970  0.00  0.00    +0.000 A 
ENDBRANCH  14  17
ENDBRANCH  12  14
ENDBRANCH   4  12
TORSDOF 4
ENDMDL
MODEL 2
REMARK VINA RESULT:    -6.207      3.033      6.256
REMARK INTER + INTRA:          -8.009
REMARK INTER:                  -7.977
REMARK INTRA:                  -0.033
REMARK UNBOUND:                -0.351
REMARK  Name = 
REMARK  4 active torsions:
REMARK  status: ('A' for Active; 'I' for Inactive)
REMARK    1  A    between atoms: C_2  and  C_4
REMARK    2  A    between atoms: C_7  and  N_8
REMARK    3  A    between atoms: N_8  and  C_9
REMARK    4  A    between atoms: C_9  and  C_10
REMARK                            x       y       z     vdW  Elec       q    Type
REMARK                         _______ _______ _______ _____ _____    ______ ____
ROOT
ATOM      1  C   UNL     1      48.036   6.175  14.481  0.00  0.00    +0.000 A 
ATOM      2  C   UNL     1      47.447   6.512  13.274  0.00  0.00    +0.000 A 
ATOM      3  N   UNL     1      46.546   5.706  12.647  0.00  0.00    +0.000 NA
ATOM      4  C   UNL     1      46.255   4.532  13.253  0.00  0.00    +0.000 A 
ATOM      5  C   UNL     1      46.887   4.203  14.464  0.00  0.00    +0.000 A 
ATOM      6  N   UNL     1      47.768   5.005  15.120  0.00  0.00    +0.000 NA
ENDROOT
BRANCH   1   8
ATOM      7  N   UNL     1      48.452   8.089  15.911  0.00  0.00    +0.000 N 
ATOM      8  C   UNL     1      49.003   7.108  15.129  0.00  0.00    +0.000 C 
ATOM      9  O   UNL     1      50.212   7.012  14.972  0.00  0.00    +0.000 OA
ATOM     10  H   UNL     1      49.052   8.751  16.380  0.00  0.00    +0.000 HD
ATOM     11  H   UNL     1      47.446   8.142  16.022  0.00  0.00    +0.000 HD
ENDBRANCH   1   8
BRANCH   4  12
ATOM     12  N   UNL     1      45.378   3.594  12.652  0.00  0.00    +0.000 N 
ATOM     13  H   UNL     1      44.874   3.083  13.367  0.00  0.00    +0.000 HD
BRANCH  12  14
ATOM     14  C   UNL     1      44.510   4.042  11.532  0.00  0.00    +0.000 C 
ATOM     15  C   UNL     1      43.552   5.202  11.756  0.00  0.00    +0.000 C 
ATOM     16  C   UNL     1      43.006   3.815  11.684  0.00  0.00    +0.000 C 
BRANCH  14  17
ATOM     17  C   UNL     1      45.071   3.797  10.139  0.00  0.00    +0.000 A 
ATOM     18  C   UNL     1      45.171   2.510   9.588  0.00  0.00    +0.000 A 
ATOM     19  C   UNL     1      45.595   2.325   8.273  0.00  0.00    +0.000 A 
ATOM     20  C   UNL     1      45.921   3.445   7.528  0.00  0.00    +0.000 A 
ATOM     21  N   UNL     1      45.877   4.701   8.012  0.00  0.00    +0.000 NA
ATOM     22  C   UNL     1      45.468   4.840   9.299  0.00  0.00    +0.000 A 
ENDBRANCH  14  17
ENDBRANCH  12  14
ENDBRANCH   4  12
TORSDOF 4
ENDMDL
MODEL 3
REMARK VINA RESULT:    -5.791      3.210      6.225
REMARK INTER + INTRA:          -7.497
REMARK INTER:                  -8.111
REMARK INTRA:                   0.614
REMARK UNBOUND:                -0.351
REMARK  Name = 
REMARK  4 active torsions:
REMARK  status: ('A' for Active; 'I' for Inactive)
REMARK    1  A    between atoms: C_2  and  C_4
REMARK    2  A    between atoms: C_7  and  N_8
REMARK    3  A    between atoms: N_8  and  C_9
REMARK    4  A    between atoms: C_9  and  C_10
REMARK                            x       y       z     vdW  Elec       q    Type
REMARK                         _______ _______ _______ _____ _____    ______ ____
ROOT
ATOM      1  C   UNL     1      47.550   3.927  15.397  0.00  0.00    +0.000 A 
ATOM      2  C   UNL     1      47.565   5.310  15.327  0.00  0.00    +0.000 A 
ATOM      3  N   UNL     1      47.165   5.993  14.219  0.00  0.00    +0.000 NA
ATOM      4  C   UNL     1      46.761   5.254  13.162  0.00  0.00    +0.000 A 
ATOM      5  C   UNL     1      46.781   3.852  13.249  0.00  0.00    +0.000 A 
ATOM      6  N   UNL     1      47.149   3.152  14.354  0.00  0.00    +0.000 NA
ENDROOT
BRANCH   1   8
ATOM      7  N   UNL     1      46.983   2.904  17.521  0.00  0.00    +0.000 N 
ATOM      8  C   UNL     1      47.983   3.235  16.645  0.00  0.00    +0.000 C 
ATOM      9  O   UNL     1      49.155   2.981  16.880  0.00  0.00    +0.000 OA
ATOM     10  H   UNL     1      47.208   2.432  18.384  0.00  0.00    +0.000 HD
ATOM     11  H   UNL     1      46.020   3.129  17.297  0.00  0.00    +0.000 HD
ENDBRANCH   1   8
BRANCH   4  12
ATOM     12  N   UNL     1      46.385   5.867  11.939  0.00  0.00    +0.000 N 
ATOM     13  H   UNL     1      47.125   5.758  11.256  0.00  0.00    +0.000 HD
BRANCH  12  14
ATOM     14  C   UNL     1      45.034   5.590  11.385  0.00  0.00    +0.000 C 
ATOM     15  C   UNL     1      43.984   6.690  11.412  0.00  0.00    +0.000 C 
ATOM     16  C   UNL     1      43.870   5.557  12.375  0.00  0.00    +0.000 C 
BRANCH  14  17
ATOM     17  C   UNL     1      44.987   4.541  10.284  0.00  0.00    +0.000 A 
ATOM     18  C   UNL     1      45.550   4.761   9.017  0.00  0.00    +0.000 A 
ATOM     19  C   UNL     1      45.580   3.747   8.061  0.00  0.00    +0.000 A 
ATOM     20  C   UNL     1      45.033   2.520   8.393  0.00  0.00    +0.000 A 
ATOM     21  N   UNL     1      44.450   2.260   9.579  0.00  0.00    +0.000 NA
ATOM     22  C   UNL     1      44.432   3.275  10.480  0.00  0.00    +0.000 A 
ENDBRANCH  14  17
ENDBRANCH  12  14
ENDBRANCH   4  12
TORSDOF 4
ENDMDL
MODEL 4
REMARK VINA RESULT:    -5.626      3.215      5.264
REMARK INTER + INTRA:          -7.292
REMARK INTER:                  -7.092
REMARK INTRA:                  -0.200
REMARK UNBOUND:                -0.351
REMARK  Name = 
REMARK  4 active torsions:
REMARK  status: ('A' for Active; 'I' for Inactive)
REMARK    1  A    between atoms: C_2  and  C_4
REMARK    2  A    between atoms: C_7  and  N_8
REMARK    3  A    between atoms: N_8  and  C_9
REMARK    4  A    between atoms: C_9  and  C_10
REMARK                            x       y       z     vdW  Elec       q    Type
REMARK                         _______ _______ _______ _____ _____    ______ ____
ROOT
ATOM      1  C   UNL     1      44.680   4.058  11.680  0.00  0.00    +0.000 A 
ATOM      2  C   UNL     1      44.818   5.243  10.978  0.00  0.00    +0.000 A 
ATOM      3  N   UNL     1      45.430   6.341  11.503  0.00  0.00    +0.000 NA
ATOM      4  C   UNL     1      45.891   6.232  12.769  0.00  0.00    +0.000 A 
ATOM      5  C   UNL     1      45.714   5.027  13.470  0.00  0.00    +0.000 A 
ATOM      6  N   UNL     1      45.132   3.912  12.954  0.00  0.00    +0.000 NA
ENDROOT
BRANCH   1   8
ATOM      7  N   UNL     1      44.650   2.362   9.947  0.00  0.00    +0.000 N 
ATOM      8  C   UNL     1      44.017   2.882  11.045  0.00  0.00    +0.000 C 
ATOM      9  O   UNL     1      42.971   2.412  11.469  0.00  0.00    +0.000 OA
ATOM     10  H   UNL     1      44.254   1.565   9.471  0.00  0.00    +0.000 HD
ATOM     11  H   UNL     1      45.516   2.775   9.620  0.00  0.00    +0.000 HD
ENDBRANCH   1   8
BRANCH   4  12
ATOM     12  N   UNL     1      46.486   7.336  13.430  0.00  0.00    +0.000 N 
ATOM     13  H   UNL     1      46.426   7.213  14.434  0.00  0.00    +0.000 HD
BRANCH  12  14
ATOM     14  C   UNL     1      47.822   7.806  12.979  0.00  0.00    +0.000 C 
ATOM     15  C   UNL     1      48.893   6.779  12.644  0.00  0.00    +0.000 C 
ATOM     16  C   UNL     1      49.002   7.550  13.916  0.00  0.00    +0.000 C 
BRANCH  14  17
ATOM     17  C   UNL     1      47.831   9.150  12.267  0.00  0.00    +0.000 A 
ATOM     18  C   UNL     1      48.959   9.626  11.580  0.00  0.00    +0.000 A 
ATOM     19  C   UNL     1      48.906  10.815  10.854  0.00  0.00    +0.000 A 
ATOM     20  C   UNL     1      47.713  11.516  10.834  0.00  0.00    +0.000 A 
ATOM     21  N   UNL     1      46.608  11.127  11.499  0.00  0.00    +0.000 NA
ATOM     22  C   UNL     1      46.702   9.970  12.203  0.00  0.00    +0.000 A 
ENDBRANCH  14  17
ENDBRANCH  12  14
ENDBRANCH   4  12
TORSDOF 4
ENDMDL
MODEL 5
REMARK VINA RESULT:    -5.560      2.619      4.366
REMARK INTER + INTRA:          -7.211
REMARK INTER:                  -7.101
REMARK INTRA:                  -0.109
REMARK UNBOUND:                -0.351
REMARK  Name = 
REMARK  4 active torsions:
REMARK  status: ('A' for Active; 'I' for Inactive)
REMARK    1  A    between atoms: C_2  and  C_4
REMARK    2  A    between atoms: C_7  and  N_8
REMARK    3  A    between atoms: N_8  and  C_9
REMARK    4  A    between atoms: C_9  and  C_10
REMARK                            x       y       z     vdW  Elec       q    Type
REMARK                         _______ _______ _______ _____ _____    ______ ____
ROOT
ATOM      1  C   UNL     1      44.938   3.757  10.146  0.00  0.00    +0.000 A 
ATOM      2  C   UNL     1      45.002   3.277  11.443  0.00  0.00    +0.000 A 
ATOM      3  N   UNL     1      45.249   4.083  12.513  0.00  0.00    +0.000 NA
ATOM      4  C   UNL     1      45.451   5.394  12.252  0.00  0.00    +0.000 A 
ATOM      5  C   UNL     1      45.408   5.851  10.925  0.00  0.00    +0.000 A 
ATOM      6  N   UNL     1      45.135   5.069   9.846  0.00  0.00    +0.000 NA
ENDROOT
BRANCH   1   8
ATOM      7  N   UNL     1      44.433   3.420   7.799  0.00  0.00    +0.000 N 
ATOM      8  C   UNL     1      44.646   2.828   9.016  0.00  0.00    +0.000 C 
ATOM      9  O   UNL     1      44.592   1.616   9.162  0.00  0.00    +0.000 OA
ATOM     10  H   UNL     1      44.232   2.848   6.992  0.00  0.00    +0.000 HD
ATOM     11  H   UNL     1      44.483   4.429   7.710  0.00  0.00    +0.000 HD
ENDBRANCH   1   8
BRANCH   4  12
ATOM     12  N   UNL     1      45.779   6.306  13.288  0.00  0.00    +0.000 N 
ATOM     13  H   UNL     1      45.782   5.828  14.182  0.00  0.00    +0.000 HD
BRANCH  12  14
ATOM     14  C   UNL     1      46.945   7.209  13.105  0.00  0.00    +0.000 C 
ATOM     15  C   UNL     1      48.294   6.611  12.737  0.00  0.00    +0.000 C 
ATOM     16  C   UNL     1      48.075   7.102  14.129  0.00  0.00    +0.000 C 
BRANCH  14  17
ATOM     17  C   UNL     1      46.606   8.621  12.649  0.00  0.00    +0.000 A 
ATOM     18  C   UNL     1      47.570   9.482  12.102  0.00  0.00    +0.000 A 
ATOM     19  C   UNL     1      47.212  10.732  11.601  0.00  0.00    +0.000 A 
ATOM     20  C   UNL     1      45.881  11.104  11.665  0.00  0.00    +0.000 A 
ATOM     21  N   UNL     1      44.916  10.336  12.207  0.00  0.00    +0.000 NA
ATOM     22  C   UNL     1      45.306   9.129  12.693  0.00  0.00    +0.000 A 
ENDBRANCH  14  17
ENDBRANCH  12  14
ENDBRANCH   4  12
TORSDOF 4
ENDMDL
MODEL 6
REMARK VINA RESULT:    -5.427      3.290      6.079
REMARK INTER + INTRA:          -7.047
REMARK INTER:                  -7.378
REMARK INTRA:                   0.331
REMARK UNBOUND:                -0.351
REMARK  Name = 
REMARK  4 active torsions:
REMARK  status: ('A' for Active; 'I' for Inactive)
REMARK    1  A    between atoms: C_2  and  C_4
REMARK    2  A    between atoms: C_7  and  N_8
REMARK    3  A    between atoms: N_8  and  C_9
REMARK    4  A    between atoms: C_9  and  C_10
REMARK                            x       y       z     vdW  Elec       q    Type
REMARK                         _______ _______ _______ _____ _____    ______ ____
ROOT
ATOM      1  C   UNL     1      46.570   8.205  12.474  0.00  0.00    +0.000 A 
ATOM      2  C   UNL     1      47.510   7.199  12.625  0.00  0.00    +0.000 A 
ATOM      3  N   UNL     1      47.194   5.878  12.517  0.00  0.00    +0.000 NA
ATOM      4  C   UNL     1      45.898   5.581  12.270  0.00  0.00    +0.000 A 
ATOM      5  C   UNL     1      44.961   6.620  12.149  0.00  0.00    +0.000 A 
ATOM      6  N   UNL     1      45.260   7.944  12.224  0.00  0.00    +0.000 NA
ENDROOT
BRANCH   1   8
ATOM      7  N   UNL     1      46.035  10.555  12.214  0.00  0.00    +0.000 N 
ATOM      8  C   UNL     1      46.980   9.635  12.585  0.00  0.00    +0.000 C 
ATOM      9  O   UNL     1      48.088   9.971  12.976  0.00  0.00    +0.000 OA
ATOM     10  H   UNL     1      46.247  11.541  12.266  0.00  0.00    +0.000 HD
ATOM     11  H   UNL     1      45.125  10.245  11.893  0.00  0.00    +0.000 HD
ENDBRANCH   1   8
BRANCH   4  12
ATOM     12  N   UNL     1      45.455   4.236  12.203  0.00  0.00    +0.000 N 
ATOM     13  H   UNL     1      45.223   3.901  13.131  0.00  0.00    +0.000 HD
BRANCH  12  14
ATOM     14  C   UNL     1      44.443   3.865  11.180  0.00  0.00    +0.000 C 
ATOM     15  C   UNL     1      43.049   4.469  11.264  0.00  0.00    +0.000 C 
ATOM     16  C   UNL     1      43.245   3.042  11.652  0.00  0.00    +0.000 C 
BRANCH  14  17
ATOM     17  C   UNL     1      45.007   3.480   9.820  0.00  0.00    +0.000 A 
ATOM     18  C   UNL     1      45.341   4.438   8.850  0.00  0.00    +0.000 A 
ATOM     19  C   UNL     1      45.949   4.063   7.653  0.00  0.00    +0.000 A 
ATOM     20  C   UNL     1      46.206   2.720   7.444  0.00  0.00    +0.000 A 
ATOM     21  N   UNL     1      45.880   1.752   8.322  0.00  0.00    +0.000 NA
ATOM     22  C   UNL     1      45.281   2.156   9.472  0.00  0.00    +0.000 A 
ENDBRANCH  14  17
ENDBRANCH  12  14
ENDBRANCH   4  12
TORSDOF 4
ENDMDL
