MODEL 1
REMARK VINA RESULT:    -8.514      0.000      0.000
REMARK INTER + INTRA:         -13.636
REMARK INTER:                 -12.496
REMARK INTRA:                  -1.140
REMARK UNBOUND:                -1.140
REMARK  Name = 
REMARK  9 active torsions:
REMARK  status: ('A' for Active; 'I' for Inactive)
REMARK    1  A    between atoms: C_1  and  O_2
REMARK    2  A    between atoms: O_2  and  C_3
REMARK    3  A    between atoms: C_10  and  C_11
REMARK    4  A    between atoms: N_13  and  C_14
REMARK    5  A    between atoms: C_14  and  C_15
REMARK    6  A    between atoms: C_18  and  C_19
REMARK    7  A    between atoms: C_19  and  N_20
REMARK    8  A    between atoms: N_20  and  C_21
REMARK    9  A    between atoms: C_21  and  C_22
REMARK                            x       y       z     vdW  Elec       q    Type
REMARK                         _______ _______ _______ _____ _____    ______ ____
ROOT
ATOM      1  C   UNL     1      46.865   5.940  12.637  0.00  0.00    +0.000 A 
ATOM      2  C   UNL     1      46.325   6.287  11.397  0.00  0.00    +0.000 A 
ATOM      3  C   UNL     1      45.274   5.542  10.862  0.00  0.00    +0.000 A 
ATOM      4  C   UNL     1      44.771   4.466  11.589  0.00  0.00    +0.000 A 
ATOM      5  N   UNL     1      45.256   4.130  12.813  0.00  0.00    +0.000 NA
ATOM      6  C   UNL     1      46.282   4.866  13.302  0.00  0.00    +0.000 A 
ENDROOT
BRANCH   1   7
ATOM      7  C   UNL     1      48.001   6.709  13.247  0.00  0.00    +0.000 C 
BRANCH   7  10
ATOM      8  C   UNL     1      49.004   6.832  15.493  0.00  0.00    +0.000 C 
ATOM      9  O   UNL     1      50.138   6.871  15.020  0.00  0.00    +0.000 OA
ATOM     10  N   UNL     1      47.903   6.740  14.685  0.00  0.00    +0.000 N 
ATOM     11  H   UNL     1      46.985   6.642  15.098  0.00  0.00    +0.000 HD
BRANCH   8  19
ATOM     12  C   UNL     1      49.105   4.472  17.996  0.00  0.00    +0.000 A 
ATOM     13  N   UNL     1      49.011   3.761  19.135  0.00  0.00    +0.000 NA
ATOM     14  C   UNL     1      48.645   4.397  20.249  0.00  0.00    +0.000 A 
ATOM     15  N   UNL     1      48.361   5.689  20.374  0.00  0.00    +0.000 NA
ATOM     16  C   UNL     1      48.463   6.363  19.216  0.00  0.00    +0.000 A 
ATOM     17  S   UNL     1      48.144   8.030  19.190  0.00  0.00    +0.000 S 
ATOM     18  C   UNL     1      48.440   8.111  17.519  0.00  0.00    +0.000 A 
ATOM     19  C   UNL     1      48.775   6.889  16.947  0.00  0.00    +0.000 A 
ATOM     20  C   UNL     1      48.811   5.847  17.970  0.00  0.00    +0.000 A 
BRANCH  12  22
ATOM     21  C   UNL     1      49.903   2.463  17.083  0.00  0.00    +0.000 C 
ATOM     22  O   UNL     1      49.507   3.815  16.850  0.00  0.00    +0.000 OA
ENDBRANCH  12  22
ENDBRANCH   8  19
ENDBRANCH   7  10
ENDBRANCH   1   7
BRANCH   4  23
ATOM     23  C   UNL     1      43.640   3.622  11.028  0.00  0.00    +0.000 C 
BRANCH  23  24
ATOM     24  N   UNL     1      43.831   3.182   9.638  0.00  0.00    +0.000 NA
ATOM     25  H   UNL     1      44.211   3.982   9.126  0.00  0.00    +0.000 HD
BRANCH  24  26
ATOM     26  C   UNL     1      44.783   2.075   9.522  0.00  0.00    +0.000 C 
BRANCH  26  27
ATOM     27  C   UNL     1      45.654   2.243   8.302  0.00  0.00    +0.000 A 
ATOM     28  C   UNL     1      45.735   3.487   7.654  0.00  0.00    +0.000 A 
ATOM     29  C   UNL     1      46.550   3.650   6.535  0.00  0.00    +0.000 A 
ATOM     30  C   UNL     1      47.284   2.573   6.055  0.00  0.00    +0.000 A 
ATOM     31  F   UNL     1      48.067   2.733   4.980  0.00  0.00    +0.000 F 
ATOM     32  C   UNL     1      47.216   1.331   6.668  0.00  0.00    +0.000 A 
ATOM     33  C   UNL     1      46.400   1.177   7.783  0.00  0.00    +0.000 A 
ATOM     34  F   UNL     1      46.339  -0.029   8.367  0.00  0.00    +0.000 F 
ENDBRANCH  26  27
ENDBRANCH  24  26
ENDBRANCH  23  24
ENDBRANCH   4  23
TORSDOF 8
ENDMDL
MODEL 2
REMARK VINA RESULT:    -8.105      1.405      2.500
REMARK INTER + INTRA:         -13.035
REMARK INTER:                 -11.979
REMARK INTRA:                  -1.056
REMARK UNBOUND:                -1.140
REMARK  Name = 
REMARK  9 active torsions:
REMARK  status: ('A' for Active; 'I' for Inactive)
REMARK    1  A    between atoms: C_1  and  O_2
REMARK    2  A    between atoms: O_2  and  C_3
REMARK    3  A    between atoms: C_10  and  C_11
REMARK    4  A    between atoms: N_13  and  C_14
REMARK    5  A    between atoms: C_14  and  C_15
REMARK    6  A    between atoms: C_18  and  C_19
REMARK    7  A    between atoms: C_19  and  N_20
REMARK    8  A    between atoms: N_20  and  C_21
REMARK    9  A    between atoms: C_21  and  C_22
REMARK                            x       y       z     vdW  Elec       q    Type
REMARK                         _______ _______ _______ _____ _____    ______ ____
ROOT
ATOM      1  C   UNL     1      46.780   5.824  12.901  0.00  0.00    +0.000 A 
ATOM      2  C   UNL     1      46.090   4.752  13.469  0.00  0.00    +0.000 A 
ATOM      3  C   UNL     1      45.040   4.151  12.772  0.00  0.00    +0.000 A 
ATOM      4  C   UNL     1      44.711   4.629  11.507  0.00  0.00    +0.000 A 
ATOM      5  N   UNL     1      45.389   5.648  10.918  0.00  0.00    +0.000 NA
ATOM      6  C   UNL     1      46.397   6.217  11.623  0.00  0.00    +0.000 A 
ENDROOT
BRANCH   1   7
ATOM      7  C   UNL     1      47.910   6.505  13.619  0.00  0.00    +0.000 C 
BRANCH   7  10
ATOM      8  C   UNL     1      48.964   6.382  15.841  0.00  0.00    +0.000 C 
ATOM      9  O   UNL     1      50.053   6.719  15.379  0.00  0.00    +0.000 OA
ATOM     10  N   UNL     1      47.866   6.244  15.036  0.00  0.00    +0.000 N 
ATOM     11  H   UNL     1      46.998   5.902  15.427  0.00  0.00    +0.000 HD
BRANCH   8  19
ATOM     12  C   UNL     1      47.927   8.321  18.489  0.00  0.00    +0.000 A 
ATOM     13  N   UNL     1      47.628   8.856  19.687  0.00  0.00    +0.000 NA
ATOM     14  C   UNL     1      47.739   8.082  20.769  0.00  0.00    +0.000 A 
ATOM     15  N   UNL     1      48.113   6.808  20.805  0.00  0.00    +0.000 NA
ATOM     16  C   UNL     1      48.406   6.313  19.590  0.00  0.00    +0.000 A 
ATOM     17  S   UNL     1      48.896   4.694  19.445  0.00  0.00    +0.000 S 
ATOM     18  C   UNL     1      49.081   4.850  17.763  0.00  0.00    +0.000 A 
ATOM     19  C   UNL     1      48.788   6.119  17.279  0.00  0.00    +0.000 A 
ATOM     20  C   UNL     1      48.361   6.989  18.374  0.00  0.00    +0.000 A 
BRANCH  12  22
ATOM     21  C   UNL     1      48.909   9.973  17.143  0.00  0.00    +0.000 C 
ATOM     22  O   UNL     1      47.789   9.117  17.369  0.00  0.00    +0.000 OA
ENDBRANCH  12  22
ENDBRANCH   8  19
ENDBRANCH   7  10
ENDBRANCH   1   7
BRANCH   4  23
ATOM     23  C   UNL     1      43.562   4.011  10.728  0.00  0.00    +0.000 C 
BRANCH  23  24
ATOM     24  N   UNL     1      43.921   3.511   9.393  0.00  0.00    +0.000 NA
ATOM     25  H   UNL     1      44.341   4.296   8.889  0.00  0.00    +0.000 HD
BRANCH  24  26
ATOM     26  C   UNL     1      44.903   2.425   9.441  0.00  0.00    +0.000 C 
BRANCH  26  27
ATOM     27  C   UNL     1      45.778   2.440   8.213  0.00  0.00    +0.000 A 
ATOM     28  C   UNL     1      45.997   3.638   7.512  0.00  0.00    +0.000 A 
ATOM     29  C   UNL     1      46.818   3.659   6.385  0.00  0.00    +0.000 A 
ATOM     30  C   UNL     1      47.420   2.484   5.950  0.00  0.00    +0.000 A 
ATOM     31  F   UNL     1      48.208   2.508   4.867  0.00  0.00    +0.000 F 
ATOM     32  C   UNL     1      47.213   1.286   6.616  0.00  0.00    +0.000 A 
ATOM     33  C   UNL     1      46.393   1.274   7.738  0.00  0.00    +0.000 A 
ATOM     34  F   UNL     1      46.198   0.109   8.373  0.00  0.00    +0.000 F 
ENDBRANCH  26  27
ENDBRANCH  24  26
ENDBRANCH  23  24
ENDBRANCH   4  23
TORSDOF 8
ENDMDL
MODEL 3
REMARK VINA RESULT:    -7.925      1.765      2.164
REMARK INTER + INTRA:         -12.772
REMARK INTER:                 -11.429
REMARK INTRA:                  -1.343
REMARK UNBOUND:                -1.140
REMARK  Name = 
REMARK  9 active torsions:
REMARK  status: ('A' for Active; 'I' for Inactive)
REMARK    1  A    between atoms: C_1  and  O_2
REMARK    2  A    between atoms: O_2  and  C_3
REMARK    3  A    between atoms: C_10  and  C_11
REMARK    4  A    between atoms: N_13  and  C_14
REMARK    5  A    between atoms: C_14  and  C_15
REMARK    6  A    between atoms: C_18  and  C_19
REMARK    7  A    between atoms: C_19  and  N_20
REMARK    8  A    between atoms: N_20  and  C_21
REMARK    9  A    between atoms: C_21  and  C_22
REMARK                            x       y       z     vdW  Elec       q    Type
REMARK                         _______ _______ _______ _____ _____    ______ ____
ROOT
ATOM      1  C   UNL     1      45.901   7.433  12.497  0.00  0.00    +0.000 A 
ATOM      2  C   UNL     1      46.694   6.451  11.901  0.00  0.00    +0.000 A 
ATOM      3  C   UNL     1      46.103   5.294  11.391  0.00  0.00    +0.000 A 
ATOM      4  C   UNL     1      44.720   5.150  11.474  0.00  0.00    +0.000 A 
ATOM      5  N   UNL     1      43.924   6.107  12.018  0.00  0.00    +0.000 NA
ATOM      6  C   UNL     1      44.528   7.215  12.513  0.00  0.00    +0.000 A 
ENDROOT
BRANCH   1   7
ATOM      7  C   UNL     1      46.496   8.689  13.066  0.00  0.00    +0.000 C 
BRANCH   7  10
ATOM      8  C   UNL     1      48.439   8.722  14.579  0.00  0.00    +0.000 C 
ATOM      9  O   UNL     1      49.160   9.179  13.695  0.00  0.00    +0.000 OA
ATOM     10  N   UNL     1      47.120   8.445  14.343  0.00  0.00    +0.000 N 
ATOM     11  H   UNL     1      46.562   8.007  15.065  0.00  0.00    +0.000 HD
BRANCH   8  19
ATOM     12  C   UNL     1      48.721   5.874  16.490  0.00  0.00    +0.000 A 
ATOM     13  N   UNL     1      48.886   4.952  17.458  0.00  0.00    +0.000 NA
ATOM     14  C   UNL     1      49.371   5.352  18.634  0.00  0.00    +0.000 A 
ATOM     15  N   UNL     1      49.729   6.585  18.974  0.00  0.00    +0.000 NA
ATOM     16  C   UNL     1      49.546   7.476  17.984  0.00  0.00    +0.000 A 
ATOM     17  S   UNL     1      49.958   9.102  18.239  0.00  0.00    +0.000 S 
ATOM     18  C   UNL     1      49.451   9.527  16.673  0.00  0.00    +0.000 A 
ATOM     19  C   UNL     1      48.955   8.460  15.933  0.00  0.00    +0.000 A 
ATOM     20  C   UNL     1      49.035   7.226  16.713  0.00  0.00    +0.000 A 
BRANCH  12  22
ATOM     21  C   UNL     1      47.228   4.453  15.371  0.00  0.00    +0.000 C 
ATOM     22  O   UNL     1      48.241   5.453  15.266  0.00  0.00    +0.000 OA
ENDBRANCH  12  22
ENDBRANCH   8  19
ENDBRANCH   7  10
ENDBRANCH   1   7
BRANCH   4  23
ATOM     23  C   UNL     1      44.047   3.896  10.945  0.00  0.00    +0.000 C 
BRANCH  23  24
ATOM     24  N   UNL     1      44.963   2.785  10.642  0.00  0.00    +0.000 NA
ATOM     25  H   UNL     1      44.939   2.158  11.449  0.00  0.00    +0.000 HD
BRANCH  24  26
ATOM     26  C   UNL     1      44.554   2.022   9.461  0.00  0.00    +0.000 C 
BRANCH  26  27
ATOM     27  C   UNL     1      45.579   2.148   8.362  0.00  0.00    +0.000 A 
ATOM     28  C   UNL     1      46.366   1.042   7.997  0.00  0.00    +0.000 A 
ATOM     29  C   UNL     1      47.305   1.149   6.972  0.00  0.00    +0.000 A 
ATOM     30  C   UNL     1      47.465   2.360   6.309  0.00  0.00    +0.000 A 
ATOM     31  F   UNL     1      48.367   2.460   5.324  0.00  0.00    +0.000 F 
ATOM     32  C   UNL     1      46.708   3.470   6.655  0.00  0.00    +0.000 A 
ATOM     33  C   UNL     1      45.776   3.354   7.678  0.00  0.00    +0.000 A 
ATOM     34  F   UNL     1      45.052   4.434   8.006  0.00  0.00    +0.000 F 
ENDBRANCH  26  27
ENDBRANCH  24  26
ENDBRANCH  23  24
ENDBRANCH   4  23
TORSDOF 8
ENDMDL
MODEL 4
REMARK VINA RESULT:    -7.698      1.882      2.300
REMARK INTER + INTRA:         -12.438
REMARK INTER:                 -11.049
REMARK INTRA:                  -1.389
REMARK UNBOUND:                -1.140
REMARK  Name = 
REMARK  9 active torsions:
REMARK  status: ('A' for Active; 'I' for Inactive)
REMARK    1  A    between atoms: C_1  and  O_2
REMARK    2  A    between atoms: O_2  and  C_3
REMARK    3  A    between atoms: C_10  and  C_11
REMARK    4  A    between atoms: N_13  and  C_14
REMARK    5  A    between atoms: C_14  and  C_15
REMARK    6  A    between atoms: C_18  and  C_19
REMARK    7  A    between atoms: C_19  and  N_20
REMARK    8  A    between atoms: N_20  and  C_21
REMARK    9  A    between atoms: C_21  and  C_22
REMARK                            x       y       z     vdW  Elec       q    Type
REMARK                         _______ _______ _______ _____ _____    ______ ____
ROOT
ATOM      1  C   UNL     1      47.321   8.230  13.133  0.00  0.00    +0.000 A 
ATOM      2  C   UNL     1      47.646   7.032  12.494  0.00  0.00    +0.000 A 
ATOM      3  C   UNL     1      46.655   6.303  11.836  0.00  0.00    +0.000 A 
ATOM      4  C   UNL     1      45.354   6.797  11.817  0.00  0.00    +0.000 A 
ATOM      5  N   UNL     1      45.019   7.977  12.401  0.00  0.00    +0.000 NA
ATOM      6  C   UNL     1      46.001   8.658  13.041  0.00  0.00    +0.000 A 
ENDROOT
BRANCH   1   7
ATOM      7  C   UNL     1      48.353   9.042  13.860  0.00  0.00    +0.000 C 
BRANCH   7  10
ATOM      8  C   UNL     1      48.706   8.533  16.244  0.00  0.00    +0.000 C 
ATOM      9  O   UNL     1      47.945   9.437  16.583  0.00  0.00    +0.000 OA
ATOM     10  N   UNL     1      48.966   8.285  14.923  0.00  0.00    +0.000 N 
ATOM     11  H   UNL     1      49.646   7.581  14.670  0.00  0.00    +0.000 HD
BRANCH   8  19
ATOM     12  C   UNL     1      48.942   5.121  16.630  0.00  0.00    +0.000 A 
ATOM     13  N   UNL     1      49.136   3.857  17.051  0.00  0.00    +0.000 NA
ATOM     14  C   UNL     1      49.811   3.666  18.186  0.00  0.00    +0.000 A 
ATOM     15  N   UNL     1      50.337   4.601  18.970  0.00  0.00    +0.000 NA
ATOM     16  C   UNL     1      50.118   5.849  18.518  0.00  0.00    +0.000 A 
ATOM     17  S   UNL     1      50.726   7.170  19.391  0.00  0.00    +0.000 S 
ATOM     18  C   UNL     1      50.064   8.272  18.280  0.00  0.00    +0.000 A 
ATOM     19  C   UNL     1      49.367   7.671  17.239  0.00  0.00    +0.000 A 
ATOM     20  C   UNL     1      49.420   6.216  17.371  0.00  0.00    +0.000 A 
BRANCH  12  22
ATOM     21  C   UNL     1      47.210   4.372  15.235  0.00  0.00    +0.000 C 
ATOM     22  O   UNL     1      48.262   5.314  15.444  0.00  0.00    +0.000 OA
ENDBRANCH  12  22
ENDBRANCH   8  19
ENDBRANCH   7  10
ENDBRANCH   1   7
BRANCH   4  23
ATOM     23  C   UNL     1      44.247   6.020  11.125  0.00  0.00    +0.000 C 
BRANCH  23  24
ATOM     24  N   UNL     1      44.611   4.650  10.731  0.00  0.00    +0.000 NA
ATOM     25  H   UNL     1      44.159   4.023  11.401  0.00  0.00    +0.000 HD
BRANCH  24  26
ATOM     26  C   UNL     1      44.134   4.303   9.391  0.00  0.00    +0.000 C 
BRANCH  26  27
ATOM     27  C   UNL     1      45.177   3.515   8.638  0.00  0.00    +0.000 A 
ATOM     28  C   UNL     1      46.088   4.172   7.793  0.00  0.00    +0.000 A 
ATOM     29  C   UNL     1      47.063   3.450   7.107  0.00  0.00    +0.000 A 
ATOM     30  C   UNL     1      47.131   2.070   7.256  0.00  0.00    +0.000 A 
ATOM     31  F   UNL     1      48.070   1.379   6.596  0.00  0.00    +0.000 F 
ATOM     32  C   UNL     1      46.239   1.395   8.076  0.00  0.00    +0.000 A 
ATOM     33  C   UNL     1      45.270   2.123   8.756  0.00  0.00    +0.000 A 
ATOM     34  F   UNL     1      44.410   1.460   9.543  0.00  0.00    +0.000 F 
ENDBRANCH  26  27
ENDBRANCH  24  26
ENDBRANCH  23  24
ENDBRANCH   4  23
TORSDOF 8
ENDMDL
MODEL 5
REMARK VINA RESULT:    -7.171      2.286      3.338
REMARK INTER + INTRA:         -11.665
REMARK INTER:                 -10.607
REMARK INTRA:                  -1.058
REMARK UNBOUND:                -1.140
REMARK  Name = 
REMARK  9 active torsions:
REMARK  status: ('A' for Active; 'I' for Inactive)
REMARK    1  A    between atoms: C_1  and  O_2
REMARK    2  A    between atoms: O_2  and  C_3
REMARK    3  A    between atoms: C_10  and  C_11
REMARK    4  A    between atoms: N_13  and  C_14
REMARK    5  A    between atoms: C_14  and  C_15
REMARK    6  A    between atoms: C_18  and  C_19
REMARK    7  A    between atoms: C_19  and  N_20
REMARK    8  A    between atoms: N_20  and  C_21
REMARK    9  A    between atoms: C_21  and  C_22
REMARK                            x       y       z     vdW  Elec       q    Type
REMARK                         _______ _______ _______ _____ _____    ______ ____
ROOT
ATOM      1  C   UNL     1      48.291   7.763  14.564  0.00  0.00    +0.000 A 
ATOM      2  C   UNL     1      48.119   6.409  14.271  0.00  0.00    +0.000 A 
ATOM      3  C   UNL     1      47.217   6.020  13.280  0.00  0.00    +0.000 A 
ATOM      4  C   UNL     1      46.511   7.000  12.587  0.00  0.00    +0.000 A 
ATOM      5  N   UNL     1      46.686   8.325  12.830  0.00  0.00    +0.000 NA
ATOM      6  C   UNL     1      47.562   8.672  13.804  0.00  0.00    +0.000 A 
ENDROOT
BRANCH   1   7
ATOM      7  C   UNL     1      49.245   8.226  15.627  0.00  0.00    +0.000 C 
BRANCH   7  10
ATOM      8  C   UNL     1      50.037   6.496  17.190  0.00  0.00    +0.000 C 
ATOM      9  O   UNL     1      49.148   6.770  17.994  0.00  0.00    +0.000 OA
ATOM     10  N   UNL     1      50.157   7.176  16.009  0.00  0.00    +0.000 N 
ATOM     11  H   UNL     1      50.935   6.980  15.394  0.00  0.00    +0.000 HD
BRANCH   8  19
ATOM     12  C   UNL     1      49.889   3.065  16.961  0.00  0.00    +0.000 A 
ATOM     13  N   UNL     1      50.084   1.735  17.025  0.00  0.00    +0.000 NA
ATOM     14  C   UNL     1      51.262   1.290  17.465  0.00  0.00    +0.000 A 
ATOM     15  N   UNL     1      52.299   2.025  17.852  0.00  0.00    +0.000 NA
ATOM     16  C   UNL     1      52.064   3.346  17.778  0.00  0.00    +0.000 A 
ATOM     17  S   UNL     1      53.283   4.438  18.227  0.00  0.00    +0.000 S 
ATOM     18  C   UNL     1      52.280   5.770  17.899  0.00  0.00    +0.000 A 
ATOM     19  C   UNL     1      51.009   5.421  17.456  0.00  0.00    +0.000 A 
ATOM     20  C   UNL     1      50.889   3.968  17.361  0.00  0.00    +0.000 A 
BRANCH  12  22
ATOM     21  C   UNL     1      47.631   3.472  17.454  0.00  0.00    +0.000 C 
ATOM     22  O   UNL     1      48.676   3.522  16.483  0.00  0.00    +0.000 OA
ENDBRANCH  12  22
ENDBRANCH   8  19
ENDBRANCH   7  10
ENDBRANCH   1   7
BRANCH   4  23
ATOM     23  C   UNL     1      45.507   6.611  11.516  0.00  0.00    +0.000 C 
BRANCH  23  24
ATOM     24  N   UNL     1      45.330   5.162  11.335  0.00  0.00    +0.000 NA
ATOM     25  H   UNL     1      44.898   4.810  12.192  0.00  0.00    +0.000 HD
BRANCH  24  26
ATOM     26  C   UNL     1      44.446   4.836  10.214  0.00  0.00    +0.000 C 
BRANCH  26  27
ATOM     27  C   UNL     1      45.128   3.900   9.248  0.00  0.00    +0.000 A 
ATOM     28  C   UNL     1      45.941   4.409   8.221  0.00  0.00    +0.000 A 
ATOM     29  C   UNL     1      46.585   3.546   7.335  0.00  0.00    +0.000 A 
ATOM     30  C   UNL     1      46.418   2.173   7.467  0.00  0.00    +0.000 A 
ATOM     31  F   UNL     1      47.038   1.346   6.615  0.00  0.00    +0.000 F 
ATOM     32  C   UNL     1      45.613   1.643   8.466  0.00  0.00    +0.000 A 
ATOM     33  C   UNL     1      44.975   2.511   9.343  0.00  0.00    +0.000 A 
ATOM     34  F   UNL     1      44.198   1.989  10.304  0.00  0.00    +0.000 F 
ENDBRANCH  26  27
ENDBRANCH  24  26
ENDBRANCH  23  24
ENDBRANCH   4  23
TORSDOF 8
ENDMDL
MODEL 6
REMARK VINA RESULT:    -7.107      4.142      8.637
REMARK INTER + INTRA:         -11.571
REMARK INTER:                 -10.043
REMARK INTRA:                  -1.529
REMARK UNBOUND:                -1.140
REMARK  Name = 
REMARK  9 active torsions:
REMARK  status: ('A' for Active; 'I' for Inactive)
REMARK    1  A    between atoms: C_1  and  O_2
REMARK    2  A    between atoms: O_2  and  C_3
REMARK    3  A    between atoms: C_10  and  C_11
REMARK    4  A    between atoms: N_13  and  C_14
REMARK    5  A    between atoms: C_14  and  C_15
REMARK    6  A    between atoms: C_18  and  C_19
REMARK    7  A    between atoms: C_19  and  N_20
REMARK    8  A    between atoms: N_20  and  C_21
REMARK    9  A    between atoms: C_21  and  C_22
REMARK                            x       y       z     vdW  Elec       q    Type
REMARK                         _______ _______ _______ _____ _____    ______ ____
ROOT
ATOM      1  C   UNL     1      48.525   7.926  13.269  0.00  0.00    +0.000 A 
ATOM      2  C   UNL     1      47.892   8.899  14.044  0.00  0.00    +0.000 A 
ATOM      3  C   UNL     1      48.001   8.861  15.435  0.00  0.00    +0.000 A 
ATOM      4  C   UNL     1      48.759   7.853  16.025  0.00  0.00    +0.000 A 
ATOM      5  N   UNL     1      49.412   6.915  15.291  0.00  0.00    +0.000 NA
ATOM      6  C   UNL     1      49.280   6.972  13.944  0.00  0.00    +0.000 A 
ENDROOT
BRANCH   1   7
ATOM      7  C   UNL     1      48.428   7.923  11.771  0.00  0.00    +0.000 C 
BRANCH   7  10
ATOM      8  C   UNL     1      46.279   6.874  11.181  0.00  0.00    +0.000 C 
ATOM      9  O   UNL     1      45.660   7.887  11.501  0.00  0.00    +0.000 OA
ATOM     10  N   UNL     1      47.641   6.811  11.296  0.00  0.00    +0.000 N 
ATOM     11  H   UNL     1      48.123   5.946  11.091  0.00  0.00    +0.000 HD
BRANCH   8  19
ATOM     12  C   UNL     1      44.431   4.369  12.648  0.00  0.00    +0.000 A 
ATOM     13  N   UNL     1      43.740   3.256  12.958  0.00  0.00    +0.000 NA
ATOM     14  C   UNL     1      43.426   2.413  11.973  0.00  0.00    +0.000 A 
ATOM     15  N   UNL     1      43.715   2.547  10.684  0.00  0.00    +0.000 NA
ATOM     16  C   UNL     1      44.407   3.668  10.415  0.00  0.00    +0.000 A 
ATOM     17  S   UNL     1      44.856   4.008   8.814  0.00  0.00    +0.000 S 
ATOM     18  C   UNL     1      45.640   5.440   9.286  0.00  0.00    +0.000 A 
ATOM     19  C   UNL     1      45.588   5.686  10.653  0.00  0.00    +0.000 A 
ATOM     20  C   UNL     1      44.828   4.634  11.325  0.00  0.00    +0.000 A 
BRANCH  12  22
ATOM     21  C   UNL     1      46.072   5.119  14.147  0.00  0.00    +0.000 C 
ATOM     22  O   UNL     1      44.734   5.251  13.666  0.00  0.00    +0.000 OA
ENDBRANCH  12  22
ENDBRANCH   8  19
ENDBRANCH   7  10
ENDBRANCH   1   7
BRANCH   4  23
ATOM     23  C   UNL     1      48.883   7.771  17.536  0.00  0.00    +0.000 C 
BRANCH  23  24
ATOM     24  N   UNL     1      47.649   7.382  18.236  0.00  0.00    +0.000 NA
ATOM     25  H   UNL     1      46.985   7.085  17.517  0.00  0.00    +0.000 HD
BRANCH  24  26
ATOM     26  C   UNL     1      47.851   6.262  19.157  0.00  0.00    +0.000 C 
BRANCH  26  27
ATOM     27  C   UNL     1      48.187   5.000  18.401  0.00  0.00    +0.000 A 
ATOM     28  C   UNL     1      47.229   4.394  17.571  0.00  0.00    +0.000 A 
ATOM     29  C   UNL     1      47.540   3.236  16.859  0.00  0.00    +0.000 A 
ATOM     30  C   UNL     1      48.806   2.676  16.976  0.00  0.00    +0.000 A 
ATOM     31  F   UNL     1      49.103   1.564  16.290  0.00  0.00    +0.000 F 
ATOM     32  C   UNL     1      49.769   3.248  17.795  0.00  0.00    +0.000 A 
ATOM     33  C   UNL     1      49.449   4.401  18.501  0.00  0.00    +0.000 A 
ATOM     34  F   UNL     1      50.386   4.944  19.293  0.00  0.00    +0.000 F 
ENDBRANCH  26  27
ENDBRANCH  24  26
ENDBRANCH  23  24
ENDBRANCH   4  23
TORSDOF 8
ENDMDL
MODEL 7
REMARK VINA RESULT:    -7.017      4.772      9.696
REMARK INTER + INTRA:         -11.438
REMARK INTER:                 -10.389
REMARK INTRA:                  -1.050
REMARK UNBOUND:                -1.140
REMARK  Name = 
REMARK  9 active torsions:
REMARK  status: ('A' for Active; 'I' for Inactive)
REMARK    1  A    between atoms: C_1  and  O_2
REMARK    2  A    between atoms: O_2  and  C_3
REMARK    3  A    between atoms: C_10  and  C_11
REMARK    4  A    between atoms: N_13  and  C_14
REMARK    5  A    between atoms: C_14  and  C_15
REMARK    6  A    between atoms: C_18  and  C_19
REMARK    7  A    between atoms: C_19  and  N_20
REMARK    8  A    between atoms: N_20  and  C_21
REMARK    9  A    between atoms: C_21  and  C_22
REMARK                            x       y       z     vdW  Elec       q    Type
REMARK                         _______ _______ _______ _____ _____    ______ ____
ROOT
ATOM      1  C   UNL     1      48.641   3.306  17.137  0.00  0.00    +0.000 A 
ATOM      2  C   UNL     1      49.426   2.162  16.984  0.00  0.00    +0.000 A 
ATOM      3  C   UNL     1      50.782   2.199  17.309  0.00  0.00    +0.000 A 
ATOM      4  C   UNL     1      51.326   3.383  17.799  0.00  0.00    +0.000 A 
ATOM      5  N   UNL     1      50.576   4.500  17.990  0.00  0.00    +0.000 NA
ATOM      6  C   UNL     1      49.264   4.436  17.657  0.00  0.00    +0.000 A 
ENDROOT
BRANCH   1   7
ATOM      7  C   UNL     1      47.180   3.313  16.792  0.00  0.00    +0.000 C 
BRANCH   7  10
ATOM      8  C   UNL     1      46.889   4.221  14.521  0.00  0.00    +0.000 C 
ATOM      9  O   UNL     1      47.214   3.148  14.016  0.00  0.00    +0.000 OA
ATOM     10  N   UNL     1      46.860   4.383  15.880  0.00  0.00    +0.000 N 
ATOM     11  H   UNL     1      46.656   5.293  16.272  0.00  0.00    +0.000 HD
BRANCH   8  19
ATOM     12  C   UNL     1      44.104   4.973  12.644  0.00  0.00    +0.000 A 
ATOM     13  N   UNL     1      43.188   5.483  11.801  0.00  0.00    +0.000 NA
ATOM     14  C   UNL     1      43.449   6.652  11.215  0.00  0.00    +0.000 A 
ATOM     15  N   UNL     1      44.536   7.400  11.374  0.00  0.00    +0.000 NA
ATOM     16  C   UNL     1      45.428   6.856  12.220  0.00  0.00    +0.000 A 
ATOM     17  S   UNL     1      46.876   7.678  12.549  0.00  0.00    +0.000 S 
ATOM     18  C   UNL     1      47.404   6.437  13.581  0.00  0.00    +0.000 A 
ATOM     19  C   UNL     1      46.511   5.378  13.692  0.00  0.00    +0.000 A 
ATOM     20  C   UNL     1      45.316   5.642  12.893  0.00  0.00    +0.000 A 
BRANCH  12  22
ATOM     21  C   UNL     1      43.559   2.710  12.351  0.00  0.00    +0.000 C 
ATOM     22  O   UNL     1      43.820   3.774  13.267  0.00  0.00    +0.000 OA
ENDBRANCH  12  22
ENDBRANCH   8  19
ENDBRANCH   7  10
ENDBRANCH   1   7
BRANCH   4  23
ATOM     23  C   UNL     1      52.803   3.464  18.145  0.00  0.00    +0.000 C 
BRANCH  23  24
ATOM     24  N   UNL     1      53.258   2.477  19.136  0.00  0.00    +0.000 NA
ATOM     25  H   UNL     1      52.696   1.635  18.991  0.00  0.00    +0.000 HD
BRANCH  24  26
ATOM     26  C   UNL     1      54.668   2.117  18.968  0.00  0.00    +0.000 C 
BRANCH  26  27
ATOM     27  C   UNL     1      54.806   0.878  18.119  0.00  0.00    +0.000 A 
ATOM     28  C   UNL     1      54.647  -0.396  18.691  0.00  0.00    +0.000 A 
ATOM     29  C   UNL     1      54.760  -1.543  17.907  0.00  0.00    +0.000 A 
ATOM     30  C   UNL     1      55.036  -1.425  16.550  0.00  0.00    +0.000 A 
ATOM     31  F   UNL     1      55.143  -2.529  15.799  0.00  0.00    +0.000 F 
ATOM     32  C   UNL     1      55.207  -0.181  15.961  0.00  0.00    +0.000 A 
ATOM     33  C   UNL     1      55.093   0.956  16.750  0.00  0.00    +0.000 A 
ATOM     34  F   UNL     1      55.264   2.154  16.171  0.00  0.00    +0.000 F 
ENDBRANCH  26  27
ENDBRANCH  24  26
ENDBRANCH  23  24
ENDBRANCH   4  23
TORSDOF 8
ENDMDL
MODEL 8
REMARK VINA RESULT:    -6.708      4.116      8.920
REMARK INTER + INTRA:         -10.986
REMARK INTER:                  -8.913
REMARK INTRA:                  -2.073
REMARK UNBOUND:                -1.140
REMARK  Name = 
REMARK  9 active torsions:
REMARK  status: ('A' for Active; 'I' for Inactive)
REMARK    1  A    between atoms: C_1  and  O_2
REMARK    2  A    between atoms: O_2  and  C_3
REMARK    3  A    between atoms: C_10  and  C_11
REMARK    4  A    between atoms: N_13  and  C_14
REMARK    5  A    between atoms: C_14  and  C_15
REMARK    6  A    between atoms: C_18  and  C_19
REMARK    7  A    between atoms: C_19  and  N_20
REMARK    8  A    between atoms: N_20  and  C_21
REMARK    9  A    between atoms: C_21  and  C_22
REMARK                            x       y       z     vdW  Elec       q    Type
REMARK                         _______ _______ _______ _____ _____    ______ ____
ROOT
ATOM      1  C   UNL     1      48.807   8.240  15.825  0.00  0.00    +0.000 A 
ATOM      2  C   UNL     1      49.945   7.466  16.057  0.00  0.00    +0.000 A 
ATOM      3  C   UNL     1      50.350   7.197  17.365  0.00  0.00    +0.000 A 
ATOM      4  C   UNL     1      49.594   7.698  18.421  0.00  0.00    +0.000 A 
ATOM      5  N   UNL     1      48.463   8.425  18.221  0.00  0.00    +0.000 NA
ATOM      6  C   UNL     1      48.101   8.677  16.941  0.00  0.00    +0.000 A 
ENDROOT
BRANCH   1   7
ATOM      7  C   UNL     1      48.340   8.561  14.434  0.00  0.00    +0.000 C 
BRANCH   7  10
ATOM      8  C   UNL     1      47.680   6.515  13.232  0.00  0.00    +0.000 C 
ATOM      9  O   UNL     1      48.843   6.299  12.896  0.00  0.00    +0.000 OA
ATOM     10  N   UNL     1      47.352   7.614  13.979  0.00  0.00    +0.000 N 
ATOM     11  H   UNL     1      46.382   7.808  14.187  0.00  0.00    +0.000 HD
BRANCH   8  19
ATOM     12  C   UNL     1      44.603   6.989  11.764  0.00  0.00    +0.000 A 
ATOM     13  N   UNL     1      43.352   6.895  11.278  0.00  0.00    +0.000 NA
ATOM     14  C   UNL     1      42.774   5.693  11.250  0.00  0.00    +0.000 A 
ATOM     15  N   UNL     1      43.304   4.542  11.650  0.00  0.00    +0.000 NA
ATOM     16  C   UNL     1      44.551   4.678  12.132  0.00  0.00    +0.000 A 
ATOM     17  S   UNL     1      45.387   3.308  12.682  0.00  0.00    +0.000 S 
ATOM     18  C   UNL     1      46.740   4.244  13.108  0.00  0.00    +0.000 A 
ATOM     19  C   UNL     1      46.588   5.602  12.854  0.00  0.00    +0.000 A 
ATOM     20  C   UNL     1      45.283   5.857  12.247  0.00  0.00    +0.000 A 
BRANCH  12  22
ATOM     21  C   UNL     1      44.370   9.268  11.258  0.00  0.00    +0.000 C 
ATOM     22  O   UNL     1      45.207   8.231  11.770  0.00  0.00    +0.000 OA
ENDBRANCH  12  22
ENDBRANCH   8  19
ENDBRANCH   7  10
ENDBRANCH   1   7
BRANCH   4  23
ATOM     23  C   UNL     1      50.016   7.441  19.857  0.00  0.00    +0.000 C 
BRANCH  23  24
ATOM     24  N   UNL     1      50.117   6.020  20.225  0.00  0.00    +0.000 NA
ATOM     25  H   UNL     1      50.517   5.988  21.165  0.00  0.00    +0.000 HD
BRANCH  24  26
ATOM     26  C   UNL     1      48.814   5.352  20.262  0.00  0.00    +0.000 C 
BRANCH  26  27
ATOM     27  C   UNL     1      48.563   4.596  18.981  0.00  0.00    +0.000 A 
ATOM     28  C   UNL     1      49.505   3.665  18.511  0.00  0.00    +0.000 A 
ATOM     29  C   UNL     1      49.270   2.954  17.335  0.00  0.00    +0.000 A 
ATOM     30  C   UNL     1      48.097   3.170  16.622  0.00  0.00    +0.000 A 
ATOM     31  F   UNL     1      47.874   2.485  15.493  0.00  0.00    +0.000 F 
ATOM     32  C   UNL     1      47.155   4.090  17.058  0.00  0.00    +0.000 A 
ATOM     33  C   UNL     1      47.397   4.795  18.230  0.00  0.00    +0.000 A 
ATOM     34  F   UNL     1      46.481   5.684  18.641  0.00  0.00    +0.000 F 
ENDBRANCH  26  27
ENDBRANCH  24  26
ENDBRANCH  23  24
ENDBRANCH   4  23
TORSDOF 8
ENDMDL
MODEL 9
REMARK VINA RESULT:    -6.584      4.286      8.666
REMARK INTER + INTRA:         -10.804
REMARK INTER:                  -8.950
REMARK INTRA:                  -1.854
REMARK UNBOUND:                -1.140
REMARK  Name = 
REMARK  9 active torsions:
REMARK  status: ('A' for Active; 'I' for Inactive)
REMARK    1  A    between atoms: C_1  and  O_2
REMARK    2  A    between atoms: O_2  and  C_3
REMARK    3  A    between atoms: C_10  and  C_11
REMARK    4  A    between atoms: N_13  and  C_14
REMARK    5  A    between atoms: C_14  and  C_15
REMARK    6  A    between atoms: C_18  and  C_19
REMARK    7  A    between atoms: C_19  and  N_20
REMARK    8  A    between atoms: N_20  and  C_21
REMARK    9  A    between atoms: C_21  and  C_22
REMARK                            x       y       z     vdW  Elec       q    Type
REMARK                         _______ _______ _______ _____ _____    ______ ____
ROOT
ATOM      1  C   UNL     1      48.512   8.628  15.173  0.00  0.00    +0.000 A 
ATOM      2  C   UNL     1      49.250   7.452  15.319  0.00  0.00    +0.000 A 
ATOM      3  C   UNL     1      49.725   7.080  16.578  0.00  0.00    +0.000 A 
ATOM      4  C   UNL     1      49.436   7.888  17.674  0.00  0.00    +0.000 A 
ATOM      5  N   UNL     1      48.690   9.019  17.563  0.00  0.00    +0.000 NA
ATOM      6  C   UNL     1      48.251   9.359  16.327  0.00  0.00    +0.000 A 
ENDROOT
BRANCH   1   7
ATOM      7  C   UNL     1      47.989   9.071  13.837  0.00  0.00    +0.000 C 
BRANCH   7  10
ATOM      8  C   UNL     1      46.809   7.439  12.419  0.00  0.00    +0.000 C 
ATOM      9  O   UNL     1      47.817   7.251  11.740  0.00  0.00    +0.000 OA
ATOM     10  N   UNL     1      46.812   8.327  13.460  0.00  0.00    +0.000 N 
ATOM     11  H   UNL     1      45.954   8.515  13.961  0.00  0.00    +0.000 HD
BRANCH   8  19
ATOM     12  C   UNL     1      45.827   4.171  12.864  0.00  0.00    +0.000 A 
ATOM     13  N   UNL     1      45.214   2.972  12.866  0.00  0.00    +0.000 NA
ATOM     14  C   UNL     1      43.978   2.894  12.370  0.00  0.00    +0.000 A 
ATOM     15  N   UNL     1      43.255   3.888  11.866  0.00  0.00    +0.000 NA
ATOM     16  C   UNL     1      43.902   5.066  11.878  0.00  0.00    +0.000 A 
ATOM     17  S   UNL     1      43.126   6.451  11.278  0.00  0.00    +0.000 S 
ATOM     18  C   UNL     1      44.490   7.413  11.596  0.00  0.00    +0.000 A 
ATOM     19  C   UNL     1      45.556   6.714  12.149  0.00  0.00    +0.000 A 
ATOM     20  C   UNL     1      45.193   5.311  12.339  0.00  0.00    +0.000 A 
BRANCH  12  22
ATOM     21  C   UNL     1      47.104   4.586  14.788  0.00  0.00    +0.000 C 
ATOM     22  O   UNL     1      47.097   4.253  13.399  0.00  0.00    +0.000 OA
ENDBRANCH  12  22
ENDBRANCH   8  19
ENDBRANCH   7  10
ENDBRANCH   1   7
BRANCH   4  23
ATOM     23  C   UNL     1      49.953   7.523  19.054  0.00  0.00    +0.000 C 
BRANCH  23  24
ATOM     24  N   UNL     1      49.026   6.720  19.867  0.00  0.00    +0.000 NA
ATOM     25  H   UNL     1      48.211   6.530  19.279  0.00  0.00    +0.000 HD
BRANCH  24  26
ATOM     26  C   UNL     1      49.600   5.436  20.276  0.00  0.00    +0.000 C 
BRANCH  26  27
ATOM     27  C   UNL     1      49.486   4.420  19.167  0.00  0.00    +0.000 A 
ATOM     28  C   UNL     1      48.230   3.897  18.812  0.00  0.00    +0.000 A 
ATOM     29  C   UNL     1      48.118   2.968  17.778  0.00  0.00    +0.000 A 
ATOM     30  C   UNL     1      49.257   2.554  17.098  0.00  0.00    +0.000 A 
ATOM     31  F   UNL     1      49.145   1.662  16.105  0.00  0.00    +0.000 F 
ATOM     32  C   UNL     1      50.509   3.046  17.434  0.00  0.00    +0.000 A 
ATOM     33  C   UNL     1      50.612   3.971  18.466  0.00  0.00    +0.000 A 
ATOM     34  F   UNL     1      51.828   4.438  18.785  0.00  0.00    +0.000 F 
ENDBRANCH  26  27
ENDBRANCH  24  26
ENDBRANCH  23  24
ENDBRANCH   4  23
TORSDOF 8
ENDMDL
