MODEL 1
REMARK VINA RESULT:    -7.543      0.000      0.000
REMARK INTER + INTRA:         -10.927
REMARK INTER:                 -10.189
REMARK INTRA:                  -0.738
REMARK UNBOUND:                -0.738
REMARK  Name = 
REMARK  7 active torsions:
REMARK  status: ('A' for Active; 'I' for Inactive)
REMARK    1  A    between atoms: C_1  and  N_2
REMARK    2  A    between atoms: N_2  and  C_3
REMARK    3  A    between atoms: C_3  and  C_4
REMARK    4  A    between atoms: C_7  and  C_8
REMARK    5  A    between atoms: C_8  and  O_9
REMARK    6  A    between atoms: O_9  and  C_10
REMARK    7  A    between atoms: C_13  and  C_14
REMARK                            x       y       z     vdW  Elec       q    Type
REMARK                         _______ _______ _______ _____ _____    ______ ____
ROOT
ATOM      1  O   UNL     1      43.424   3.793  10.196  0.00  0.00    +0.000 OA
ENDROOT
BRANCH   1   2
ATOM      2  C   UNL     1      44.409   3.337   9.363  0.00  0.00    +0.000 A 
ATOM      3  C   UNL     1      44.877   2.026   9.287  0.00  0.00    +0.000 A 
ATOM      4  C   UNL     1      45.886   1.705   8.379  0.00  0.00    +0.000 A 
ATOM      5  C   UNL     1      46.397   2.711   7.574  0.00  0.00    +0.000 A 
ATOM      6  N   UNL     1      45.974   4.006   7.619  0.00  0.00    +0.000 NA
ATOM      7  C   UNL     1      44.992   4.276   8.515  0.00  0.00    +0.000 A 
BRANCH   5   8
ATOM      8  C   UNL     1      47.469   2.384   6.581  0.00  0.00    +0.000 C 
ATOM      9  N   UNL     1      47.459   3.131   5.435  0.00  0.00    +0.000 N 
ATOM     10  O   UNL     1      48.301   1.505   6.773  0.00  0.00    +0.000 OA
ATOM     11  H   UNL     1      46.748   3.844   5.309  0.00  0.00    +0.000 HD
ATOM     12  H   UNL     1      48.144   2.953   4.716  0.00  0.00    +0.000 HD
ENDBRANCH   5   8
ENDBRANCH   1   2
BRANCH   1  13
ATOM     13  C   UNL     1      43.530   3.409  11.566  0.00  0.00    +0.000 C 
BRANCH  13  17
ATOM     14  C   UNL     1      46.753   5.640  13.410  0.00  0.00    +0.000 A 
ATOM     15  C   UNL     1      46.781   4.239  13.372  0.00  0.00    +0.000 A 
ATOM     16  C   UNL     1      45.739   3.517  12.785  0.00  0.00    +0.000 A 
ATOM     17  C   UNL     1      44.643   4.184  12.226  0.00  0.00    +0.000 A 
ATOM     18  C   UNL     1      44.599   5.583  12.285  0.00  0.00    +0.000 A 
ATOM     19  C   UNL     1      45.647   6.304  12.863  0.00  0.00    +0.000 A 
BRANCH  14  20
ATOM     20  C   UNL     1      47.886   6.417  14.045  0.00  0.00    +0.000 C 
BRANCH  20  22
ATOM     21  C   UNL     1      49.035   7.370  12.151  0.00  0.00    +0.000 C 
ATOM     22  N   UNL     1      49.090   6.377  13.213  0.00  0.00    +0.000 NA
ATOM     23  H   UNL     1      49.903   6.559  13.796  0.00  0.00    +0.000 HD
ENDBRANCH  20  22
ENDBRANCH  14  20
ENDBRANCH  13  17
ENDBRANCH   1  13
TORSDOF 6
ENDMDL
MODEL 2
REMARK VINA RESULT:    -7.329      1.219      1.726
REMARK INTER + INTRA:         -10.637
REMARK INTER:                 -10.113
REMARK INTRA:                  -0.524
REMARK UNBOUND:                -0.738
REMARK  Name = 
REMARK  7 active torsions:
REMARK  status: ('A' for Active; 'I' for Inactive)
REMARK    1  A    between atoms: C_1  and  N_2
REMARK    2  A    between atoms: N_2  and  C_3
REMARK    3  A    between atoms: C_3  and  C_4
REMARK    4  A    between atoms: C_7  and  C_8
REMARK    5  A    between atoms: C_8  and  O_9
REMARK    6  A    between atoms: O_9  and  C_10
REMARK    7  A    between atoms: C_13  and  C_14
REMARK                            x       y       z     vdW  Elec       q    Type
REMARK                         _______ _______ _______ _____ _____    ______ ____
ROOT
ATOM      1  O   UNL     1      43.575   3.548  10.394  0.00  0.00    +0.000 OA
ENDROOT
BRANCH   1   2
ATOM      2  C   UNL     1      44.503   3.340   9.411  0.00  0.00    +0.000 A 
ATOM      3  C   UNL     1      44.968   4.292   8.505  0.00  0.00    +0.000 A 
ATOM      4  C   UNL     1      45.926   3.935   7.557  0.00  0.00    +0.000 A 
ATOM      5  C   UNL     1      46.389   2.628   7.544  0.00  0.00    +0.000 A 
ATOM      6  N   UNL     1      45.958   1.663   8.405  0.00  0.00    +0.000 NA
ATOM      7  C   UNL     1      45.026   2.052   9.312  0.00  0.00    +0.000 A 
BRANCH   5   8
ATOM      8  C   UNL     1      47.430   2.226   6.546  0.00  0.00    +0.000 C 
ATOM      9  N   UNL     1      47.403   2.907   5.360  0.00  0.00    +0.000 N 
ATOM     10  O   UNL     1      48.252   1.344   6.767  0.00  0.00    +0.000 OA
ATOM     11  H   UNL     1      46.701   3.625   5.212  0.00  0.00    +0.000 HD
ATOM     12  H   UNL     1      48.067   2.677   4.636  0.00  0.00    +0.000 HD
ENDBRANCH   5   8
ENDBRANCH   1   2
BRANCH   1  13
ATOM     13  C   UNL     1      43.425   4.895  10.842  0.00  0.00    +0.000 C 
BRANCH  13  17
ATOM     14  C   UNL     1      46.826   5.956  13.306  0.00  0.00    +0.000 A 
ATOM     15  C   UNL     1      46.046   4.831  13.607  0.00  0.00    +0.000 A 
ATOM     16  C   UNL     1      44.945   4.490  12.818  0.00  0.00    +0.000 A 
ATOM     17  C   UNL     1      44.597   5.275  11.712  0.00  0.00    +0.000 A 
ATOM     18  C   UNL     1      45.358   6.415  11.423  0.00  0.00    +0.000 A 
ATOM     19  C   UNL     1      46.466   6.747  12.207  0.00  0.00    +0.000 A 
BRANCH  14  20
ATOM     20  C   UNL     1      48.021   6.318  14.162  0.00  0.00    +0.000 C 
BRANCH  20  22
ATOM     21  C   UNL     1      49.018   6.108  16.348  0.00  0.00    +0.000 C 
ATOM     22  N   UNL     1      47.975   5.631  15.454  0.00  0.00    +0.000 NA
ATOM     23  H   UNL     1      47.068   5.793  15.885  0.00  0.00    +0.000 HD
ENDBRANCH  20  22
ENDBRANCH  14  20
ENDBRANCH  13  17
ENDBRANCH   1  13
TORSDOF 6
ENDMDL
MODEL 3
REMARK VINA RESULT:    -7.097      2.271      6.602
REMARK INTER + INTRA:         -10.325
REMARK INTER:                 -10.191
REMARK INTRA:                  -0.134
REMARK UNBOUND:                -0.738
REMARK  Name = 
REMARK  7 active torsions:
REMARK  status: ('A' for Active; 'I' for Inactive)
REMARK    1  A    between atoms: C_1  and  N_2
REMARK    2  A    between atoms: N_2  and  C_3
REMARK    3  A    between atoms: C_3  and  C_4
REMARK    4  A    between atoms: C_7  and  C_8
REMARK    5  A    between atoms: C_8  and  O_9
REMARK    6  A    between atoms: O_9  and  C_10
REMARK    7  A    between atoms: C_13  and  C_14
REMARK                            x       y       z     vdW  Elec       q    Type
REMARK                         _______ _______ _______ _____ _____    ______ ____
ROOT
ATOM      1  O   UNL     1      44.756   5.811  10.653  0.00  0.00    +0.000 OA
ENDROOT
BRANCH   1   2
ATOM      2  C   UNL     1      45.460   5.572  11.801  0.00  0.00    +0.000 A 
ATOM      3  C   UNL     1      46.614   6.239  12.211  0.00  0.00    +0.000 A 
ATOM      4  C   UNL     1      47.222   5.891  13.417  0.00  0.00    +0.000 A 
ATOM      5  C   UNL     1      46.653   4.880  14.178  0.00  0.00    +0.000 A 
ATOM      6  N   UNL     1      45.530   4.199  13.814  0.00  0.00    +0.000 NA
ATOM      7  C   UNL     1      44.970   4.568  12.634  0.00  0.00    +0.000 A 
BRANCH   5   8
ATOM      8  C   UNL     1      47.280   4.502  15.484  0.00  0.00    +0.000 C 
ATOM      9  N   UNL     1      48.020   5.480  16.088  0.00  0.00    +0.000 N 
ATOM     10  O   UNL     1      47.147   3.390  15.982  0.00  0.00    +0.000 OA
ATOM     11  H   UNL     1      48.114   6.385  15.638  0.00  0.00    +0.000 HD
ATOM     12  H   UNL     1      48.484   5.288  16.963  0.00  0.00    +0.000 HD
ENDBRANCH   5   8
ENDBRANCH   1   2
BRANCH   1  13
ATOM     13  C   UNL     1      43.962   4.731  10.165  0.00  0.00    +0.000 C 
BRANCH  13  17
ATOM     14  C   UNL     1      46.372   2.080   7.731  0.00  0.00    +0.000 A 
ATOM     15  C   UNL     1      45.503   1.568   8.705  0.00  0.00    +0.000 A 
ATOM     16  C   UNL     1      44.730   2.421   9.496  0.00  0.00    +0.000 A 
ATOM     17  C   UNL     1      44.815   3.809   9.332  0.00  0.00    +0.000 A 
ATOM     18  C   UNL     1      45.701   4.326   8.378  0.00  0.00    +0.000 A 
ATOM     19  C   UNL     1      46.466   3.471   7.580  0.00  0.00    +0.000 A 
BRANCH  14  20
ATOM     20  C   UNL     1      47.205   1.151   6.874  0.00  0.00    +0.000 C 
BRANCH  20  22
ATOM     21  C   UNL     1      47.913   2.417   4.948  0.00  0.00    +0.000 C 
ATOM     22  N   UNL     1      48.310   1.868   6.234  0.00  0.00    +0.000 NA
ATOM     23  H   UNL     1      48.610   2.627   6.842  0.00  0.00    +0.000 HD
ENDBRANCH  20  22
ENDBRANCH  14  20
ENDBRANCH  13  17
ENDBRANCH   1  13
TORSDOF 6
ENDMDL
MODEL 4
REMARK VINA RESULT:    -6.283      2.185      6.263
REMARK INTER + INTRA:          -9.225
REMARK INTER:                  -8.526
REMARK INTRA:                  -0.699
REMARK UNBOUND:                -0.738
REMARK  Name = 
REMARK  7 active torsions:
REMARK  status: ('A' for Active; 'I' for Inactive)
REMARK    1  A    between atoms: C_1  and  N_2
REMARK    2  A    between atoms: N_2  and  C_3
REMARK    3  A    between atoms: C_3  and  C_4
REMARK    4  A    between atoms: C_7  and  C_8
REMARK    5  A    between atoms: C_8  and  O_9
REMARK    6  A    between atoms: O_9  and  C_10
REMARK    7  A    between atoms: C_13  and  C_14
REMARK                            x       y       z     vdW  Elec       q    Type
REMARK                         _______ _______ _______ _____ _____    ______ ____
ROOT
ATOM      1  O   UNL     1      43.800   4.533  12.350  0.00  0.00    +0.000 OA
ENDROOT
BRANCH   1   2
ATOM      2  C   UNL     1      44.962   5.132  12.751  0.00  0.00    +0.000 A 
ATOM      3  C   UNL     1      46.086   4.484  13.261  0.00  0.00    +0.000 A 
ATOM      4  C   UNL     1      47.208   5.229  13.623  0.00  0.00    +0.000 A 
ATOM      5  C   UNL     1      47.169   6.606  13.463  0.00  0.00    +0.000 A 
ATOM      6  N   UNL     1      46.090   7.281  12.974  0.00  0.00    +0.000 NA
ATOM      7  C   UNL     1      45.019   6.520  12.635  0.00  0.00    +0.000 A 
BRANCH   5   8
ATOM      8  C   UNL     1      48.369   7.424  13.829  0.00  0.00    +0.000 C 
ATOM      9  N   UNL     1      49.544   7.040  13.245  0.00  0.00    +0.000 N 
ATOM     10  O   UNL     1      48.309   8.371  14.604  0.00  0.00    +0.000 OA
ATOM     11  H   UNL     1      49.553   6.244  12.616  0.00  0.00    +0.000 HD
ATOM     12  H   UNL     1      50.395   7.538  13.460  0.00  0.00    +0.000 HD
ENDBRANCH   5   8
ENDBRANCH   1   2
BRANCH   1  13
ATOM     13  C   UNL     1      43.388   4.792  11.009  0.00  0.00    +0.000 C 
BRANCH  13  17
ATOM     14  C   UNL     1      45.894   2.631   8.214  0.00  0.00    +0.000 A 
ATOM     15  C   UNL     1      45.051   1.945   9.100  0.00  0.00    +0.000 A 
ATOM     16  C   UNL     1      44.247   2.640  10.007  0.00  0.00    +0.000 A 
ATOM     17  C   UNL     1      44.274   4.039  10.050  0.00  0.00    +0.000 A 
ATOM     18  C   UNL     1      45.135   4.727   9.185  0.00  0.00    +0.000 A 
ATOM     19  C   UNL     1      45.930   4.031   8.271  0.00  0.00    +0.000 A 
BRANCH  14  20
ATOM     20  C   UNL     1      46.761   1.873   7.231  0.00  0.00    +0.000 C 
BRANCH  20  22
ATOM     21  C   UNL     1      47.835   2.483   5.160  0.00  0.00    +0.000 C 
ATOM     22  N   UNL     1      47.728   2.761   6.583  0.00  0.00    +0.000 NA
ATOM     23  H   UNL     1      47.431   3.726   6.712  0.00  0.00    +0.000 HD
ENDBRANCH  20  22
ENDBRANCH  14  20
ENDBRANCH  13  17
ENDBRANCH   1  13
TORSDOF 6
ENDMDL
MODEL 5
REMARK VINA RESULT:    -6.055      2.910      7.084
REMARK INTER + INTRA:          -8.916
REMARK INTER:                  -8.379
REMARK INTRA:                  -0.538
REMARK UNBOUND:                -0.738
REMARK  Name = 
REMARK  7 active torsions:
REMARK  status: ('A' for Active; 'I' for Inactive)
REMARK    1  A    between atoms: C_1  and  N_2
REMARK    2  A    between atoms: N_2  and  C_3
REMARK    3  A    between atoms: C_3  and  C_4
REMARK    4  A    between atoms: C_7  and  C_8
REMARK    5  A    between atoms: C_8  and  O_9
REMARK    6  A    between atoms: O_9  and  C_10
REMARK    7  A    between atoms: C_13  and  C_14
REMARK                            x       y       z     vdW  Elec       q    Type
REMARK                         _______ _______ _______ _____ _____    ______ ____
ROOT
ATOM      1  O   UNL     1      45.515   4.193  13.654  0.00  0.00    +0.000 OA
ENDROOT
BRANCH   1   2
ATOM      2  C   UNL     1      46.579   4.887  14.161  0.00  0.00    +0.000 A 
ATOM      3  C   UNL     1      47.128   6.052  13.628  0.00  0.00    +0.000 A 
ATOM      4  C   UNL     1      48.213   6.657  14.262  0.00  0.00    +0.000 A 
ATOM      5  C   UNL     1      48.718   6.073  15.414  0.00  0.00    +0.000 A 
ATOM      6  N   UNL     1      48.217   4.931  15.966  0.00  0.00    +0.000 NA
ATOM      7  C   UNL     1      47.162   4.375  15.319  0.00  0.00    +0.000 A 
BRANCH   5   8
ATOM      8  C   UNL     1      49.872   6.715  16.119  0.00  0.00    +0.000 C 
ATOM      9  N   UNL     1      49.696   8.025  16.466  0.00  0.00    +0.000 N 
ATOM     10  O   UNL     1      50.910   6.112  16.369  0.00  0.00    +0.000 OA
ATOM     11  H   UNL     1      48.825   8.491  16.233  0.00  0.00    +0.000 HD
ATOM     12  H   UNL     1      50.441   8.525  16.930  0.00  0.00    +0.000 HD
ENDBRANCH   5   8
ENDBRANCH   1   2
BRANCH   1  13
ATOM     13  C   UNL     1      44.637   4.923  12.799  0.00  0.00    +0.000 C 
BRANCH  13  17
ATOM     14  C   UNL     1      45.363   3.740   8.695  0.00  0.00    +0.000 A 
ATOM     15  C   UNL     1      45.667   5.037   9.132  0.00  0.00    +0.000 A 
ATOM     16  C   UNL     1      45.427   5.423  10.453  0.00  0.00    +0.000 A 
ATOM     17  C   UNL     1      44.872   4.518  11.365  0.00  0.00    +0.000 A 
ATOM     18  C   UNL     1      44.542   3.229  10.926  0.00  0.00    +0.000 A 
ATOM     19  C   UNL     1      44.793   2.841   9.607  0.00  0.00    +0.000 A 
BRANCH  14  20
ATOM     20  C   UNL     1      45.628   3.326   7.264  0.00  0.00    +0.000 C 
BRANCH  20  22
ATOM     21  C   UNL     1      47.772   2.288   6.884  0.00  0.00    +0.000 C 
ATOM     22  N   UNL     1      47.030   3.539   6.900  0.00  0.00    +0.000 NA
ATOM     23  H   UNL     1      47.073   3.963   5.976  0.00  0.00    +0.000 HD
ENDBRANCH  20  22
ENDBRANCH  14  20
ENDBRANCH  13  17
ENDBRANCH   1  13
TORSDOF 6
ENDMDL
MODEL 6
REMARK VINA RESULT:    -6.048      4.707      7.799
REMARK INTER + INTRA:          -8.908
REMARK INTER:                  -8.439
REMARK INTRA:                  -0.468
REMARK UNBOUND:                -0.738
REMARK  Name = 
REMARK  7 active torsions:
REMARK  status: ('A' for Active; 'I' for Inactive)
REMARK    1  A    between atoms: C_1  and  N_2
REMARK    2  A    between atoms: N_2  and  C_3
REMARK    3  A    between atoms: C_3  and  C_4
REMARK    4  A    between atoms: C_7  and  C_8
REMARK    5  A    between atoms: C_8  and  O_9
REMARK    6  A    between atoms: O_9  and  C_10
REMARK    7  A    between atoms: C_13  and  C_14
REMARK                            x       y       z     vdW  Elec       q    Type
REMARK                         _______ _______ _______ _____ _____    ______ ____
ROOT
ATOM      1  O   UNL     1      46.993   4.125  15.864  0.00  0.00    +0.000 OA
ENDROOT
BRANCH   1   2
ATOM      2  C   UNL     1      48.166   3.627  16.360  0.00  0.00    +0.000 A 
ATOM      3  C   UNL     1      49.020   4.274  17.253  0.00  0.00    +0.000 A 
ATOM      4  C   UNL     1      50.184   3.636  17.680  0.00  0.00    +0.000 A 
ATOM      5  C   UNL     1      50.459   2.366  17.197  0.00  0.00    +0.000 A 
ATOM      6  N   UNL     1      49.657   1.700  16.320  0.00  0.00    +0.000 NA
ATOM      7  C   UNL     1      48.535   2.354  15.929  0.00  0.00    +0.000 A 
BRANCH   5   8
ATOM      8  C   UNL     1      51.696   1.657  17.656  0.00  0.00    +0.000 C 
ATOM      9  N   UNL     1      51.512   0.374  18.092  0.00  0.00    +0.000 N 
ATOM     10  O   UNL     1      52.801   2.186  17.648  0.00  0.00    +0.000 OA
ATOM     11  H   UNL     1      50.579  -0.026  18.092  0.00  0.00    +0.000 HD
ATOM     12  H   UNL     1      52.301  -0.157  18.430  0.00  0.00    +0.000 HD
ENDBRANCH   5   8
ENDBRANCH   1   2
BRANCH   1  13
ATOM     13  C   UNL     1      47.111   5.136  14.864  0.00  0.00    +0.000 C 
BRANCH  13  17
ATOM     14  C   UNL     1      44.525   4.148  11.531  0.00  0.00    +0.000 A 
ATOM     15  C   UNL     1      45.325   3.167  12.134  0.00  0.00    +0.000 A 
ATOM     16  C   UNL     1      46.165   3.484  13.204  0.00  0.00    +0.000 A 
ATOM     17  C   UNL     1      46.226   4.795  13.691  0.00  0.00    +0.000 A 
ATOM     18  C   UNL     1      45.448   5.784  13.075  0.00  0.00    +0.000 A 
ATOM     19  C   UNL     1      44.601   5.463  12.011  0.00  0.00    +0.000 A 
BRANCH  14  20
ATOM     20  C   UNL     1      43.615   3.798  10.374  0.00  0.00    +0.000 C 
BRANCH  20  22
ATOM     21  C   UNL     1      45.140   4.159   8.541  0.00  0.00    +0.000 C 
ATOM     22  N   UNL     1      43.921   4.609   9.194  0.00  0.00    +0.000 NA
ATOM     23  H   UNL     1      43.148   4.543   8.536  0.00  0.00    +0.000 HD
ENDBRANCH  20  22
ENDBRANCH  14  20
ENDBRANCH  13  17
ENDBRANCH   1  13
TORSDOF 6
ENDMDL
MODEL 7
REMARK VINA RESULT:    -5.799      3.503      7.473
REMARK INTER + INTRA:          -8.572
REMARK INTER:                  -8.079
REMARK INTRA:                  -0.493
REMARK UNBOUND:                -0.738
REMARK  Name = 
REMARK  7 active torsions:
REMARK  status: ('A' for Active; 'I' for Inactive)
REMARK    1  A    between atoms: C_1  and  N_2
REMARK    2  A    between atoms: N_2  and  C_3
REMARK    3  A    between atoms: C_3  and  C_4
REMARK    4  A    between atoms: C_7  and  C_8
REMARK    5  A    between atoms: C_8  and  O_9
REMARK    6  A    between atoms: O_9  and  C_10
REMARK    7  A    between atoms: C_13  and  C_14
REMARK                            x       y       z     vdW  Elec       q    Type
REMARK                         _______ _______ _______ _____ _____    ______ ____
ROOT
ATOM      1  O   UNL     1      46.602   5.707  13.305  0.00  0.00    +0.000 OA
ENDROOT
BRANCH   1   2
ATOM      2  C   UNL     1      47.186   5.225  14.445  0.00  0.00    +0.000 A 
ATOM      3  C   UNL     1      46.896   4.010  15.065  0.00  0.00    +0.000 A 
ATOM      4  C   UNL     1      47.581   3.645  16.223  0.00  0.00    +0.000 A 
ATOM      5  C   UNL     1      48.539   4.512  16.727  0.00  0.00    +0.000 A 
ATOM      6  N   UNL     1      48.850   5.711  16.158  0.00  0.00    +0.000 NA
ATOM      7  C   UNL     1      48.160   6.028  15.033  0.00  0.00    +0.000 A 
BRANCH   5   8
ATOM      8  C   UNL     1      49.298   4.133  17.960  0.00  0.00    +0.000 C 
ATOM      9  N   UNL     1      49.693   2.825  18.031  0.00  0.00    +0.000 N 
ATOM     10  O   UNL     1      49.550   4.934  18.853  0.00  0.00    +0.000 OA
ATOM     11  H   UNL     1      49.457   2.191  17.275  0.00  0.00    +0.000 HD
ATOM     12  H   UNL     1      50.195   2.497  18.843  0.00  0.00    +0.000 HD
ENDBRANCH   5   8
ENDBRANCH   1   2
BRANCH   1  13
ATOM     13  C   UNL     1      45.324   5.164  12.974  0.00  0.00    +0.000 C 
BRANCH  13  17
ATOM     14  C   UNL     1      45.358   3.887   8.835  0.00  0.00    +0.000 A 
ATOM     15  C   UNL     1      45.722   5.195   9.185  0.00  0.00    +0.000 A 
ATOM     16  C   UNL     1      45.705   5.611  10.518  0.00  0.00    +0.000 A 
ATOM     17  C   UNL     1      45.317   4.726  11.531  0.00  0.00    +0.000 A 
ATOM     18  C   UNL     1      44.928   3.426  11.183  0.00  0.00    +0.000 A 
ATOM     19  C   UNL     1      44.955   3.009   9.850  0.00  0.00    +0.000 A 
BRANCH  14  20
ATOM     20  C   UNL     1      45.381   3.441   7.389  0.00  0.00    +0.000 C 
BRANCH  20  22
ATOM     21  C   UNL     1      47.624   2.755   6.829  0.00  0.00    +0.000 C 
ATOM     22  N   UNL     1      46.636   3.818   6.737  0.00  0.00    +0.000 NA
ATOM     23  H   UNL     1      46.454   4.019   5.756  0.00  0.00    +0.000 HD
ENDBRANCH  20  22
ENDBRANCH  14  20
ENDBRANCH  13  17
ENDBRANCH   1  13
TORSDOF 6
ENDMDL
MODEL 8
REMARK VINA RESULT:    -5.655      4.821      6.668
REMARK INTER + INTRA:          -8.377
REMARK INTER:                  -7.938
REMARK INTRA:                  -0.439
REMARK UNBOUND:                -0.738
REMARK  Name = 
REMARK  7 active torsions:
REMARK  status: ('A' for Active; 'I' for Inactive)
REMARK    1  A    between atoms: C_1  and  N_2
REMARK    2  A    between atoms: N_2  and  C_3
REMARK    3  A    between atoms: C_3  and  C_4
REMARK    4  A    between atoms: C_7  and  C_8
REMARK    5  A    between atoms: C_8  and  O_9
REMARK    6  A    between atoms: O_9  and  C_10
REMARK    7  A    between atoms: C_13  and  C_14
REMARK                            x       y       z     vdW  Elec       q    Type
REMARK                         _______ _______ _______ _____ _____    ______ ____
ROOT
ATOM      1  O   UNL     1      47.837   5.236  15.109  0.00  0.00    +0.000 OA
ENDROOT
BRANCH   1   2
ATOM      2  C   UNL     1      46.951   4.950  14.107  0.00  0.00    +0.000 A 
ATOM      3  C   UNL     1      46.290   5.880  13.306  0.00  0.00    +0.000 A 
ATOM      4  C   UNL     1      45.417   5.439  12.312  0.00  0.00    +0.000 A 
ATOM      5  C   UNL     1      45.231   4.074  12.151  0.00  0.00    +0.000 A 
ATOM      6  N   UNL     1      45.851   3.131  12.915  0.00  0.00    +0.000 NA
ATOM      7  C   UNL     1      46.692   3.601  13.870  0.00  0.00    +0.000 A 
BRANCH   5   8
ATOM      8  C   UNL     1      44.311   3.579  11.080  0.00  0.00    +0.000 C 
ATOM      9  N   UNL     1      43.690   2.389  11.339  0.00  0.00    +0.000 N 
ATOM     10  O   UNL     1      44.124   4.192  10.035  0.00  0.00    +0.000 OA
ATOM     11  H   UNL     1      43.878   1.907  12.213  0.00  0.00    +0.000 HD
ATOM     12  H   UNL     1      43.068   1.988  10.653  0.00  0.00    +0.000 HD
ENDBRANCH   5   8
ENDBRANCH   1   2
BRANCH   1  13
ATOM     13  C   UNL     1      47.653   4.525  16.333  0.00  0.00    +0.000 C 
BRANCH  13  17
ATOM     14  C   UNL     1      51.414   2.857  17.690  0.00  0.00    +0.000 A 
ATOM     15  C   UNL     1      51.222   4.245  17.639  0.00  0.00    +0.000 A 
ATOM     16  C   UNL     1      50.013   4.785  17.195  0.00  0.00    +0.000 A 
ATOM     17  C   UNL     1      48.969   3.946  16.786  0.00  0.00    +0.000 A 
ATOM     18  C   UNL     1      49.167   2.559  16.810  0.00  0.00    +0.000 A 
ATOM     19  C   UNL     1      50.373   2.020  17.265  0.00  0.00    +0.000 A 
BRANCH  14  20
ATOM     20  C   UNL     1      52.725   2.277  18.174  0.00  0.00    +0.000 C 
BRANCH  20  22
ATOM     21  C   UNL     1      53.763   0.165  17.646  0.00  0.00    +0.000 C 
ATOM     22  N   UNL     1      52.645   0.821  18.305  0.00  0.00    +0.000 NA
ATOM     23  H   UNL     1      52.651   0.576  19.293  0.00  0.00    +0.000 HD
ENDBRANCH  20  22
ENDBRANCH  14  20
ENDBRANCH  13  17
ENDBRANCH   1  13
TORSDOF 6
ENDMDL
MODEL 9
REMARK VINA RESULT:    -5.651      4.372      8.298
REMARK INTER + INTRA:          -8.372
REMARK INTER:                  -7.970
REMARK INTRA:                  -0.401
REMARK UNBOUND:                -0.738
REMARK  Name = 
REMARK  7 active torsions:
REMARK  status: ('A' for Active; 'I' for Inactive)
REMARK    1  A    between atoms: C_1  and  N_2
REMARK    2  A    between atoms: N_2  and  C_3
REMARK    3  A    between atoms: C_3  and  C_4
REMARK    4  A    between atoms: C_7  and  C_8
REMARK    5  A    between atoms: C_8  and  O_9
REMARK    6  A    between atoms: O_9  and  C_10
REMARK    7  A    between atoms: C_13  and  C_14
REMARK                            x       y       z     vdW  Elec       q    Type
REMARK                         _______ _______ _______ _____ _____    ______ ____
ROOT
ATOM      1  O   UNL     1      46.942   3.904  14.705  0.00  0.00    +0.000 OA
ENDROOT
BRANCH   1   2
ATOM      2  C   UNL     1      47.517   4.019  15.940  0.00  0.00    +0.000 A 
ATOM      3  C   UNL     1      47.546   3.035  16.927  0.00  0.00    +0.000 A 
ATOM      4  C   UNL     1      48.179   3.293  18.142  0.00  0.00    +0.000 A 
ATOM      5  C   UNL     1      48.765   4.536  18.333  0.00  0.00    +0.000 A 
ATOM      6  N   UNL     1      48.754   5.529  17.399  0.00  0.00    +0.000 NA
ATOM      7  C   UNL     1      48.129   5.237  16.231  0.00  0.00    +0.000 A 
BRANCH   5   8
ATOM      8  C   UNL     1      49.464   4.829  19.624  0.00  0.00    +0.000 C 
ATOM      9  N   UNL     1      49.038   4.105  20.703  0.00  0.00    +0.000 N 
ATOM     10  O   UNL     1      50.356   5.664  19.716  0.00  0.00    +0.000 OA
ATOM     11  H   UNL     1      48.290   3.429  20.587  0.00  0.00    +0.000 HD
ATOM     12  H   UNL     1      49.456   4.263  21.608  0.00  0.00    +0.000 HD
ENDBRANCH   5   8
ENDBRANCH   1   2
BRANCH   1  13
ATOM     13  C   UNL     1      46.423   5.105  14.137  0.00  0.00    +0.000 C 
BRANCH  13  17
ATOM     14  C   UNL     1      44.980   4.289  10.135  0.00  0.00    +0.000 A 
ATOM     15  C   UNL     1      45.523   5.540  10.460  0.00  0.00    +0.000 A 
ATOM     16  C   UNL     1      45.982   5.808  11.752  0.00  0.00    +0.000 A 
ATOM     17  C   UNL     1      45.902   4.829  12.749  0.00  0.00    +0.000 A 
ATOM     18  C   UNL     1      45.337   3.586  12.435  0.00  0.00    +0.000 A 
ATOM     19  C   UNL     1      44.888   3.316  11.140  0.00  0.00    +0.000 A 
BRANCH  14  20
ATOM     20  C   UNL     1      44.486   4.002   8.733  0.00  0.00    +0.000 C 
BRANCH  20  22
ATOM     21  C   UNL     1      46.309   3.557   7.218  0.00  0.00    +0.000 C 
ATOM     22  N   UNL     1      45.299   2.971   8.085  0.00  0.00    +0.000 NA
ATOM     23  H   UNL     1      45.758   2.412   8.800  0.00  0.00    +0.000 HD
ENDBRANCH  20  22
ENDBRANCH  14  20
ENDBRANCH  13  17
ENDBRANCH   1  13
TORSDOF 6
ENDMDL
