MODEL 1
REMARK VINA RESULT:    -8.232      0.000      0.000
REMARK INTER + INTRA:         -14.117
REMARK INTER:                 -12.564
REMARK INTRA:                  -1.553
REMARK UNBOUND:                -1.553
REMARK  Name = 
REMARK  11 active torsions:
REMARK  status: ('A' for Active; 'I' for Inactive)
REMARK    1  A    between atoms: C_1  and  O_2
REMARK    2  A    between atoms: O_2  and  C_3
REMARK    3  A    between atoms: C_3  and  C_4
REMARK    4  A    between atoms: C_4  and  N_5
REMARK    5  A    between atoms: C_4  and  C_19
REMARK    6  A    between atoms: C_6  and  C_8
REMARK    7  A    between atoms: N_14  and  C_15
REMARK    8  A    between atoms: C_22  and  C_23
REMARK    9  A    between atoms: C_23  and  N_24
REMARK   10  A    between atoms: N_24  and  C_25
REMARK   11  A    between atoms: C_25  and  C_26
REMARK                            x       y       z     vdW  Elec       q    Type
REMARK                         _______ _______ _______ _____ _____    ______ ____
ROOT
ATOM      1  C   UNL     1      47.352   7.514  13.096  0.00  0.00    +0.000 C 
ENDROOT
BRANCH   1   2
ATOM      2  C   UNL     1      46.447   6.415  12.583  0.00  0.00    +0.000 A 
ATOM      3  C   UNL     1      45.866   5.463  13.428  0.00  0.00    +0.000 A 
ATOM      4  C   UNL     1      44.930   4.565  12.925  0.00  0.00    +0.000 A 
ATOM      5  C   UNL     1      44.600   4.631  11.574  0.00  0.00    +0.000 A 
ATOM      6  N   UNL     1      45.184   5.511  10.723  0.00  0.00    +0.000 NA
ATOM      7  C   UNL     1      46.093   6.370  11.238  0.00  0.00    +0.000 A 
BRANCH   5   8
ATOM      8  C   UNL     1      43.562   3.691  10.992  0.00  0.00    +0.000 C 
BRANCH   8   9
ATOM      9  N   UNL     1      43.788   3.350   9.582  0.00  0.00    +0.000 NA
ATOM     10  H   UNL     1      44.325   4.119   9.173  0.00  0.00    +0.000 HD
BRANCH   9  11
ATOM     11  C   UNL     1      44.581   2.128   9.437  0.00  0.00    +0.000 C 
BRANCH  11  12
ATOM     12  C   UNL     1      45.625   2.280   8.358  0.00  0.00    +0.000 A 
ATOM     13  C   UNL     1      46.461   1.207   8.015  0.00  0.00    +0.000 A 
ATOM     14  C   UNL     1      47.411   1.348   7.001  0.00  0.00    +0.000 A 
ATOM     15  C   UNL     1      47.538   2.560   6.326  0.00  0.00    +0.000 A 
ATOM     16  C   UNL     1      46.717   3.634   6.661  0.00  0.00    +0.000 A 
ATOM     17  C   UNL     1      45.765   3.494   7.671  0.00  0.00    +0.000 A 
ENDBRANCH  11  12
ENDBRANCH   9  11
ENDBRANCH   8   9
ENDBRANCH   5   8
ENDBRANCH   1   2
BRANCH   1  18
ATOM     18  N   UNL     1      47.840   7.205  14.430  0.00  0.00    +0.000 N 
ATOM     19  C   UNL     1      49.161   7.293  14.783  0.00  0.00    +0.000 C 
ATOM     20  O   UNL     1      50.048   7.523  13.970  0.00  0.00    +0.000 OA
ATOM     21  H   UNL     1      47.142   7.202  15.165  0.00  0.00    +0.000 HD
BRANCH  19  22
ATOM     22  C   UNL     1      49.462   7.054  16.205  0.00  0.00    +0.000 A 
ATOM     23  C   UNL     1      50.182   7.996  16.927  0.00  0.00    +0.000 A 
ATOM     24  S   UNL     1      50.416   7.566  18.560  0.00  0.00    +0.000 S 
ATOM     25  C   UNL     1      49.527   6.130  18.372  0.00  0.00    +0.000 A 
ATOM     26  N   UNL     1      49.299   5.303  19.425  0.00  0.00    +0.000 NA
ATOM     27  C   UNL     1      48.576   4.269  19.151  0.00  0.00    +0.000 A 
ATOM     28  N   UNL     1      48.073   3.952  17.907  0.00  0.00    +0.000 N 
ATOM     29  C   UNL     1      47.313   2.738  17.700  0.00  0.00    +0.000 C 
ATOM     30  C   UNL     1      48.367   4.726  16.790  0.00  0.00    +0.000 A 
ATOM     31  O   UNL     1      48.082   4.371  15.649  0.00  0.00    +0.000 OA
ATOM     32  C   UNL     1      49.103   5.948  17.069  0.00  0.00    +0.000 A 
ENDBRANCH  19  22
ENDBRANCH   1  18
BRANCH   1  33
ATOM     33  C   UNL     1      46.569   8.851  13.087  0.00  0.00    +0.000 C 
BRANCH  33  35
ATOM     34  C   UNL     1      48.342   9.705  11.795  0.00  0.00    +0.000 C 
ATOM     35  O   UNL     1      46.930   9.643  11.950  0.00  0.00    +0.000 OA
ENDBRANCH  33  35
ENDBRANCH   1  33
TORSDOF 9
ENDMDL
MODEL 2
REMARK VINA RESULT:    -8.025      1.895      2.728
REMARK INTER + INTRA:         -13.801
REMARK INTER:                 -12.387
REMARK INTRA:                  -1.414
REMARK UNBOUND:                -1.553
REMARK  Name = 
REMARK  11 active torsions:
REMARK  status: ('A' for Active; 'I' for Inactive)
REMARK    1  A    between atoms: C_1  and  O_2
REMARK    2  A    between atoms: O_2  and  C_3
REMARK    3  A    between atoms: C_3  and  C_4
REMARK    4  A    between atoms: C_4  and  N_5
REMARK    5  A    between atoms: C_4  and  C_19
REMARK    6  A    between atoms: C_6  and  C_8
REMARK    7  A    between atoms: N_14  and  C_15
REMARK    8  A    between atoms: C_22  and  C_23
REMARK    9  A    between atoms: C_23  and  N_24
REMARK   10  A    between atoms: N_24  and  C_25
REMARK   11  A    between atoms: C_25  and  C_26
REMARK                            x       y       z     vdW  Elec       q    Type
REMARK                         _______ _______ _______ _____ _____    ______ ____
ROOT
ATOM      1  C   UNL     1      47.787   6.666  13.728  0.00  0.00    +0.000 C 
ENDROOT
BRANCH   1   2
ATOM      2  C   UNL     1      46.629   6.001  13.016  0.00  0.00    +0.000 A 
ATOM      3  C   UNL     1      46.364   6.205  11.658  0.00  0.00    +0.000 A 
ATOM      4  C   UNL     1      45.377   5.459  11.021  0.00  0.00    +0.000 A 
ATOM      5  C   UNL     1      44.663   4.525  11.765  0.00  0.00    +0.000 A 
ATOM      6  N   UNL     1      44.865   4.342  13.094  0.00  0.00    +0.000 NA
ATOM      7  C   UNL     1      45.828   5.083  13.688  0.00  0.00    +0.000 A 
BRANCH   5   8
ATOM      8  C   UNL     1      43.599   3.670  11.103  0.00  0.00    +0.000 C 
BRANCH   8   9
ATOM      9  N   UNL     1      43.844   3.405   9.680  0.00  0.00    +0.000 NA
ATOM     10  H   UNL     1      44.443   4.159   9.336  0.00  0.00    +0.000 HD
BRANCH   9  11
ATOM     11  C   UNL     1      44.555   2.142   9.477  0.00  0.00    +0.000 C 
BRANCH  11  12
ATOM     12  C   UNL     1      45.582   2.266   8.378  0.00  0.00    +0.000 A 
ATOM     13  C   UNL     1      45.741   3.472   7.680  0.00  0.00    +0.000 A 
ATOM     14  C   UNL     1      46.707   3.587   6.678  0.00  0.00    +0.000 A 
ATOM     15  C   UNL     1      47.518   2.499   6.361  0.00  0.00    +0.000 A 
ATOM     16  C   UNL     1      47.365   1.294   7.043  0.00  0.00    +0.000 A 
ATOM     17  C   UNL     1      46.403   1.179   8.046  0.00  0.00    +0.000 A 
ENDBRANCH  11  12
ENDBRANCH   9  11
ENDBRANCH   8   9
ENDBRANCH   5   8
ENDBRANCH   1   2
BRANCH   1  18
ATOM     18  N   UNL     1      47.818   6.288  15.132  0.00  0.00    +0.000 N 
ATOM     19  C   UNL     1      48.962   6.301  15.887  0.00  0.00    +0.000 C 
ATOM     20  O   UNL     1      50.068   6.514  15.404  0.00  0.00    +0.000 OA
ATOM     21  H   UNL     1      46.923   6.294  15.610  0.00  0.00    +0.000 HD
BRANCH  19  22
ATOM     22  C   UNL     1      48.789   6.000  17.318  0.00  0.00    +0.000 A 
ATOM     23  C   UNL     1      49.060   4.724  17.793  0.00  0.00    +0.000 A 
ATOM     24  S   UNL     1      48.829   4.562  19.474  0.00  0.00    +0.000 S 
ATOM     25  C   UNL     1      48.402   6.199  19.633  0.00  0.00    +0.000 A 
ATOM     26  N   UNL     1      48.126   6.738  20.850  0.00  0.00    +0.000 NA
ATOM     27  C   UNL     1      47.856   8.000  20.832  0.00  0.00    +0.000 A 
ATOM     28  N   UNL     1      47.801   8.790  19.703  0.00  0.00    +0.000 N 
ATOM     29  C   UNL     1      47.440  10.188  19.791  0.00  0.00    +0.000 C 
ATOM     30  C   UNL     1      47.985   8.251  18.434  0.00  0.00    +0.000 A 
ATOM     31  O   UNL     1      47.767   8.891  17.409  0.00  0.00    +0.000 OA
ATOM     32  C   UNL     1      48.379   6.851  18.415  0.00  0.00    +0.000 A 
ENDBRANCH  19  22
ENDBRANCH   1  18
BRANCH   1  33
ATOM     33  C   UNL     1      47.660   8.201  13.569  0.00  0.00    +0.000 C 
BRANCH  33  35
ATOM     34  C   UNL     1      48.783   9.065  11.689  0.00  0.00    +0.000 C 
ATOM     35  O   UNL     1      48.881   8.763  13.076  0.00  0.00    +0.000 OA
ENDBRANCH  33  35
ENDBRANCH   1  33
TORSDOF 9
ENDMDL
MODEL 3
REMARK VINA RESULT:    -7.641      1.910      4.543
REMARK INTER + INTRA:         -13.215
REMARK INTER:                 -11.718
REMARK INTRA:                  -1.497
REMARK UNBOUND:                -1.553
REMARK  Name = 
REMARK  11 active torsions:
REMARK  status: ('A' for Active; 'I' for Inactive)
REMARK    1  A    between atoms: C_1  and  O_2
REMARK    2  A    between atoms: O_2  and  C_3
REMARK    3  A    between atoms: C_3  and  C_4
REMARK    4  A    between atoms: C_4  and  N_5
REMARK    5  A    between atoms: C_4  and  C_19
REMARK    6  A    between atoms: C_6  and  C_8
REMARK    7  A    between atoms: N_14  and  C_15
REMARK    8  A    between atoms: C_22  and  C_23
REMARK    9  A    between atoms: C_23  and  N_24
REMARK   10  A    between atoms: N_24  and  C_25
REMARK   11  A    between atoms: C_25  and  C_26
REMARK                            x       y       z     vdW  Elec       q    Type
REMARK                         _______ _______ _______ _____ _____    ______ ____
ROOT
ATOM      1  C   UNL     1      47.065   5.008  15.040  0.00  0.00    +0.000 C 
ENDROOT
BRANCH   1   2
ATOM      2  C   UNL     1      46.226   4.813  13.795  0.00  0.00    +0.000 A 
ATOM      3  C   UNL     1      46.051   3.562  13.194  0.00  0.00    +0.000 A 
ATOM      4  C   UNL     1      45.155   3.417  12.139  0.00  0.00    +0.000 A 
ATOM      5  C   UNL     1      44.454   4.535  11.699  0.00  0.00    +0.000 A 
ATOM      6  N   UNL     1      44.641   5.769  12.232  0.00  0.00    +0.000 NA
ATOM      7  C   UNL     1      45.520   5.883  13.253  0.00  0.00    +0.000 A 
BRANCH   5   8
ATOM      8  C   UNL     1      43.446   4.414  10.572  0.00  0.00    +0.000 C 
BRANCH   8   9
ATOM      9  N   UNL     1      43.866   3.518   9.487  0.00  0.00    +0.000 NA
ATOM     10  H   UNL     1      43.023   3.267   8.966  0.00  0.00    +0.000 HD
BRANCH   9  11
ATOM     11  C   UNL     1      44.782   4.182   8.558  0.00  0.00    +0.000 C 
BRANCH  11  12
ATOM     12  C   UNL     1      45.718   3.189   7.913  0.00  0.00    +0.000 A 
ATOM     13  C   UNL     1      46.513   3.561   6.819  0.00  0.00    +0.000 A 
ATOM     14  C   UNL     1      47.393   2.643   6.241  0.00  0.00    +0.000 A 
ATOM     15  C   UNL     1      47.482   1.347   6.744  0.00  0.00    +0.000 A 
ATOM     16  C   UNL     1      46.693   0.964   7.826  0.00  0.00    +0.000 A 
ATOM     17  C   UNL     1      45.817   1.881   8.408  0.00  0.00    +0.000 A 
ENDBRANCH  11  12
ENDBRANCH   9  11
ENDBRANCH   8   9
ENDBRANCH   5   8
ENDBRANCH   1   2
BRANCH   1  18
ATOM     18  N   UNL     1      48.207   5.864  14.767  0.00  0.00    +0.000 N 
ATOM     19  C   UNL     1      48.897   6.529  15.747  0.00  0.00    +0.000 C 
ATOM     20  O   UNL     1      48.529   6.549  16.915  0.00  0.00    +0.000 OA
ATOM     21  H   UNL     1      48.656   5.726  13.867  0.00  0.00    +0.000 HD
BRANCH  19  22
ATOM     22  C   UNL     1      50.097   7.259  15.303  0.00  0.00    +0.000 A 
ATOM     23  C   UNL     1      51.312   7.040  15.937  0.00  0.00    +0.000 A 
ATOM     24  S   UNL     1      52.595   7.950  15.279  0.00  0.00    +0.000 S 
ATOM     25  C   UNL     1      51.582   8.635  14.099  0.00  0.00    +0.000 A 
ATOM     26  N   UNL     1      52.074   9.486  13.160  0.00  0.00    +0.000 NA
ATOM     27  C   UNL     1      51.204   9.900  12.300  0.00  0.00    +0.000 A 
ATOM     28  N   UNL     1      49.864   9.574  12.297  0.00  0.00    +0.000 N 
ATOM     29  C   UNL     1      48.965  10.135  11.313  0.00  0.00    +0.000 C 
ATOM     30  C   UNL     1      49.311   8.783  13.298  0.00  0.00    +0.000 A 
ATOM     31  O   UNL     1      48.099   8.625  13.418  0.00  0.00    +0.000 OA
ATOM     32  C   UNL     1      50.270   8.222  14.236  0.00  0.00    +0.000 A 
ENDBRANCH  19  22
ENDBRANCH   1  18
BRANCH   1  33
ATOM     33  C   UNL     1      47.521   3.621  15.558  0.00  0.00    +0.000 C 
BRANCH  33  35
ATOM     34  C   UNL     1      47.908   3.057  17.810  0.00  0.00    +0.000 C 
ATOM     35  O   UNL     1      46.920   3.330  16.824  0.00  0.00    +0.000 OA
ENDBRANCH  33  35
ENDBRANCH   1  33
TORSDOF 9
ENDMDL
MODEL 4
REMARK VINA RESULT:    -7.143      3.685      5.492
REMARK INTER + INTRA:         -12.454
REMARK INTER:                 -11.158
REMARK INTRA:                  -1.296
REMARK UNBOUND:                -1.553
REMARK  Name = 
REMARK  11 active torsions:
REMARK  status: ('A' for Active; 'I' for Inactive)
REMARK    1  A    between atoms: C_1  and  O_2
REMARK    2  A    between atoms: O_2  and  C_3
REMARK    3  A    between atoms: C_3  and  C_4
REMARK    4  A    between atoms: C_4  and  N_5
REMARK    5  A    between atoms: C_4  and  C_19
REMARK    6  A    between atoms: C_6  and  C_8
REMARK    7  A    between atoms: N_14  and  C_15
REMARK    8  A    between atoms: C_22  and  C_23
REMARK    9  A    between atoms: C_23  and  N_24
REMARK   10  A    between atoms: N_24  and  C_25
REMARK   11  A    between atoms: C_25  and  C_26
REMARK                            x       y       z     vdW  Elec       q    Type
REMARK                         _______ _______ _______ _____ _____    ______ ____
ROOT
ATOM      1  C   UNL     1      48.451   7.180  13.675  0.00  0.00    +0.000 C 
ENDROOT
BRANCH   1   2
ATOM      2  C   UNL     1      47.317   6.431  13.010  0.00  0.00    +0.000 A 
ATOM      3  C   UNL     1      46.837   6.765  11.739  0.00  0.00    +0.000 A 
ATOM      4  C   UNL     1      45.892   5.955  11.117  0.00  0.00    +0.000 A 
ATOM      5  C   UNL     1      45.437   4.823  11.788  0.00  0.00    +0.000 A 
ATOM      6  N   UNL     1      45.849   4.503  13.040  0.00  0.00    +0.000 NA
ATOM      7  C   UNL     1      46.765   5.310  13.623  0.00  0.00    +0.000 A 
BRANCH   5   8
ATOM      8  C   UNL     1      44.430   3.897  11.133  0.00  0.00    +0.000 C 
BRANCH   8   9
ATOM      9  N   UNL     1      44.985   2.598  10.732  0.00  0.00    +0.000 NA
ATOM     10  H   UNL     1      44.658   1.911  11.416  0.00  0.00    +0.000 HD
BRANCH   9  11
ATOM     11  C   UNL     1      44.499   2.182   9.415  0.00  0.00    +0.000 C 
BRANCH  11  12
ATOM     12  C   UNL     1      45.585   2.292   8.374  0.00  0.00    +0.000 A 
ATOM     13  C   UNL     1      45.840   3.512   7.730  0.00  0.00    +0.000 A 
ATOM     14  C   UNL     1      46.860   3.611   6.782  0.00  0.00    +0.000 A 
ATOM     15  C   UNL     1      47.631   2.495   6.465  0.00  0.00    +0.000 A 
ATOM     16  C   UNL     1      47.385   1.277   7.093  0.00  0.00    +0.000 A 
ATOM     17  C   UNL     1      46.368   1.176   8.043  0.00  0.00    +0.000 A 
ENDBRANCH  11  12
ENDBRANCH   9  11
ENDBRANCH   8   9
ENDBRANCH   5   8
ENDBRANCH   1   2
BRANCH   1  18
ATOM     18  N   UNL     1      49.660   7.111  12.870  0.00  0.00    +0.000 N 
ATOM     19  C   UNL     1      50.199   8.198  12.232  0.00  0.00    +0.000 C 
ATOM     20  O   UNL     1      49.635   9.285  12.190  0.00  0.00    +0.000 OA
ATOM     21  H   UNL     1      50.251   6.303  13.031  0.00  0.00    +0.000 HD
BRANCH  19  22
ATOM     22  C   UNL     1      51.488   7.970  11.556  0.00  0.00    +0.000 A 
ATOM     23  C   UNL     1      51.517   7.353  10.314  0.00  0.00    +0.000 A 
ATOM     24  S   UNL     1      53.088   7.193   9.671  0.00  0.00    +0.000 S 
ATOM     25  C   UNL     1      53.779   7.981  11.008  0.00  0.00    +0.000 A 
ATOM     26  N   UNL     1      55.115   8.222  11.067  0.00  0.00    +0.000 NA
ATOM     27  C   UNL     1      55.501   8.864  12.119  0.00  0.00    +0.000 A 
ATOM     28  N   UNL     1      54.683   9.270  13.153  0.00  0.00    +0.000 N 
ATOM     29  C   UNL     1      55.229   9.942  14.312  0.00  0.00    +0.000 C 
ATOM     30  C   UNL     1      53.328   8.956  13.169  0.00  0.00    +0.000 A 
ATOM     31  O   UNL     1      52.620   9.149  14.153  0.00  0.00    +0.000 OA
ATOM     32  C   UNL     1      52.835   8.313  11.961  0.00  0.00    +0.000 A 
ENDBRANCH  19  22
ENDBRANCH   1  18
BRANCH   1  33
ATOM     33  C   UNL     1      48.688   6.584  15.084  0.00  0.00    +0.000 C 
BRANCH  33  35
ATOM     34  C   UNL     1      50.303   6.100  16.727  0.00  0.00    +0.000 C 
ATOM     35  O   UNL     1      50.062   6.712  15.466  0.00  0.00    +0.000 OA
ENDBRANCH  33  35
ENDBRANCH   1  33
TORSDOF 9
ENDMDL
MODEL 5
REMARK VINA RESULT:    -6.879      3.394      5.332
REMARK INTER + INTRA:         -12.052
REMARK INTER:                 -10.766
REMARK INTRA:                  -1.286
REMARK UNBOUND:                -1.553
REMARK  Name = 
REMARK  11 active torsions:
REMARK  status: ('A' for Active; 'I' for Inactive)
REMARK    1  A    between atoms: C_1  and  O_2
REMARK    2  A    between atoms: O_2  and  C_3
REMARK    3  A    between atoms: C_3  and  C_4
REMARK    4  A    between atoms: C_4  and  N_5
REMARK    5  A    between atoms: C_4  and  C_19
REMARK    6  A    between atoms: C_6  and  C_8
REMARK    7  A    between atoms: N_14  and  C_15
REMARK    8  A    between atoms: C_22  and  C_23
REMARK    9  A    between atoms: C_23  and  N_24
REMARK   10  A    between atoms: N_24  and  C_25
REMARK   11  A    between atoms: C_25  and  C_26
REMARK                            x       y       z     vdW  Elec       q    Type
REMARK                         _______ _______ _______ _____ _____    ______ ____
ROOT
ATOM      1  C   UNL     1      48.795   7.242  14.751  0.00  0.00    +0.000 C 
ENDROOT
BRANCH   1   2
ATOM      2  C   UNL     1      47.896   6.519  13.771  0.00  0.00    +0.000 A 
ATOM      3  C   UNL     1      47.249   5.320  14.088  0.00  0.00    +0.000 A 
ATOM      4  C   UNL     1      46.322   4.776  13.204  0.00  0.00    +0.000 A 
ATOM      5  C   UNL     1      46.068   5.441  12.008  0.00  0.00    +0.000 A 
ATOM      6  N   UNL     1      46.718   6.579  11.655  0.00  0.00    +0.000 NA
ATOM      7  C   UNL     1      47.615   7.084  12.531  0.00  0.00    +0.000 A 
BRANCH   5   8
ATOM      8  C   UNL     1      45.044   4.898  11.031  0.00  0.00    +0.000 C 
BRANCH   8   9
ATOM      9  N   UNL     1      45.357   5.171   9.623  0.00  0.00    +0.000 NA
ATOM     10  H   UNL     1      46.363   5.026   9.508  0.00  0.00    +0.000 HD
BRANCH   9  11
ATOM     11  C   UNL     1      44.668   4.245   8.722  0.00  0.00    +0.000 C 
BRANCH  11  12
ATOM     12  C   UNL     1      45.632   3.253   8.119  0.00  0.00    +0.000 A 
ATOM     13  C   UNL     1      46.574   3.661   7.162  0.00  0.00    +0.000 A 
ATOM     14  C   UNL     1      47.477   2.742   6.624  0.00  0.00    +0.000 A 
ATOM     15  C   UNL     1      47.445   1.410   7.030  0.00  0.00    +0.000 A 
ATOM     16  C   UNL     1      46.512   0.992   7.976  0.00  0.00    +0.000 A 
ATOM     17  C   UNL     1      45.611   1.909   8.518  0.00  0.00    +0.000 A 
ENDBRANCH  11  12
ENDBRANCH   9  11
ENDBRANCH   8   9
ENDBRANCH   5   8
ENDBRANCH   1   2
BRANCH   1  18
ATOM     18  N   UNL     1      50.144   7.363  14.225  0.00  0.00    +0.000 N 
ATOM     19  C   UNL     1      50.697   8.559  13.847  0.00  0.00    +0.000 C 
ATOM     20  O   UNL     1      50.053   9.601  13.810  0.00  0.00    +0.000 OA
ATOM     21  H   UNL     1      50.764   6.583  14.417  0.00  0.00    +0.000 HD
BRANCH  19  22
ATOM     22  C   UNL     1      52.113   8.513  13.445  0.00  0.00    +0.000 A 
ATOM     23  C   UNL     1      53.103   8.807  14.372  0.00  0.00    +0.000 A 
ATOM     24  S   UNL     1      54.683   8.681  13.741  0.00  0.00    +0.000 S 
ATOM     25  C   UNL     1      54.100   8.187  12.223  0.00  0.00    +0.000 A 
ATOM     26  N   UNL     1      54.953   7.861  11.217  0.00  0.00    +0.000 NA
ATOM     27  C   UNL     1      54.378   7.464  10.131  0.00  0.00    +0.000 A 
ATOM     28  N   UNL     1      53.016   7.386   9.929  0.00  0.00    +0.000 N 
ATOM     29  C   UNL     1      52.476   6.973   8.653  0.00  0.00    +0.000 C 
ATOM     30  C   UNL     1      52.117   7.802  10.905  0.00  0.00    +0.000 A 
ATOM     31  O   UNL     1      50.913   7.910  10.687  0.00  0.00    +0.000 OA
ATOM     32  C   UNL     1      52.719   8.172  12.176  0.00  0.00    +0.000 A 
ENDBRANCH  19  22
ENDBRANCH   1  18
BRANCH   1  33
ATOM     33  C   UNL     1      48.790   6.473  16.096  0.00  0.00    +0.000 C 
BRANCH  33  35
ATOM     34  C   UNL     1      49.915   4.842  17.367  0.00  0.00    +0.000 C 
ATOM     35  O   UNL     1      50.005   5.734  16.263  0.00  0.00    +0.000 OA
ENDBRANCH  33  35
ENDBRANCH   1  33
TORSDOF 9
ENDMDL
MODEL 6
REMARK VINA RESULT:    -6.835      2.360      3.945
REMARK INTER + INTRA:         -11.984
REMARK INTER:                 -10.584
REMARK INTRA:                  -1.401
REMARK UNBOUND:                -1.553
REMARK  Name = 
REMARK  11 active torsions:
REMARK  status: ('A' for Active; 'I' for Inactive)
REMARK    1  A    between atoms: C_1  and  O_2
REMARK    2  A    between atoms: O_2  and  C_3
REMARK    3  A    between atoms: C_3  and  C_4
REMARK    4  A    between atoms: C_4  and  N_5
REMARK    5  A    between atoms: C_4  and  C_19
REMARK    6  A    between atoms: C_6  and  C_8
REMARK    7  A    between atoms: N_14  and  C_15
REMARK    8  A    between atoms: C_22  and  C_23
REMARK    9  A    between atoms: C_23  and  N_24
REMARK   10  A    between atoms: N_24  and  C_25
REMARK   11  A    between atoms: C_25  and  C_26
REMARK                            x       y       z     vdW  Elec       q    Type
REMARK                         _______ _______ _______ _____ _____    ______ ____
ROOT
ATOM      1  C   UNL     1      47.255   4.244  15.844  0.00  0.00    +0.000 C 
ENDROOT
BRANCH   1   2
ATOM      2  C   UNL     1      46.761   4.441  14.427  0.00  0.00    +0.000 A 
ATOM      3  C   UNL     1      46.246   3.392  13.658  0.00  0.00    +0.000 A 
ATOM      4  C   UNL     1      45.673   3.656  12.417  0.00  0.00    +0.000 A 
ATOM      5  C   UNL     1      45.635   4.972  11.965  0.00  0.00    +0.000 A 
ATOM      6  N   UNL     1      46.170   6.000  12.669  0.00  0.00    +0.000 NA
ATOM      7  C   UNL     1      46.724   5.715  13.870  0.00  0.00    +0.000 A 
BRANCH   5   8
ATOM      8  C   UNL     1      44.992   5.306  10.632  0.00  0.00    +0.000 C 
BRANCH   8   9
ATOM      9  N   UNL     1      44.508   4.135   9.891  0.00  0.00    +0.000 NA
ATOM     10  H   UNL     1      43.500   4.074  10.056  0.00  0.00    +0.000 HD
BRANCH   9  11
ATOM     11  C   UNL     1      44.715   4.279   8.449  0.00  0.00    +0.000 C 
BRANCH  11  12
ATOM     12  C   UNL     1      45.684   3.245   7.932  0.00  0.00    +0.000 A 
ATOM     13  C   UNL     1      45.706   1.950   8.472  0.00  0.00    +0.000 A 
ATOM     14  C   UNL     1      46.590   0.992   7.974  0.00  0.00    +0.000 A 
ATOM     15  C   UNL     1      47.464   1.317   6.938  0.00  0.00    +0.000 A 
ATOM     16  C   UNL     1      47.456   2.600   6.397  0.00  0.00    +0.000 A 
ATOM     17  C   UNL     1      46.570   3.559   6.891  0.00  0.00    +0.000 A 
ENDBRANCH  11  12
ENDBRANCH   9  11
ENDBRANCH   8   9
ENDBRANCH   5   8
ENDBRANCH   1   2
BRANCH   1  18
ATOM     18  N   UNL     1      47.861   5.463  16.356  0.00  0.00    +0.000 N 
ATOM     19  C   UNL     1      47.779   5.846  17.669  0.00  0.00    +0.000 C 
ATOM     20  O   UNL     1      47.086   5.252  18.488  0.00  0.00    +0.000 OA
ATOM     21  H   UNL     1      48.587   5.871  15.777  0.00  0.00    +0.000 HD
BRANCH  19  22
ATOM     22  C   UNL     1      48.547   7.048  18.036  0.00  0.00    +0.000 A 
ATOM     23  C   UNL     1      47.926   8.082  18.722  0.00  0.00    +0.000 A 
ATOM     24  S   UNL     1      48.969   9.381  19.084  0.00  0.00    +0.000 S 
ATOM     25  C   UNL     1      50.296   8.589  18.376  0.00  0.00    +0.000 A 
ATOM     26  N   UNL     1      51.535   9.147  18.391  0.00  0.00    +0.000 NA
ATOM     27  C   UNL     1      52.458   8.421  17.854  0.00  0.00    +0.000 A 
ATOM     28  N   UNL     1      52.266   7.188  17.266  0.00  0.00    +0.000 N 
ATOM     29  C   UNL     1      53.366   6.480  16.648  0.00  0.00    +0.000 C 
ATOM     30  C   UNL     1      50.997   6.634  17.149  0.00  0.00    +0.000 A 
ATOM     31  O   UNL     1      50.776   5.630  16.477  0.00  0.00    +0.000 OA
ATOM     32  C   UNL     1      49.940   7.375  17.819  0.00  0.00    +0.000 A 
ENDBRANCH  19  22
ENDBRANCH   1  18
BRANCH   1  33
ATOM     33  C   UNL     1      48.267   3.071  15.863  0.00  0.00    +0.000 C 
BRANCH  33  35
ATOM     34  C   UNL     1      49.783   2.602  17.602  0.00  0.00    +0.000 C 
ATOM     35  O   UNL     1      48.422   2.557  17.190  0.00  0.00    +0.000 OA
ENDBRANCH  33  35
ENDBRANCH   1  33
TORSDOF 9
ENDMDL
MODEL 7
REMARK VINA RESULT:    -6.750      2.142      3.934
REMARK INTER + INTRA:         -11.854
REMARK INTER:                 -11.190
REMARK INTRA:                  -0.664
REMARK UNBOUND:                -1.553
REMARK  Name = 
REMARK  11 active torsions:
REMARK  status: ('A' for Active; 'I' for Inactive)
REMARK    1  A    between atoms: C_1  and  O_2
REMARK    2  A    between atoms: O_2  and  C_3
REMARK    3  A    between atoms: C_3  and  C_4
REMARK    4  A    between atoms: C_4  and  N_5
REMARK    5  A    between atoms: C_4  and  C_19
REMARK    6  A    between atoms: C_6  and  C_8
REMARK    7  A    between atoms: N_14  and  C_15
REMARK    8  A    between atoms: C_22  and  C_23
REMARK    9  A    between atoms: C_23  and  N_24
REMARK   10  A    between atoms: N_24  and  C_25
REMARK   11  A    between atoms: C_25  and  C_26
REMARK                            x       y       z     vdW  Elec       q    Type
REMARK                         _______ _______ _______ _____ _____    ______ ____
ROOT
ATOM      1  C   UNL     1      46.889   4.883  14.986  0.00  0.00    +0.000 C 
ENDROOT
BRANCH   1   2
ATOM      2  C   UNL     1      46.091   4.719  13.710  0.00  0.00    +0.000 A 
ATOM      3  C   UNL     1      46.057   3.519  12.993  0.00  0.00    +0.000 A 
ATOM      4  C   UNL     1      45.194   3.380  11.910  0.00  0.00    +0.000 A 
ATOM      5  C   UNL     1      44.383   4.455  11.559  0.00  0.00    +0.000 A 
ATOM      6  N   UNL     1      44.432   5.647  12.207  0.00  0.00    +0.000 NA
ATOM      7  C   UNL     1      45.282   5.755  13.253  0.00  0.00    +0.000 A 
BRANCH   5   8
ATOM      8  C   UNL     1      43.407   4.336  10.405  0.00  0.00    +0.000 C 
BRANCH   8   9
ATOM      9  N   UNL     1      43.885   3.491   9.303  0.00  0.00    +0.000 NA
ATOM     10  H   UNL     1      43.086   3.330   8.684  0.00  0.00    +0.000 HD
BRANCH   9  11
ATOM     11  C   UNL     1      44.927   4.157   8.520  0.00  0.00    +0.000 C 
BRANCH  11  12
ATOM     12  C   UNL     1      45.825   3.151   7.841  0.00  0.00    +0.000 A 
ATOM     13  C   UNL     1      45.984   1.862   8.370  0.00  0.00    +0.000 A 
ATOM     14  C   UNL     1      46.800   0.929   7.726  0.00  0.00    +0.000 A 
ATOM     15  C   UNL     1      47.467   1.276   6.553  0.00  0.00    +0.000 A 
ATOM     16  C   UNL     1      47.321   2.554   6.021  0.00  0.00    +0.000 A 
ATOM     17  C   UNL     1      46.504   3.486   6.661  0.00  0.00    +0.000 A 
ENDBRANCH  11  12
ENDBRANCH   9  11
ENDBRANCH   8   9
ENDBRANCH   5   8
ENDBRANCH   1   2
BRANCH   1  18
ATOM     18  N   UNL     1      47.616   6.143  14.985  0.00  0.00    +0.000 N 
ATOM     19  C   UNL     1      48.446   6.528  13.965  0.00  0.00    +0.000 C 
ATOM     20  O   UNL     1      48.734   5.787  13.032  0.00  0.00    +0.000 OA
ATOM     21  H   UNL     1      47.268   6.852  15.620  0.00  0.00    +0.000 HD
BRANCH  19  22
ATOM     22  C   UNL     1      49.010   7.884  14.075  0.00  0.00    +0.000 A 
ATOM     23  C   UNL     1      48.815   8.799  13.051  0.00  0.00    +0.000 A 
ATOM     24  S   UNL     1      49.516  10.323  13.357  0.00  0.00    +0.000 S 
ATOM     25  C   UNL     1      50.067   9.827  14.887  0.00  0.00    +0.000 A 
ATOM     26  N   UNL     1      50.717  10.689  15.712  0.00  0.00    +0.000 NA
ATOM     27  C   UNL     1      51.044  10.194  16.858  0.00  0.00    +0.000 A 
ATOM     28  N   UNL     1      50.814   8.896  17.264  0.00  0.00    +0.000 N 
ATOM     29  C   UNL     1      51.268   8.431  18.556  0.00  0.00    +0.000 C 
ATOM     30  C   UNL     1      50.237   7.964  16.409  0.00  0.00    +0.000 A 
ATOM     31  O   UNL     1      50.184   6.767  16.680  0.00  0.00    +0.000 OA
ATOM     32  C   UNL     1      49.772   8.501  15.141  0.00  0.00    +0.000 A 
ENDBRANCH  19  22
ENDBRANCH   1  18
BRANCH   1  33
ATOM     33  C   UNL     1      47.858   3.683  15.128  0.00  0.00    +0.000 C 
BRANCH  33  35
ATOM     34  C   UNL     1      47.216   3.736  17.392  0.00  0.00    +0.000 C 
ATOM     35  O   UNL     1      47.534   2.903  16.284  0.00  0.00    +0.000 OA
ENDBRANCH  33  35
ENDBRANCH   1  33
TORSDOF 9
ENDMDL
MODEL 8
REMARK VINA RESULT:    -6.622      2.662      8.298
REMARK INTER + INTRA:         -11.660
REMARK INTER:                 -10.226
REMARK INTRA:                  -1.434
REMARK UNBOUND:                -1.553
REMARK  Name = 
REMARK  11 active torsions:
REMARK  status: ('A' for Active; 'I' for Inactive)
REMARK    1  A    between atoms: C_1  and  O_2
REMARK    2  A    between atoms: O_2  and  C_3
REMARK    3  A    between atoms: C_3  and  C_4
REMARK    4  A    between atoms: C_4  and  N_5
REMARK    5  A    between atoms: C_4  and  C_19
REMARK    6  A    between atoms: C_6  and  C_8
REMARK    7  A    between atoms: N_14  and  C_15
REMARK    8  A    between atoms: C_22  and  C_23
REMARK    9  A    between atoms: C_23  and  N_24
REMARK   10  A    between atoms: N_24  and  C_25
REMARK   11  A    between atoms: C_25  and  C_26
REMARK                            x       y       z     vdW  Elec       q    Type
REMARK                         _______ _______ _______ _____ _____    ______ ____
ROOT
ATOM      1  C   UNL     1      47.398   7.924  12.497  0.00  0.00    +0.000 C 
ENDROOT
BRANCH   1   2
ATOM      2  C   UNL     1      48.005   8.010  13.880  0.00  0.00    +0.000 A 
ATOM      3  C   UNL     1      47.846   9.131  14.702  0.00  0.00    +0.000 A 
ATOM      4  C   UNL     1      48.301   9.099  16.017  0.00  0.00    +0.000 A 
ATOM      5  C   UNL     1      48.918   7.942  16.483  0.00  0.00    +0.000 A 
ATOM      6  N   UNL     1      49.128   6.859  15.692  0.00  0.00    +0.000 NA
ATOM      7  C   UNL     1      48.679   6.919  14.418  0.00  0.00    +0.000 A 
BRANCH   5   8
ATOM      8  C   UNL     1      49.402   7.855  17.918  0.00  0.00    +0.000 C 
BRANCH   8   9
ATOM      9  N   UNL     1      48.525   7.074  18.798  0.00  0.00    +0.000 NA
ATOM     10  H   UNL     1      47.723   6.780  18.235  0.00  0.00    +0.000 HD
BRANCH   9  11
ATOM     11  C   UNL     1      49.187   5.867  19.295  0.00  0.00    +0.000 C 
BRANCH  11  12
ATOM     12  C   UNL     1      48.895   4.682  18.408  0.00  0.00    +0.000 A 
ATOM     13  C   UNL     1      49.913   3.784  18.053  0.00  0.00    +0.000 A 
ATOM     14  C   UNL     1      49.632   2.678  17.250  0.00  0.00    +0.000 A 
ATOM     15  C   UNL     1      48.335   2.459  16.790  0.00  0.00    +0.000 A 
ATOM     16  C   UNL     1      47.316   3.346  17.131  0.00  0.00    +0.000 A 
ATOM     17  C   UNL     1      47.595   4.450  17.937  0.00  0.00    +0.000 A 
ENDBRANCH  11  12
ENDBRANCH   9  11
ENDBRANCH   8   9
ENDBRANCH   5   8
ENDBRANCH   1   2
BRANCH   1  18
ATOM     18  N   UNL     1      46.651   6.687  12.334  0.00  0.00    +0.000 N 
ATOM     19  C   UNL     1      45.417   6.630  11.741  0.00  0.00    +0.000 C 
ATOM     20  O   UNL     1      44.795   7.634  11.412  0.00  0.00    +0.000 OA
ATOM     21  H   UNL     1      47.191   5.833  12.410  0.00  0.00    +0.000 HD
BRANCH  19  22
ATOM     22  C   UNL     1      44.856   5.280  11.557  0.00  0.00    +0.000 A 
ATOM     23  C   UNL     1      44.096   4.705  12.566  0.00  0.00    +0.000 A 
ATOM     24  S   UNL     1      43.509   3.153  12.173  0.00  0.00    +0.000 S 
ATOM     25  C   UNL     1      44.212   3.214  10.627  0.00  0.00    +0.000 A 
ATOM     26  N   UNL     1      44.043   2.199   9.739  0.00  0.00    +0.000 NA
ATOM     27  C   UNL     1      44.595   2.393   8.589  0.00  0.00    +0.000 A 
ATOM     28  N   UNL     1      45.339   3.499   8.234  0.00  0.00    +0.000 N 
ATOM     29  C   UNL     1      45.957   3.592   6.930  0.00  0.00    +0.000 C 
ATOM     30  C   UNL     1      45.611   4.510   9.150  0.00  0.00    +0.000 A 
ATOM     31  O   UNL     1      46.411   5.411   8.916  0.00  0.00    +0.000 OA
ATOM     32  C   UNL     1      44.933   4.376  10.429  0.00  0.00    +0.000 A 
ENDBRANCH  19  22
ENDBRANCH   1  18
BRANCH   1  33
ATOM     33  C   UNL     1      48.531   8.030  11.446  0.00  0.00    +0.000 C 
BRANCH  33  35
ATOM     34  C   UNL     1      50.567   9.211  11.445  0.00  0.00    +0.000 C 
ATOM     35  O   UNL     1      49.150   9.320  11.495  0.00  0.00    +0.000 OA
ENDBRANCH  33  35
ENDBRANCH   1  33
TORSDOF 9
ENDMDL
MODEL 9
REMARK VINA RESULT:    -6.555      3.309      9.384
REMARK INTER + INTRA:         -11.557
REMARK INTER:                  -9.611
REMARK INTRA:                  -1.946
REMARK UNBOUND:                -1.553
REMARK  Name = 
REMARK  11 active torsions:
REMARK  status: ('A' for Active; 'I' for Inactive)
REMARK    1  A    between atoms: C_1  and  O_2
REMARK    2  A    between atoms: O_2  and  C_3
REMARK    3  A    between atoms: C_3  and  C_4
REMARK    4  A    between atoms: C_4  and  N_5
REMARK    5  A    between atoms: C_4  and  C_19
REMARK    6  A    between atoms: C_6  and  C_8
REMARK    7  A    between atoms: N_14  and  C_15
REMARK    8  A    between atoms: C_22  and  C_23
REMARK    9  A    between atoms: C_23  and  N_24
REMARK   10  A    between atoms: N_24  and  C_25
REMARK   11  A    between atoms: C_25  and  C_26
REMARK                            x       y       z     vdW  Elec       q    Type
REMARK                         _______ _______ _______ _____ _____    ______ ____
ROOT
ATOM      1  C   UNL     1      48.161   4.746  15.990  0.00  0.00    +0.000 C 
ENDROOT
BRANCH   1   2
ATOM      2  C   UNL     1      48.293   5.501  17.295  0.00  0.00    +0.000 A 
ATOM      3  C   UNL     1      49.156   6.590  17.451  0.00  0.00    +0.000 A 
ATOM      4  C   UNL     1      49.131   7.336  18.625  0.00  0.00    +0.000 A 
ATOM      5  C   UNL     1      48.243   6.968  19.631  0.00  0.00    +0.000 A 
ATOM      6  N   UNL     1      47.430   5.887  19.526  0.00  0.00    +0.000 NA
ATOM      7  C   UNL     1      47.477   5.178  18.376  0.00  0.00    +0.000 A 
BRANCH   5   8
ATOM      8  C   UNL     1      48.163   7.772  20.915  0.00  0.00    +0.000 C 
BRANCH   8   9
ATOM      9  N   UNL     1      47.175   8.858  20.880  0.00  0.00    +0.000 NA
ATOM     10  H   UNL     1      46.545   8.712  21.673  0.00  0.00    +0.000 HD
BRANCH   9  11
ATOM     11  C   UNL     1      47.803  10.170  21.046  0.00  0.00    +0.000 C 
BRANCH  11  12
ATOM     12  C   UNL     1      48.441  10.635  19.760  0.00  0.00    +0.000 A 
ATOM     13  C   UNL     1      49.813  10.924  19.705  0.00  0.00    +0.000 A 
ATOM     14  C   UNL     1      50.401  11.333  18.507  0.00  0.00    +0.000 A 
ATOM     15  C   UNL     1      49.626  11.464  17.356  0.00  0.00    +0.000 A 
ATOM     16  C   UNL     1      48.262  11.185  17.399  0.00  0.00    +0.000 A 
ATOM     17  C   UNL     1      47.673  10.773  18.595  0.00  0.00    +0.000 A 
ENDBRANCH  11  12
ENDBRANCH   9  11
ENDBRANCH   8   9
ENDBRANCH   5   8
ENDBRANCH   1   2
BRANCH   1  18
ATOM     18  N   UNL     1      47.183   5.380  15.121  0.00  0.00    +0.000 N 
ATOM     19  C   UNL     1      47.508   5.947  13.916  0.00  0.00    +0.000 C 
ATOM     20  O   UNL     1      48.666   6.071  13.535  0.00  0.00    +0.000 OA
ATOM     21  H   UNL     1      46.215   5.136  15.295  0.00  0.00    +0.000 HD
BRANCH  19  22
ATOM     22  C   UNL     1      46.375   6.441  13.114  0.00  0.00    +0.000 A 
ATOM     23  C   UNL     1      46.307   7.784  12.770  0.00  0.00    +0.000 A 
ATOM     24  S   UNL     1      44.944   8.174  11.822  0.00  0.00    +0.000 S 
ATOM     25  C   UNL     1      44.422   6.557  11.803  0.00  0.00    +0.000 A 
ATOM     26  N   UNL     1      43.315   6.185  11.107  0.00  0.00    +0.000 NA
ATOM     27  C   UNL     1      43.055   4.921  11.144  0.00  0.00    +0.000 A 
ATOM     28  N   UNL     1      43.778   3.975  11.840  0.00  0.00    +0.000 N 
ATOM     29  C   UNL     1      43.368   2.588  11.854  0.00  0.00    +0.000 C 
ATOM     30  C   UNL     1      44.859   4.336  12.638  0.00  0.00    +0.000 A 
ATOM     31  O   UNL     1      45.405   3.545  13.402  0.00  0.00    +0.000 OA
ATOM     32  C   UNL     1      45.241   5.736  12.555  0.00  0.00    +0.000 A 
ENDBRANCH  19  22
ENDBRANCH   1  18
BRANCH   1  33
ATOM     33  C   UNL     1      47.764   3.281  16.297  0.00  0.00    +0.000 C 
BRANCH  33  35
ATOM     34  C   UNL     1      49.746   2.175  16.921  0.00  0.00    +0.000 C 
ATOM     35  O   UNL     1      48.795   2.378  15.882  0.00  0.00    +0.000 OA
ENDBRANCH  33  35
ENDBRANCH   1  33
TORSDOF 9
ENDMDL
