MODEL 1
REMARK VINA RESULT:    -8.239      0.000      0.000
REMARK INTER + INTRA:         -13.336
REMARK INTER:                 -12.093
REMARK INTRA:                  -1.243
REMARK UNBOUND:                -1.243
REMARK  Name = 
REMARK  9 active torsions:
REMARK  status: ('A' for Active; 'I' for Inactive)
REMARK    1  A    between atoms: C_1  and  O_2
REMARK    2  A    between atoms: O_2  and  C_3
REMARK    3  A    between atoms: C_10  and  C_11
REMARK    4  A    between atoms: N_13  and  C_14
REMARK    5  A    between atoms: C_14  and  C_15
REMARK    6  A    between atoms: C_18  and  C_19
REMARK    7  A    between atoms: C_19  and  N_20
REMARK    8  A    between atoms: N_20  and  C_21
REMARK    9  A    between atoms: C_21  and  C_22
REMARK                            x       y       z     vdW  Elec       q    Type
REMARK                         _______ _______ _______ _____ _____    ______ ____
ROOT
ATOM      1  C   UNL     1      47.960   6.942  13.172  0.00  0.00    +0.000 C 
ENDROOT
BRANCH   1   2
ATOM      2  C   UNL     1      46.868   6.080  12.594  0.00  0.00    +0.000 A 
ATOM      3  C   UNL     1      46.358   6.345  11.316  0.00  0.00    +0.000 A 
ATOM      4  C   UNL     1      45.303   5.585  10.801  0.00  0.00    +0.000 A 
ATOM      5  C   UNL     1      44.731   4.548  11.551  0.00  0.00    +0.000 A 
ATOM      6  C   UNL     1      45.255   4.274  12.822  0.00  0.00    +0.000 A 
ATOM      7  C   UNL     1      46.309   5.034  13.340  0.00  0.00    +0.000 A 
BRANCH   5   8
ATOM      8  C   UNL     1      43.542   3.777  11.020  0.00  0.00    +0.000 C 
BRANCH   8   9
ATOM      9  N   UNL     1      43.753   3.337   9.643  0.00  0.00    +0.000 NA
ATOM     10  H   UNL     1      44.248   4.071   9.136  0.00  0.00    +0.000 HD
BRANCH   9  11
ATOM     11  C   UNL     1      44.581   2.123   9.604  0.00  0.00    +0.000 C 
BRANCH  11  12
ATOM     12  C   UNL     1      45.612   2.168   8.491  0.00  0.00    +0.000 A 
ATOM     13  C   UNL     1      45.836   3.350   7.791  0.00  0.00    +0.000 A 
ATOM     14  C   UNL     1      46.793   3.368   6.779  0.00  0.00    +0.000 A 
ATOM     15  C   UNL     1      47.497   2.207   6.492  0.00  0.00    +0.000 A 
ATOM     16  C   UNL     1      47.212   1.069   7.229  0.00  0.00    +0.000 A 
ATOM     17  N   UNL     1      46.293   1.023   8.221  0.00  0.00    +0.000 NA
ENDBRANCH  11  12
ENDBRANCH   9  11
ENDBRANCH   8   9
ENDBRANCH   5   8
ENDBRANCH   1   2
BRANCH   1  20
ATOM     18  C   UNL     1      49.037   6.985  15.376  0.00  0.00    +0.000 C 
ATOM     19  O   UNL     1      50.149   6.955  14.849  0.00  0.00    +0.000 OA
ATOM     20  N   UNL     1      47.899   6.971  14.616  0.00  0.00    +0.000 N 
ATOM     21  H   UNL     1      46.988   7.017  15.053  0.00  0.00    +0.000 HD
BRANCH  18  29
ATOM     22  C   UNL     1      48.889   4.594  17.861  0.00  0.00    +0.000 A 
ATOM     23  N   UNL     1      48.761   3.889  19.004  0.00  0.00    +0.000 NA
ATOM     24  C   UNL     1      48.596   4.565  20.145  0.00  0.00    +0.000 A 
ATOM     25  N   UNL     1      48.548   5.884  20.291  0.00  0.00    +0.000 NA
ATOM     26  C   UNL     1      48.664   6.547  19.128  0.00  0.00    +0.000 A 
ATOM     27  S   UNL     1      48.632   8.245  19.129  0.00  0.00    +0.000 S 
ATOM     28  C   UNL     1      48.810   8.295  17.442  0.00  0.00    +0.000 A 
ATOM     29  C   UNL     1      48.896   7.043  16.842  0.00  0.00    +0.000 A 
ATOM     30  C   UNL     1      48.824   5.998  17.859  0.00  0.00    +0.000 A 
BRANCH  22  32
ATOM     31  C   UNL     1      47.871   3.234  16.261  0.00  0.00    +0.000 C 
ATOM     32  O   UNL     1      49.061   3.895  16.684  0.00  0.00    +0.000 OA
ENDBRANCH  22  32
ENDBRANCH  18  29
ENDBRANCH   1  20
TORSDOF 8
ENDMDL
MODEL 2
REMARK VINA RESULT:    -7.953      1.455      2.409
REMARK INTER + INTRA:         -12.916
REMARK INTER:                 -11.946
REMARK INTRA:                  -0.970
REMARK UNBOUND:                -1.243
REMARK  Name = 
REMARK  9 active torsions:
REMARK  status: ('A' for Active; 'I' for Inactive)
REMARK    1  A    between atoms: C_1  and  O_2
REMARK    2  A    between atoms: O_2  and  C_3
REMARK    3  A    between atoms: C_10  and  C_11
REMARK    4  A    between atoms: N_13  and  C_14
REMARK    5  A    between atoms: C_14  and  C_15
REMARK    6  A    between atoms: C_18  and  C_19
REMARK    7  A    between atoms: C_19  and  N_20
REMARK    8  A    between atoms: N_20  and  C_21
REMARK    9  A    between atoms: C_21  and  C_22
REMARK                            x       y       z     vdW  Elec       q    Type
REMARK                         _______ _______ _______ _____ _____    ______ ____
ROOT
ATOM      1  C   UNL     1      48.152   6.653  13.642  0.00  0.00    +0.000 C 
ENDROOT
BRANCH   1   2
ATOM      2  C   UNL     1      47.019   6.102  12.817  0.00  0.00    +0.000 A 
ATOM      3  C   UNL     1      46.763   6.608  11.535  0.00  0.00    +0.000 A 
ATOM      4  C   UNL     1      45.675   6.141  10.791  0.00  0.00    +0.000 A 
ATOM      5  C   UNL     1      44.815   5.163  11.310  0.00  0.00    +0.000 A 
ATOM      6  C   UNL     1      45.083   4.647  12.585  0.00  0.00    +0.000 A 
ATOM      7  C   UNL     1      46.170   5.114  13.333  0.00  0.00    +0.000 A 
BRANCH   5   8
ATOM      8  C   UNL     1      43.597   4.716  10.532  0.00  0.00    +0.000 C 
BRANCH   8   9
ATOM      9  N   UNL     1      43.958   4.191   9.217  0.00  0.00    +0.000 NA
ATOM     10  H   UNL     1      44.713   4.760   8.833  0.00  0.00    +0.000 HD
BRANCH   9  11
ATOM     11  C   UNL     1      44.442   2.807   9.321  0.00  0.00    +0.000 C 
BRANCH  11  12
ATOM     12  C   UNL     1      45.527   2.501   8.306  0.00  0.00    +0.000 A 
ATOM     13  C   UNL     1      45.891   3.456   7.361  0.00  0.00    +0.000 A 
ATOM     14  C   UNL     1      46.895   3.154   6.443  0.00  0.00    +0.000 A 
ATOM     15  C   UNL     1      47.506   1.908   6.493  0.00  0.00    +0.000 A 
ATOM     16  C   UNL     1      47.083   1.009   7.459  0.00  0.00    +0.000 A 
ATOM     17  N   UNL     1      46.114   1.277   8.366  0.00  0.00    +0.000 NA
ENDBRANCH  11  12
ENDBRANCH   9  11
ENDBRANCH   8   9
ENDBRANCH   5   8
ENDBRANCH   1   2
BRANCH   1  20
ATOM     18  C   UNL     1      49.044   6.354  15.908  0.00  0.00    +0.000 C 
ATOM     19  O   UNL     1      50.179   6.615  15.511  0.00  0.00    +0.000 OA
ATOM     20  N   UNL     1      47.983   6.341  15.043  0.00  0.00    +0.000 N 
ATOM     21  H   UNL     1      47.049   6.147  15.378  0.00  0.00    +0.000 HD
BRANCH  18  29
ATOM     22  C   UNL     1      47.902   8.218  18.579  0.00  0.00    +0.000 A 
ATOM     23  N   UNL     1      47.531   8.708  19.780  0.00  0.00    +0.000 NA
ATOM     24  C   UNL     1      47.542   7.879  20.828  0.00  0.00    +0.000 A 
ATOM     25  N   UNL     1      47.878   6.594  20.826  0.00  0.00    +0.000 NA
ATOM     26  C   UNL     1      48.254   6.150  19.616  0.00  0.00    +0.000 A 
ATOM     27  S   UNL     1      48.710   4.526  19.427  0.00  0.00    +0.000 S 
ATOM     28  C   UNL     1      49.019   4.756  17.774  0.00  0.00    +0.000 A 
ATOM     29  C   UNL     1      48.789   6.053  17.329  0.00  0.00    +0.000 A 
ATOM     30  C   UNL     1      48.315   6.882  18.432  0.00  0.00    +0.000 A 
BRANCH  22  32
ATOM     31  C   UNL     1      47.876  10.446  17.886  0.00  0.00    +0.000 C 
ATOM     32  O   UNL     1      47.888   9.074  17.498  0.00  0.00    +0.000 OA
ENDBRANCH  22  32
ENDBRANCH  18  29
ENDBRANCH   1  20
TORSDOF 8
ENDMDL
MODEL 3
REMARK VINA RESULT:    -7.504      1.218      1.722
REMARK INTER + INTRA:         -12.256
REMARK INTER:                 -11.337
REMARK INTRA:                  -0.919
REMARK UNBOUND:                -1.243
REMARK  Name = 
REMARK  9 active torsions:
REMARK  status: ('A' for Active; 'I' for Inactive)
REMARK    1  A    between atoms: C_1  and  O_2
REMARK    2  A    between atoms: O_2  and  C_3
REMARK    3  A    between atoms: C_10  and  C_11
REMARK    4  A    between atoms: N_13  and  C_14
REMARK    5  A    between atoms: C_14  and  C_15
REMARK    6  A    between atoms: C_18  and  C_19
REMARK    7  A    between atoms: C_19  and  N_20
REMARK    8  A    between atoms: N_20  and  C_21
REMARK    9  A    between atoms: C_21  and  C_22
REMARK                            x       y       z     vdW  Elec       q    Type
REMARK                         _______ _______ _______ _____ _____    ______ ____
ROOT
ATOM      1  C   UNL     1      48.298   6.271  13.825  0.00  0.00    +0.000 C 
ENDROOT
BRANCH   1   2
ATOM      2  C   UNL     1      47.063   5.950  13.025  0.00  0.00    +0.000 A 
ATOM      3  C   UNL     1      46.136   5.011  13.497  0.00  0.00    +0.000 A 
ATOM      4  C   UNL     1      45.020   4.666  12.730  0.00  0.00    +0.000 A 
ATOM      5  C   UNL     1      44.805   5.246  11.471  0.00  0.00    +0.000 A 
ATOM      6  C   UNL     1      45.724   6.198  11.009  0.00  0.00    +0.000 A 
ATOM      7  C   UNL     1      46.843   6.543  11.775  0.00  0.00    +0.000 A 
BRANCH   5   8
ATOM      8  C   UNL     1      43.637   4.815  10.612  0.00  0.00    +0.000 C 
BRANCH   8   9
ATOM      9  N   UNL     1      44.075   4.334   9.304  0.00  0.00    +0.000 NA
ATOM     10  H   UNL     1      44.891   4.874   9.013  0.00  0.00    +0.000 HD
BRANCH   9  11
ATOM     11  C   UNL     1      44.468   2.920   9.372  0.00  0.00    +0.000 C 
BRANCH  11  12
ATOM     12  C   UNL     1      45.506   2.562   8.324  0.00  0.00    +0.000 A 
ATOM     13  C   UNL     1      45.818   3.465   7.311  0.00  0.00    +0.000 A 
ATOM     14  C   UNL     1      46.779   3.116   6.364  0.00  0.00    +0.000 A 
ATOM     15  C   UNL     1      47.400   1.878   6.454  0.00  0.00    +0.000 A 
ATOM     16  C   UNL     1      47.030   1.033   7.488  0.00  0.00    +0.000 A 
ATOM     17  N   UNL     1      46.104   1.346   8.423  0.00  0.00    +0.000 NA
ENDBRANCH  11  12
ENDBRANCH   9  11
ENDBRANCH   8   9
ENDBRANCH   5   8
ENDBRANCH   1   2
BRANCH   1  20
ATOM     18  C   UNL     1      48.928   7.412  15.904  0.00  0.00    +0.000 C 
ATOM     19  O   UNL     1      50.116   7.362  15.588  0.00  0.00    +0.000 OA
ATOM     20  N   UNL     1      47.962   6.885  15.090  0.00  0.00    +0.000 N 
ATOM     21  H   UNL     1      46.985   6.947  15.343  0.00  0.00    +0.000 HD
BRANCH  18  29
ATOM     22  C   UNL     1      48.189   6.212  19.055  0.00  0.00    +0.000 A 
ATOM     23  N   UNL     1      47.809   6.020  20.334  0.00  0.00    +0.000 NA
ATOM     24  C   UNL     1      47.455   7.089  21.053  0.00  0.00    +0.000 A 
ATOM     25  N   UNL     1      47.439   8.354  20.648  0.00  0.00    +0.000 NA
ATOM     26  C   UNL     1      47.809   8.499  19.365  0.00  0.00    +0.000 A 
ATOM     27  S   UNL     1      47.854  10.053  18.681  0.00  0.00    +0.000 S 
ATOM     28  C   UNL     1      48.361   9.430  17.185  0.00  0.00    +0.000 A 
ATOM     29  C   UNL     1      48.505   8.047  17.165  0.00  0.00    +0.000 A 
ATOM     30  C   UNL     1      48.190   7.495  18.479  0.00  0.00    +0.000 A 
BRANCH  22  32
ATOM     31  C   UNL     1      49.699   4.444  18.852  0.00  0.00    +0.000 C 
ATOM     32  O   UNL     1      48.556   5.108  18.314  0.00  0.00    +0.000 OA
ENDBRANCH  22  32
ENDBRANCH  18  29
ENDBRANCH   1  20
TORSDOF 8
ENDMDL
MODEL 4
REMARK VINA RESULT:    -7.247      1.629      2.993
REMARK INTER + INTRA:         -11.879
REMARK INTER:                 -10.696
REMARK INTRA:                  -1.184
REMARK UNBOUND:                -1.243
REMARK  Name = 
REMARK  9 active torsions:
REMARK  status: ('A' for Active; 'I' for Inactive)
REMARK    1  A    between atoms: C_1  and  O_2
REMARK    2  A    between atoms: O_2  and  C_3
REMARK    3  A    between atoms: C_10  and  C_11
REMARK    4  A    between atoms: N_13  and  C_14
REMARK    5  A    between atoms: C_14  and  C_15
REMARK    6  A    between atoms: C_18  and  C_19
REMARK    7  A    between atoms: C_19  and  N_20
REMARK    8  A    between atoms: N_20  and  C_21
REMARK    9  A    between atoms: C_21  and  C_22
REMARK                            x       y       z     vdW  Elec       q    Type
REMARK                         _______ _______ _______ _____ _____    ______ ____
ROOT
ATOM      1  C   UNL     1      47.379   3.946  15.247  0.00  0.00    +0.000 C 
ENDROOT
BRANCH   1   2
ATOM      2  C   UNL     1      46.696   4.310  13.954  0.00  0.00    +0.000 A 
ATOM      3  C   UNL     1      46.639   5.645  13.534  0.00  0.00    +0.000 A 
ATOM      4  C   UNL     1      45.954   5.993  12.366  0.00  0.00    +0.000 A 
ATOM      5  C   UNL     1      45.305   5.019  11.594  0.00  0.00    +0.000 A 
ATOM      6  C   UNL     1      45.378   3.682  12.008  0.00  0.00    +0.000 A 
ATOM      7  C   UNL     1      46.062   3.331  13.178  0.00  0.00    +0.000 A 
BRANCH   5   8
ATOM      8  C   UNL     1      44.503   5.410  10.373  0.00  0.00    +0.000 C 
BRANCH   8   9
ATOM      9  N   UNL     1      45.235   5.146   9.136  0.00  0.00    +0.000 NA
ATOM     10  H   UNL     1      46.188   4.869   9.373  0.00  0.00    +0.000 HD
BRANCH   9  11
ATOM     11  C   UNL     1      44.615   4.044   8.387  0.00  0.00    +0.000 C 
BRANCH  11  12
ATOM     12  C   UNL     1      45.647   3.103   7.793  0.00  0.00    +0.000 A 
ATOM     13  C   UNL     1      46.405   3.499   6.694  0.00  0.00    +0.000 A 
ATOM     14  C   UNL     1      47.351   2.619   6.171  0.00  0.00    +0.000 A 
ATOM     15  C   UNL     1      47.513   1.372   6.756  0.00  0.00    +0.000 A 
ATOM     16  C   UNL     1      46.716   1.050   7.844  0.00  0.00    +0.000 A 
ATOM     17  N   UNL     1      45.794   1.885   8.376  0.00  0.00    +0.000 NA
ENDBRANCH  11  12
ENDBRANCH   9  11
ENDBRANCH   8   9
ENDBRANCH   5   8
ENDBRANCH   1   2
BRANCH   1  20
ATOM     18  C   UNL     1      48.625   5.235  16.921  0.00  0.00    +0.000 C 
ATOM     19  O   UNL     1      49.494   4.364  16.966  0.00  0.00    +0.000 OA
ATOM     20  N   UNL     1      47.537   5.100  16.102  0.00  0.00    +0.000 N 
ATOM     21  H   UNL     1      46.837   5.828  16.053  0.00  0.00    +0.000 HD
BRANCH  18  29
ATOM     22  C   UNL     1      48.666   8.610  16.199  0.00  0.00    +0.000 A 
ATOM     23  N   UNL     1      48.752   9.956  16.202  0.00  0.00    +0.000 NA
ATOM     24  C   UNL     1      48.903  10.574  17.378  0.00  0.00    +0.000 A 
ATOM     25  N   UNL     1      48.973  10.005  18.575  0.00  0.00    +0.000 NA
ATOM     26  C   UNL     1      48.898   8.664  18.526  0.00  0.00    +0.000 A 
ATOM     27  S   UNL     1      48.964   7.772  19.969  0.00  0.00    +0.000 S 
ATOM     28  C   UNL     1      48.828   6.306  19.123  0.00  0.00    +0.000 A 
ATOM     29  C   UNL     1      48.732   6.454  17.743  0.00  0.00    +0.000 A 
ATOM     30  C   UNL     1      48.758   7.870  17.391  0.00  0.00    +0.000 A 
BRANCH  22  32
ATOM     31  C   UNL     1      49.752   7.723  14.334  0.00  0.00    +0.000 C 
ATOM     32  O   UNL     1      48.509   7.973  14.985  0.00  0.00    +0.000 OA
ENDBRANCH  22  32
ENDBRANCH  18  29
ENDBRANCH   1  20
TORSDOF 8
ENDMDL
MODEL 5
REMARK VINA RESULT:    -7.183      2.287      3.015
REMARK INTER + INTRA:         -11.785
REMARK INTER:                 -10.769
REMARK INTRA:                  -1.017
REMARK UNBOUND:                -1.243
REMARK  Name = 
REMARK  9 active torsions:
REMARK  status: ('A' for Active; 'I' for Inactive)
REMARK    1  A    between atoms: C_1  and  O_2
REMARK    2  A    between atoms: O_2  and  C_3
REMARK    3  A    between atoms: C_10  and  C_11
REMARK    4  A    between atoms: N_13  and  C_14
REMARK    5  A    between atoms: C_14  and  C_15
REMARK    6  A    between atoms: C_18  and  C_19
REMARK    7  A    between atoms: C_19  and  N_20
REMARK    8  A    between atoms: N_20  and  C_21
REMARK    9  A    between atoms: C_21  and  C_22
REMARK                            x       y       z     vdW  Elec       q    Type
REMARK                         _______ _______ _______ _____ _____    ______ ____
ROOT
ATOM      1  C   UNL     1      46.291   8.550  12.722  0.00  0.00    +0.000 C 
ENDROOT
BRANCH   1   2
ATOM      2  C   UNL     1      45.650   7.206  12.499  0.00  0.00    +0.000 A 
ATOM      3  C   UNL     1      46.059   6.092  13.244  0.00  0.00    +0.000 A 
ATOM      4  C   UNL     1      45.509   4.831  12.998  0.00  0.00    +0.000 A 
ATOM      5  C   UNL     1      44.542   4.651  11.999  0.00  0.00    +0.000 A 
ATOM      6  C   UNL     1      44.121   5.769  11.267  0.00  0.00    +0.000 A 
ATOM      7  C   UNL     1      44.672   7.032  11.511  0.00  0.00    +0.000 A 
BRANCH   5   8
ATOM      8  C   UNL     1      44.004   3.271  11.686  0.00  0.00    +0.000 C 
BRANCH   8   9
ATOM      9  N   UNL     1      44.908   2.522  10.816  0.00  0.00    +0.000 NA
ATOM     10  H   UNL     1      44.969   1.562  11.155  0.00  0.00    +0.000 HD
BRANCH   9  11
ATOM     11  C   UNL     1      44.395   2.484   9.439  0.00  0.00    +0.000 C 
BRANCH  11  12
ATOM     12  C   UNL     1      45.509   2.369   8.415  0.00  0.00    +0.000 A 
ATOM     13  C   UNL     1      45.857   3.467   7.632  0.00  0.00    +0.000 A 
ATOM     14  C   UNL     1      46.888   3.338   6.704  0.00  0.00    +0.000 A 
ATOM     15  C   UNL     1      47.541   2.120   6.581  0.00  0.00    +0.000 A 
ATOM     16  C   UNL     1      47.132   1.073   7.392  0.00  0.00    +0.000 A 
ATOM     17  N   UNL     1      46.138   1.170   8.305  0.00  0.00    +0.000 NA
ENDBRANCH  11  12
ENDBRANCH   9  11
ENDBRANCH   8   9
ENDBRANCH   5   8
ENDBRANCH   1   2
BRANCH   1  20
ATOM     18  C   UNL     1      48.726   8.248  12.736  0.00  0.00    +0.000 C 
ATOM     19  O   UNL     1      48.738   8.174  11.508  0.00  0.00    +0.000 OA
ATOM     20  N   UNL     1      47.552   8.424  13.417  0.00  0.00    +0.000 N 
ATOM     21  H   UNL     1      47.549   8.505  14.425  0.00  0.00    +0.000 HD
BRANCH  18  29
ATOM     22  C   UNL     1      49.611   6.641  15.659  0.00  0.00    +0.000 A 
ATOM     23  N   UNL     1      50.206   6.169  16.774  0.00  0.00    +0.000 NA
ATOM     24  C   UNL     1      51.485   6.491  16.989  0.00  0.00    +0.000 A 
ATOM     25  N   UNL     1      52.262   7.235  16.211  0.00  0.00    +0.000 NA
ATOM     26  C   UNL     1      51.628   7.696  15.120  0.00  0.00    +0.000 A 
ATOM     27  S   UNL     1      52.474   8.660  14.008  0.00  0.00    +0.000 S 
ATOM     28  C   UNL     1      51.097   8.819  13.028  0.00  0.00    +0.000 A 
ATOM     29  C   UNL     1      49.975   8.155  13.513  0.00  0.00    +0.000 A 
ATOM     30  C   UNL     1      50.302   7.470  14.759  0.00  0.00    +0.000 A 
BRANCH  22  32
ATOM     31  C   UNL     1      47.929   5.072  16.053  0.00  0.00    +0.000 C 
ATOM     32  O   UNL     1      48.291   6.307  15.438  0.00  0.00    +0.000 OA
ENDBRANCH  22  32
ENDBRANCH  18  29
ENDBRANCH   1  20
TORSDOF 8
ENDMDL
MODEL 6
REMARK VINA RESULT:    -7.128      1.729      2.164
REMARK INTER + INTRA:         -11.705
REMARK INTER:                 -10.536
REMARK INTRA:                  -1.169
REMARK UNBOUND:                -1.243
REMARK  Name = 
REMARK  9 active torsions:
REMARK  status: ('A' for Active; 'I' for Inactive)
REMARK    1  A    between atoms: C_1  and  O_2
REMARK    2  A    between atoms: O_2  and  C_3
REMARK    3  A    between atoms: C_10  and  C_11
REMARK    4  A    between atoms: N_13  and  C_14
REMARK    5  A    between atoms: C_14  and  C_15
REMARK    6  A    between atoms: C_18  and  C_19
REMARK    7  A    between atoms: C_19  and  N_20
REMARK    8  A    between atoms: N_20  and  C_21
REMARK    9  A    between atoms: C_21  and  C_22
REMARK                            x       y       z     vdW  Elec       q    Type
REMARK                         _______ _______ _______ _____ _____    ______ ____
ROOT
ATOM      1  C   UNL     1      48.009   8.978  13.928  0.00  0.00    +0.000 C 
ENDROOT
BRANCH   1   2
ATOM      2  C   UNL     1      47.057   8.092  13.166  0.00  0.00    +0.000 A 
ATOM      3  C   UNL     1      47.503   6.887  12.608  0.00  0.00    +0.000 A 
ATOM      4  C   UNL     1      46.638   6.092  11.850  0.00  0.00    +0.000 A 
ATOM      5  C   UNL     1      45.311   6.485  11.627  0.00  0.00    +0.000 A 
ATOM      6  C   UNL     1      44.862   7.682  12.200  0.00  0.00    +0.000 A 
ATOM      7  C   UNL     1      45.727   8.480  12.958  0.00  0.00    +0.000 A 
BRANCH   5   8
ATOM      8  C   UNL     1      44.400   5.659  10.744  0.00  0.00    +0.000 C 
BRANCH   8   9
ATOM      9  N   UNL     1      45.074   5.233   9.519  0.00  0.00    +0.000 NA
ATOM     10  H   UNL     1      46.066   5.098   9.721  0.00  0.00    +0.000 HD
BRANCH   9  11
ATOM     11  C   UNL     1      44.531   3.954   9.041  0.00  0.00    +0.000 C 
BRANCH  11  12
ATOM     12  C   UNL     1      45.538   3.175   8.217  0.00  0.00    +0.000 A 
ATOM     13  C   UNL     1      45.804   1.840   8.514  0.00  0.00    +0.000 A 
ATOM     14  C   UNL     1      46.728   1.144   7.737  0.00  0.00    +0.000 A 
ATOM     15  C   UNL     1      47.362   1.798   6.689  0.00  0.00    +0.000 A 
ATOM     16  C   UNL     1      47.048   3.128   6.462  0.00  0.00    +0.000 A 
ATOM     17  N   UNL     1      46.151   3.828   7.195  0.00  0.00    +0.000 NA
ENDBRANCH  11  12
ENDBRANCH   9  11
ENDBRANCH   8   9
ENDBRANCH   5   8
ENDBRANCH   1   2
BRANCH   1  20
ATOM     18  C   UNL     1      48.567   8.548  16.278  0.00  0.00    +0.000 C 
ATOM     19  O   UNL     1      47.847   9.480  16.634  0.00  0.00    +0.000 OA
ATOM     20  N   UNL     1      48.711   8.239  14.952  0.00  0.00    +0.000 N 
ATOM     21  H   UNL     1      49.287   7.459  14.665  0.00  0.00    +0.000 HD
BRANCH  18  29
ATOM     22  C   UNL     1      49.092   5.158  16.654  0.00  0.00    +0.000 A 
ATOM     23  N   UNL     1      49.411   3.912  17.062  0.00  0.00    +0.000 NA
ATOM     24  C   UNL     1      50.130   3.781  18.181  0.00  0.00    +0.000 A 
ATOM     25  N   UNL     1      50.585   4.758  18.956  0.00  0.00    +0.000 NA
ATOM     26  C   UNL     1      50.233   5.980  18.523  0.00  0.00    +0.000 A 
ATOM     27  S   UNL     1      50.737   7.350  19.391  0.00  0.00    +0.000 S 
ATOM     28  C   UNL     1      49.950   8.387  18.302  0.00  0.00    +0.000 A 
ATOM     29  C   UNL     1      49.293   7.731  17.267  0.00  0.00    +0.000 A 
ATOM     30  C   UNL     1      49.478   6.289  17.394  0.00  0.00    +0.000 A 
BRANCH  22  32
ATOM     31  C   UNL     1      47.221   4.424  15.469  0.00  0.00    +0.000 C 
ATOM     32  O   UNL     1      48.352   5.292  15.498  0.00  0.00    +0.000 OA
ENDBRANCH  22  32
ENDBRANCH  18  29
ENDBRANCH   1  20
TORSDOF 8
ENDMDL
MODEL 7
REMARK VINA RESULT:    -6.789      1.804      2.683
REMARK INTER + INTRA:         -11.207
REMARK INTER:                  -9.837
REMARK INTRA:                  -1.370
REMARK UNBOUND:                -1.243
REMARK  Name = 
REMARK  9 active torsions:
REMARK  status: ('A' for Active; 'I' for Inactive)
REMARK    1  A    between atoms: C_1  and  O_2
REMARK    2  A    between atoms: O_2  and  C_3
REMARK    3  A    between atoms: C_10  and  C_11
REMARK    4  A    between atoms: N_13  and  C_14
REMARK    5  A    between atoms: C_14  and  C_15
REMARK    6  A    between atoms: C_18  and  C_19
REMARK    7  A    between atoms: C_19  and  N_20
REMARK    8  A    between atoms: N_20  and  C_21
REMARK    9  A    between atoms: C_21  and  C_22
REMARK                            x       y       z     vdW  Elec       q    Type
REMARK                         _______ _______ _______ _____ _____    ______ ____
ROOT
ATOM      1  C   UNL     1      47.631   3.371  15.288  0.00  0.00    +0.000 C 
ENDROOT
BRANCH   1   2
ATOM      2  C   UNL     1      46.867   3.855  14.083  0.00  0.00    +0.000 A 
ATOM      3  C   UNL     1      46.776   5.225  13.804  0.00  0.00    +0.000 A 
ATOM      4  C   UNL     1      46.018   5.681  12.722  0.00  0.00    +0.000 A 
ATOM      5  C   UNL     1      45.328   4.781  11.897  0.00  0.00    +0.000 A 
ATOM      6  C   UNL     1      45.434   3.410  12.168  0.00  0.00    +0.000 A 
ATOM      7  C   UNL     1      46.191   2.952  13.251  0.00  0.00    +0.000 A 
BRANCH   5   8
ATOM      8  C   UNL     1      44.449   5.284  10.773  0.00  0.00    +0.000 C 
BRANCH   8   9
ATOM      9  N   UNL     1      43.974   4.191   9.926  0.00  0.00    +0.000 NA
ATOM     10  H   UNL     1      42.954   4.171   9.959  0.00  0.00    +0.000 HD
BRANCH   9  11
ATOM     11  C   UNL     1      44.378   4.400   8.529  0.00  0.00    +0.000 C 
BRANCH  11  12
ATOM     12  C   UNL     1      45.424   3.396   8.078  0.00  0.00    +0.000 A 
ATOM     13  C   UNL     1      45.396   2.091   8.562  0.00  0.00    +0.000 A 
ATOM     14  C   UNL     1      46.363   1.186   8.129  0.00  0.00    +0.000 A 
ATOM     15  C   UNL     1      47.330   1.608   7.227  0.00  0.00    +0.000 A 
ATOM     16  C   UNL     1      47.294   2.925   6.796  0.00  0.00    +0.000 A 
ATOM     17  N   UNL     1      46.364   3.824   7.196  0.00  0.00    +0.000 NA
ENDBRANCH  11  12
ENDBRANCH   9  11
ENDBRANCH   8   9
ENDBRANCH   5   8
ENDBRANCH   1   2
BRANCH   1  20
ATOM     18  C   UNL     1      47.580   4.564  17.431  0.00  0.00    +0.000 C 
ATOM     19  O   UNL     1      46.817   3.720  17.899  0.00  0.00    +0.000 OA
ATOM     20  N   UNL     1      48.023   4.470  16.139  0.00  0.00    +0.000 N 
ATOM     21  H   UNL     1      48.667   5.155  15.765  0.00  0.00    +0.000 HD
BRANCH  18  29
ATOM     22  C   UNL     1      50.651   6.065  17.906  0.00  0.00    +0.000 A 
ATOM     23  N   UNL     1      51.711   6.798  18.306  0.00  0.00    +0.000 NA
ATOM     24  C   UNL     1      51.502   7.771  19.198  0.00  0.00    +0.000 A 
ATOM     25  N   UNL     1      50.343   8.115  19.746  0.00  0.00    +0.000 NA
ATOM     26  C   UNL     1      49.318   7.352  19.333  0.00  0.00    +0.000 A 
ATOM     27  S   UNL     1      47.757   7.657  19.928  0.00  0.00    +0.000 S 
ATOM     28  C   UNL     1      47.109   6.381  19.015  0.00  0.00    +0.000 A 
ATOM     29  C   UNL     1      48.047   5.699  18.247  0.00  0.00    +0.000 A 
ATOM     30  C   UNL     1      49.367   6.294  18.428  0.00  0.00    +0.000 A 
BRANCH  22  32
ATOM     31  C   UNL     1      51.358   3.864  17.584  0.00  0.00    +0.000 C 
ATOM     32  O   UNL     1      50.868   5.062  16.984  0.00  0.00    +0.000 OA
ENDBRANCH  22  32
ENDBRANCH  18  29
ENDBRANCH   1  20
TORSDOF 8
ENDMDL
MODEL 8
REMARK VINA RESULT:    -6.737      3.301      8.230
REMARK INTER + INTRA:         -11.130
REMARK INTER:                  -9.489
REMARK INTRA:                  -1.641
REMARK UNBOUND:                -1.243
REMARK  Name = 
REMARK  9 active torsions:
REMARK  status: ('A' for Active; 'I' for Inactive)
REMARK    1  A    between atoms: C_1  and  O_2
REMARK    2  A    between atoms: O_2  and  C_3
REMARK    3  A    between atoms: C_10  and  C_11
REMARK    4  A    between atoms: N_13  and  C_14
REMARK    5  A    between atoms: C_14  and  C_15
REMARK    6  A    between atoms: C_18  and  C_19
REMARK    7  A    between atoms: C_19  and  N_20
REMARK    8  A    between atoms: N_20  and  C_21
REMARK    9  A    between atoms: C_21  and  C_22
REMARK                            x       y       z     vdW  Elec       q    Type
REMARK                         _______ _______ _______ _____ _____    ______ ____
ROOT
ATOM      1  C   UNL     1      48.259   8.071  11.937  0.00  0.00    +0.000 C 
ENDROOT
BRANCH   1   2
ATOM      2  C   UNL     1      48.442   7.975  13.429  0.00  0.00    +0.000 A 
ATOM      3  C   UNL     1      48.892   6.784  14.014  0.00  0.00    +0.000 A 
ATOM      4  C   UNL     1      49.004   6.672  15.403  0.00  0.00    +0.000 A 
ATOM      5  C   UNL     1      48.665   7.744  16.240  0.00  0.00    +0.000 A 
ATOM      6  C   UNL     1      48.231   8.940  15.653  0.00  0.00    +0.000 A 
ATOM      7  C   UNL     1      48.116   9.053  14.262  0.00  0.00    +0.000 A 
BRANCH   5   8
ATOM      8  C   UNL     1      48.717   7.593  17.745  0.00  0.00    +0.000 C 
BRANCH   8   9
ATOM      9  N   UNL     1      47.465   7.062  18.280  0.00  0.00    +0.000 NA
ATOM     10  H   UNL     1      46.883   6.750  17.502  0.00  0.00    +0.000 HD
BRANCH   9  11
ATOM     11  C   UNL     1      47.718   5.904  19.149  0.00  0.00    +0.000 C 
BRANCH  11  12
ATOM     12  C   UNL     1      48.208   4.697  18.369  0.00  0.00    +0.000 A 
ATOM     13  C   UNL     1      47.340   4.012  17.522  0.00  0.00    +0.000 A 
ATOM     14  C   UNL     1      47.816   2.911  16.812  0.00  0.00    +0.000 A 
ATOM     15  C   UNL     1      49.140   2.525  16.967  0.00  0.00    +0.000 A 
ATOM     16  C   UNL     1      49.938   3.255  17.833  0.00  0.00    +0.000 A 
ATOM     17  N   UNL     1      49.505   4.330  18.532  0.00  0.00    +0.000 NA
ENDBRANCH  11  12
ENDBRANCH   9  11
ENDBRANCH   8   9
ENDBRANCH   5   8
ENDBRANCH   1   2
BRANCH   1  20
ATOM     18  C   UNL     1      46.216   6.900  11.249  0.00  0.00    +0.000 C 
ATOM     19  O   UNL     1      45.535   7.876  11.559  0.00  0.00    +0.000 OA
ATOM     20  N   UNL     1      47.575   6.910  11.414  0.00  0.00    +0.000 N 
ATOM     21  H   UNL     1      48.133   6.114  11.138  0.00  0.00    +0.000 HD
BRANCH  18  29
ATOM     22  C   UNL     1      44.392   4.298  12.595  0.00  0.00    +0.000 A 
ATOM     23  N   UNL     1      43.711   3.163  12.853  0.00  0.00    +0.000 NA
ATOM     24  C   UNL     1      43.445   2.342  11.832  0.00  0.00    +0.000 A 
ATOM     25  N   UNL     1      43.776   2.521  10.558  0.00  0.00    +0.000 NA
ATOM     26  C   UNL     1      44.465   3.655  10.347  0.00  0.00    +0.000 A 
ATOM     27  S   UNL     1      44.963   4.048   8.773  0.00  0.00    +0.000 S 
ATOM     28  C   UNL     1      45.702   5.477   9.313  0.00  0.00    +0.000 A 
ATOM     29  C   UNL     1      45.592   5.690  10.683  0.00  0.00    +0.000 A 
ATOM     30  C   UNL     1      44.836   4.603  11.297  0.00  0.00    +0.000 A 
BRANCH  22  32
ATOM     31  C   UNL     1      45.936   4.891  14.241  0.00  0.00    +0.000 C 
ATOM     32  O   UNL     1      44.663   5.145  13.650  0.00  0.00    +0.000 OA
ENDBRANCH  22  32
ENDBRANCH  18  29
ENDBRANCH   1  20
TORSDOF 8
ENDMDL
MODEL 9
REMARK VINA RESULT:    -6.681      2.026      2.640
REMARK INTER + INTRA:         -11.048
REMARK INTER:                 -10.740
REMARK INTRA:                  -0.308
REMARK UNBOUND:                -1.243
REMARK  Name = 
REMARK  9 active torsions:
REMARK  status: ('A' for Active; 'I' for Inactive)
REMARK    1  A    between atoms: C_1  and  O_2
REMARK    2  A    between atoms: O_2  and  C_3
REMARK    3  A    between atoms: C_10  and  C_11
REMARK    4  A    between atoms: N_13  and  C_14
REMARK    5  A    between atoms: C_14  and  C_15
REMARK    6  A    between atoms: C_18  and  C_19
REMARK    7  A    between atoms: C_19  and  N_20
REMARK    8  A    between atoms: N_20  and  C_21
REMARK    9  A    between atoms: C_21  and  C_22
REMARK                            x       y       z     vdW  Elec       q    Type
REMARK                         _______ _______ _______ _____ _____    ______ ____
ROOT
ATOM      1  C   UNL     1      47.586   7.196  13.730  0.00  0.00    +0.000 C 
ENDROOT
BRANCH   1   2
ATOM      2  C   UNL     1      46.636   6.435  12.842  0.00  0.00    +0.000 A 
ATOM      3  C   UNL     1      45.940   7.093  11.819  0.00  0.00    +0.000 A 
ATOM      4  C   UNL     1      45.013   6.402  11.034  0.00  0.00    +0.000 A 
ATOM      5  C   UNL     1      44.755   5.042  11.253  0.00  0.00    +0.000 A 
ATOM      6  C   UNL     1      45.465   4.382  12.265  0.00  0.00    +0.000 A 
ATOM      7  C   UNL     1      46.392   5.072  13.055  0.00  0.00    +0.000 A 
BRANCH   5   8
ATOM      8  C   UNL     1      43.696   4.318  10.450  0.00  0.00    +0.000 C 
BRANCH   8   9
ATOM      9  N   UNL     1      43.930   4.440   9.013  0.00  0.00    +0.000 NA
ATOM     10  H   UNL     1      43.455   5.277   8.673  0.00  0.00    +0.000 HD
BRANCH   9  11
ATOM     11  C   UNL     1      45.364   4.585   8.727  0.00  0.00    +0.000 C 
BRANCH  11  12
ATOM     12  C   UNL     1      45.940   3.358   8.044  0.00  0.00    +0.000 A 
ATOM     13  C   UNL     1      46.625   3.485   6.838  0.00  0.00    +0.000 A 
ATOM     14  C   UNL     1      47.150   2.344   6.234  0.00  0.00    +0.000 A 
ATOM     15  C   UNL     1      46.977   1.111   6.847  0.00  0.00    +0.000 A 
ATOM     16  C   UNL     1      46.278   1.068   8.043  0.00  0.00    +0.000 A 
ATOM     17  N   UNL     1      45.761   2.158   8.655  0.00  0.00    +0.000 NA
ENDBRANCH  11  12
ENDBRANCH   9  11
ENDBRANCH   8   9
ENDBRANCH   5   8
ENDBRANCH   1   2
BRANCH   1  20
ATOM     18  C   UNL     1      48.789   6.858  15.841  0.00  0.00    +0.000 C 
ATOM     19  O   UNL     1      48.891   8.075  15.994  0.00  0.00    +0.000 OA
ATOM     20  N   UNL     1      48.165   6.339  14.739  0.00  0.00    +0.000 N 
ATOM     21  H   UNL     1      48.064   5.339  14.628  0.00  0.00    +0.000 HD
BRANCH  18  29
ATOM     22  C   UNL     1      51.981   5.960  16.798  0.00  0.00    +0.000 A 
ATOM     23  N   UNL     1      53.089   5.402  17.328  0.00  0.00    +0.000 NA
ATOM     24  C   UNL     1      52.933   4.472  18.275  0.00  0.00    +0.000 A 
ATOM     25  N   UNL     1      51.786   4.026  18.774  0.00  0.00    +0.000 NA
ATOM     26  C   UNL     1      50.709   4.596  18.209  0.00  0.00    +0.000 A 
ATOM     27  S   UNL     1      49.158   4.149  18.733  0.00  0.00    +0.000 S 
ATOM     28  C   UNL     1      48.428   5.211  17.627  0.00  0.00    +0.000 A 
ATOM     29  C   UNL     1      49.329   5.921  16.842  0.00  0.00    +0.000 A 
ATOM     30  C   UNL     1      50.697   5.562  17.206  0.00  0.00    +0.000 A 
BRANCH  22  32
ATOM     31  C   UNL     1      52.467   8.201  16.361  0.00  0.00    +0.000 C 
ATOM     32  O   UNL     1      52.144   6.921  15.821  0.00  0.00    +0.000 OA
ENDBRANCH  22  32
ENDBRANCH  18  29
ENDBRANCH   1  20
TORSDOF 8
ENDMDL
