MODEL 1
REMARK VINA RESULT:    -8.630      0.000      0.000
REMARK INTER + INTRA:         -12.189
REMARK INTER:                 -11.153
REMARK INTRA:                  -1.036
REMARK UNBOUND:                -1.036
REMARK  Name = 
REMARK  5 active torsions:
REMARK  status: ('A' for Active; 'I' for Inactive)
REMARK    1  A    between atoms: C_2  and  C_4
REMARK    2  A    between atoms: C_7  and  N_8
REMARK    3  A    between atoms: N_8  and  C_9
REMARK    4  A    between atoms: C_9  and  C_10
REMARK    5  A    between atoms: C_14  and  C_15
REMARK                            x       y       z     vdW  Elec       q    Type
REMARK                         _______ _______ _______ _____ _____    ______ ____
ROOT
ATOM      1  C   UNL     1      43.838   4.997  11.404  0.00  0.00    +0.000 C 
ATOM      2  C   UNL     1      42.499   5.260  12.089  0.00  0.00    +0.000 C 
ATOM      3  C   UNL     1      43.029   6.243  11.099  0.00  0.00    +0.000 C 
ENDROOT
BRANCH   1   4
ATOM      4  C   UNL     1      45.144   5.183  12.192  0.00  0.00    +0.000 A 
ATOM      5  C   UNL     1      45.604   4.192  13.061  0.00  0.00    +0.000 A 
ATOM      6  C   UNL     1      46.834   4.339  13.689  0.00  0.00    +0.000 A 
ATOM      7  C   UNL     1      47.597   5.469  13.423  0.00  0.00    +0.000 A 
ATOM      8  C   UNL     1      47.102   6.434  12.549  0.00  0.00    +0.000 A 
ATOM      9  N   UNL     1      45.884   6.302  11.962  0.00  0.00    +0.000 NA
BRANCH   8  10
ATOM     10  C   UNL     1      47.867   7.649  12.189  0.00  0.00    +0.000 A 
ATOM     11  C   UNL     1      47.276   8.927  12.191  0.00  0.00    +0.000 A 
ATOM     12  C   UNL     1      48.005  10.070  11.847  0.00  0.00    +0.000 A 
ATOM     13  C   UNL     1      49.347   9.959  11.492  0.00  0.00    +0.000 A 
ATOM     14  C   UNL     1      49.960   8.710  11.493  0.00  0.00    +0.000 A 
ATOM     15  C   UNL     1      49.229   7.570  11.839  0.00  0.00    +0.000 A 
ENDBRANCH   8  10
ENDBRANCH   1   4
BRANCH   1  16
ATOM     16  N   UNL     1      43.820   3.791  10.541  0.00  0.00    +0.000 N 
ATOM     17  H   UNL     1      43.540   2.946  11.032  0.00  0.00    +0.000 HD
BRANCH  16  21
ATOM     18  C   UNL     1      46.493   2.657   7.552  0.00  0.00    +0.000 A 
ATOM     19  C   UNL     1      46.202   4.011   7.664  0.00  0.00    +0.000 A 
ATOM     20  C   UNL     1      45.326   4.426   8.673  0.00  0.00    +0.000 A 
ATOM     21  C   UNL     1      44.786   3.496   9.557  0.00  0.00    +0.000 A 
ATOM     22  C   UNL     1      45.136   2.157   9.335  0.00  0.00    +0.000 A 
ATOM     23  N   UNL     1      45.975   1.704   8.371  0.00  0.00    +0.000 NA
BRANCH  18  25
ATOM     24  N   UNL     1      47.540   3.007   5.392  0.00  0.00    +0.000 N 
ATOM     25  C   UNL     1      47.411   2.172   6.472  0.00  0.00    +0.000 C 
ATOM     26  O   UNL     1      48.015   1.109   6.539  0.00  0.00    +0.000 OA
ATOM     27  H   UNL     1      48.144   2.741   4.628  0.00  0.00    +0.000 HD
ATOM     28  H   UNL     1      47.027   3.881   5.372  0.00  0.00    +0.000 HD
ENDBRANCH  18  25
ENDBRANCH  16  21
ENDBRANCH   1  16
TORSDOF 5
ENDMDL
MODEL 2
REMARK VINA RESULT:    -8.420      1.769      3.523
REMARK INTER + INTRA:         -11.917
REMARK INTER:                 -11.715
REMARK INTRA:                  -0.203
REMARK UNBOUND:                -1.036
REMARK  Name = 
REMARK  5 active torsions:
REMARK  status: ('A' for Active; 'I' for Inactive)
REMARK    1  A    between atoms: C_2  and  C_4
REMARK    2  A    between atoms: C_7  and  N_8
REMARK    3  A    between atoms: N_8  and  C_9
REMARK    4  A    between atoms: C_9  and  C_10
REMARK    5  A    between atoms: C_14  and  C_15
REMARK                            x       y       z     vdW  Elec       q    Type
REMARK                         _______ _______ _______ _____ _____    ______ ____
ROOT
ATOM      1  C   UNL     1      44.046   4.920  11.607  0.00  0.00    +0.000 C 
ATOM      2  C   UNL     1      43.424   3.763  12.384  0.00  0.00    +0.000 C 
ATOM      3  C   UNL     1      42.882   5.143  12.553  0.00  0.00    +0.000 C 
ENDROOT
BRANCH   1   4
ATOM      4  C   UNL     1      45.415   5.473  12.034  0.00  0.00    +0.000 A 
ATOM      5  C   UNL     1      46.058   6.455  11.280  0.00  0.00    +0.000 A 
ATOM      6  C   UNL     1      47.249   7.008  11.735  0.00  0.00    +0.000 A 
ATOM      7  C   UNL     1      47.768   6.584  12.951  0.00  0.00    +0.000 A 
ATOM      8  C   UNL     1      47.094   5.602  13.674  0.00  0.00    +0.000 A 
ATOM      9  N   UNL     1      45.948   5.040  13.210  0.00  0.00    +0.000 NA
BRANCH   8  10
ATOM     10  C   UNL     1      47.564   5.121  14.993  0.00  0.00    +0.000 A 
ATOM     11  C   UNL     1      48.387   5.908  15.821  0.00  0.00    +0.000 A 
ATOM     12  C   UNL     1      48.830   5.445  17.064  0.00  0.00    +0.000 A 
ATOM     13  C   UNL     1      48.456   4.180  17.509  0.00  0.00    +0.000 A 
ATOM     14  C   UNL     1      47.633   3.384  16.717  0.00  0.00    +0.000 A 
ATOM     15  C   UNL     1      47.193   3.851  15.475  0.00  0.00    +0.000 A 
ENDBRANCH   8  10
ENDBRANCH   1   4
BRANCH   1  16
ATOM     16  N   UNL     1      43.880   4.789  10.139  0.00  0.00    +0.000 N 
ATOM     17  H   UNL     1      42.907   4.775   9.842  0.00  0.00    +0.000 HD
BRANCH  16  21
ATOM     18  C   UNL     1      46.435   2.538   7.739  0.00  0.00    +0.000 A 
ATOM     19  C   UNL     1      45.649   1.847   8.653  0.00  0.00    +0.000 A 
ATOM     20  C   UNL     1      44.764   2.573   9.457  0.00  0.00    +0.000 A 
ATOM     21  C   UNL     1      44.662   3.954   9.315  0.00  0.00    +0.000 A 
ATOM     22  C   UNL     1      45.518   4.544   8.374  0.00  0.00    +0.000 A 
ATOM     23  N   UNL     1      46.395   3.887   7.576  0.00  0.00    +0.000 NA
BRANCH  18  25
ATOM     24  N   UNL     1      48.483   2.530   6.439  0.00  0.00    +0.000 N 
ATOM     25  C   UNL     1      47.410   1.797   6.874  0.00  0.00    +0.000 C 
ATOM     26  O   UNL     1      47.272   0.618   6.575  0.00  0.00    +0.000 OA
ATOM     27  H   UNL     1      49.180   2.091   5.853  0.00  0.00    +0.000 HD
ATOM     28  H   UNL     1      48.566   3.503   6.708  0.00  0.00    +0.000 HD
ENDBRANCH  18  25
ENDBRANCH  16  21
ENDBRANCH   1  16
TORSDOF 5
ENDMDL
MODEL 3
REMARK VINA RESULT:    -7.890      3.233      7.078
REMARK INTER + INTRA:         -11.232
REMARK INTER:                 -10.376
REMARK INTRA:                  -0.856
REMARK UNBOUND:                -1.036
REMARK  Name = 
REMARK  5 active torsions:
REMARK  status: ('A' for Active; 'I' for Inactive)
REMARK    1  A    between atoms: C_2  and  C_4
REMARK    2  A    between atoms: C_7  and  N_8
REMARK    3  A    between atoms: N_8  and  C_9
REMARK    4  A    between atoms: C_9  and  C_10
REMARK    5  A    between atoms: C_14  and  C_15
REMARK                            x       y       z     vdW  Elec       q    Type
REMARK                         _______ _______ _______ _____ _____    ______ ____
ROOT
ATOM      1  C   UNL     1      46.211   7.263  12.409  0.00  0.00    +0.000 C 
ATOM      2  C   UNL     1      46.436   8.644  11.796  0.00  0.00    +0.000 C 
ATOM      3  C   UNL     1      45.624   8.511  13.041  0.00  0.00    +0.000 C 
ENDROOT
BRANCH   1   4
ATOM      4  C   UNL     1      45.230   6.287  11.741  0.00  0.00    +0.000 A 
ATOM      5  C   UNL     1      43.864   6.341  12.019  0.00  0.00    +0.000 A 
ATOM      6  C   UNL     1      42.985   5.513  11.332  0.00  0.00    +0.000 A 
ATOM      7  C   UNL     1      43.484   4.656  10.361  0.00  0.00    +0.000 A 
ATOM      8  C   UNL     1      44.855   4.632  10.113  0.00  0.00    +0.000 A 
ATOM      9  N   UNL     1      45.716   5.420  10.809  0.00  0.00    +0.000 NA
BRANCH   8  10
ATOM     10  C   UNL     1      45.461   3.772   9.073  0.00  0.00    +0.000 A 
ATOM     11  C   UNL     1      46.105   4.313   7.944  0.00  0.00    +0.000 A 
ATOM     12  C   UNL     1      46.673   3.493   6.963  0.00  0.00    +0.000 A 
ATOM     13  C   UNL     1      46.611   2.108   7.092  0.00  0.00    +0.000 A 
ATOM     14  C   UNL     1      45.992   1.545   8.204  0.00  0.00    +0.000 A 
ATOM     15  C   UNL     1      45.426   2.368   9.182  0.00  0.00    +0.000 A 
ENDBRANCH   8  10
ENDBRANCH   1   4
BRANCH   1  16
ATOM     16  N   UNL     1      47.463   6.629  12.886  0.00  0.00    +0.000 N 
ATOM     17  H   UNL     1      48.011   6.203  12.142  0.00  0.00    +0.000 HD
BRANCH  16  21
ATOM     18  C   UNL     1      47.881   4.162  16.217  0.00  0.00    +0.000 A 
ATOM     19  C   UNL     1      48.424   5.439  16.300  0.00  0.00    +0.000 A 
ATOM     20  C   UNL     1      48.280   6.298  15.206  0.00  0.00    +0.000 A 
ATOM     21  C   UNL     1      47.581   5.883  14.076  0.00  0.00    +0.000 A 
ATOM     22  C   UNL     1      47.095   4.568  14.099  0.00  0.00    +0.000 A 
ATOM     23  N   UNL     1      47.212   3.695  15.130  0.00  0.00    +0.000 NA
BRANCH  18  25
ATOM     24  N   UNL     1      46.878   2.587  17.767  0.00  0.00    +0.000 N 
ATOM     25  C   UNL     1      48.033   3.205  17.361  0.00  0.00    +0.000 C 
ATOM     26  O   UNL     1      49.109   2.977  17.899  0.00  0.00    +0.000 OA
ATOM     27  H   UNL     1      46.910   1.929  18.532  0.00  0.00    +0.000 HD
ATOM     28  H   UNL     1      46.006   2.799  17.296  0.00  0.00    +0.000 HD
ENDBRANCH  18  25
ENDBRANCH  16  21
ENDBRANCH   1  16
TORSDOF 5
ENDMDL
MODEL 4
REMARK VINA RESULT:    -7.460      1.285      2.348
REMARK INTER + INTRA:         -10.676
REMARK INTER:                 -10.471
REMARK INTRA:                  -0.205
REMARK UNBOUND:                -1.036
REMARK  Name = 
REMARK  5 active torsions:
REMARK  status: ('A' for Active; 'I' for Inactive)
REMARK    1  A    between atoms: C_2  and  C_4
REMARK    2  A    between atoms: C_7  and  N_8
REMARK    3  A    between atoms: N_8  and  C_9
REMARK    4  A    between atoms: C_9  and  C_10
REMARK    5  A    between atoms: C_14  and  C_15
REMARK                            x       y       z     vdW  Elec       q    Type
REMARK                         _______ _______ _______ _____ _____    ______ ____
ROOT
ATOM      1  C   UNL     1      44.325   4.454  11.670  0.00  0.00    +0.000 C 
ATOM      2  C   UNL     1      45.100   3.417  12.479  0.00  0.00    +0.000 C 
ATOM      3  C   UNL     1      43.800   3.937  12.996  0.00  0.00    +0.000 C 
ENDROOT
BRANCH   1   4
ATOM      4  C   UNL     1      44.818   5.909  11.629  0.00  0.00    +0.000 A 
ATOM      5  C   UNL     1      43.943   6.954  11.333  0.00  0.00    +0.000 A 
ATOM      6  C   UNL     1      44.389   8.269  11.395  0.00  0.00    +0.000 A 
ATOM      7  C   UNL     1      45.701   8.519  11.773  0.00  0.00    +0.000 A 
ATOM      8  C   UNL     1      46.543   7.447  12.060  0.00  0.00    +0.000 A 
ATOM      9  N   UNL     1      46.113   6.162  11.967  0.00  0.00    +0.000 NA
BRANCH   8  10
ATOM     10  C   UNL     1      47.944   7.631  12.501  0.00  0.00    +0.000 A 
ATOM     11  C   UNL     1      48.939   8.116  11.631  0.00  0.00    +0.000 A 
ATOM     12  C   UNL     1      50.261   8.285  12.054  0.00  0.00    +0.000 A 
ATOM     13  C   UNL     1      50.619   7.972  13.363  0.00  0.00    +0.000 A 
ATOM     14  C   UNL     1      49.654   7.501  14.249  0.00  0.00    +0.000 A 
ATOM     15  C   UNL     1      48.333   7.335  13.822  0.00  0.00    +0.000 A 
ENDBRANCH   8  10
ENDBRANCH   1   4
BRANCH   1  16
ATOM     16  N   UNL     1      43.859   3.937  10.361  0.00  0.00    +0.000 N 
ATOM     17  H   UNL     1      43.021   3.364  10.427  0.00  0.00    +0.000 HD
BRANCH  16  21
ATOM     18  C   UNL     1      46.573   2.769   7.423  0.00  0.00    +0.000 A 
ATOM     19  C   UNL     1      45.960   1.762   8.159  0.00  0.00    +0.000 A 
ATOM     20  C   UNL     1      45.026   2.122   9.136  0.00  0.00    +0.000 A 
ATOM     21  C   UNL     1      44.706   3.461   9.339  0.00  0.00    +0.000 A 
ATOM     22  C   UNL     1      45.402   4.389   8.552  0.00  0.00    +0.000 A 
ATOM     23  N   UNL     1      46.317   4.093   7.596  0.00  0.00    +0.000 NA
BRANCH  18  25
ATOM     24  N   UNL     1      47.439   3.060   5.175  0.00  0.00    +0.000 N 
ATOM     25  C   UNL     1      47.593   2.425   6.381  0.00  0.00    +0.000 C 
ATOM     26  O   UNL     1      48.509   1.638   6.581  0.00  0.00    +0.000 OA
ATOM     27  H   UNL     1      48.094   2.874   4.429  0.00  0.00    +0.000 HD
ATOM     28  H   UNL     1      46.671   3.708   5.046  0.00  0.00    +0.000 HD
ENDBRANCH  18  25
ENDBRANCH  16  21
ENDBRANCH   1  16
TORSDOF 5
ENDMDL
MODEL 5
REMARK VINA RESULT:    -6.666      3.273      5.859
REMARK INTER + INTRA:          -9.650
REMARK INTER:                  -8.843
REMARK INTRA:                  -0.808
REMARK UNBOUND:                -1.036
REMARK  Name = 
REMARK  5 active torsions:
REMARK  status: ('A' for Active; 'I' for Inactive)
REMARK    1  A    between atoms: C_2  and  C_4
REMARK    2  A    between atoms: C_7  and  N_8
REMARK    3  A    between atoms: N_8  and  C_9
REMARK    4  A    between atoms: C_9  and  C_10
REMARK    5  A    between atoms: C_14  and  C_15
REMARK                            x       y       z     vdW  Elec       q    Type
REMARK                         _______ _______ _______ _____ _____    ______ ____
ROOT
ATOM      1  C   UNL     1      47.987   7.966  12.698  0.00  0.00    +0.000 C 
ATOM      2  C   UNL     1      48.628   9.042  11.824  0.00  0.00    +0.000 C 
ATOM      3  C   UNL     1      49.099   7.630  11.723  0.00  0.00    +0.000 C 
ENDROOT
BRANCH   1   4
ATOM      4  C   UNL     1      48.323   7.903  14.195  0.00  0.00    +0.000 A 
ATOM      5  C   UNL     1      48.275   9.050  14.989  0.00  0.00    +0.000 A 
ATOM      6  C   UNL     1      48.489   8.953  16.359  0.00  0.00    +0.000 A 
ATOM      7  C   UNL     1      48.728   7.705  16.918  0.00  0.00    +0.000 A 
ATOM      8  C   UNL     1      48.768   6.585  16.091  0.00  0.00    +0.000 A 
ATOM      9  N   UNL     1      48.590   6.687  14.748  0.00  0.00    +0.000 NA
BRANCH   8  10
ATOM     10  C   UNL     1      48.984   5.217  16.613  0.00  0.00    +0.000 A 
ATOM     11  C   UNL     1      50.185   4.845  17.246  0.00  0.00    +0.000 A 
ATOM     12  C   UNL     1      50.384   3.550  17.734  0.00  0.00    +0.000 A 
ATOM     13  C   UNL     1      49.379   2.594  17.601  0.00  0.00    +0.000 A 
ATOM     14  C   UNL     1      48.177   2.937  16.991  0.00  0.00    +0.000 A 
ATOM     15  C   UNL     1      47.982   4.233  16.504  0.00  0.00    +0.000 A 
ENDBRANCH   8  10
ENDBRANCH   1   4
BRANCH   1  16
ATOM     16  N   UNL     1      46.553   7.749  12.391  0.00  0.00    +0.000 N 
ATOM     17  H   UNL     1      45.925   8.217  13.041  0.00  0.00    +0.000 HD
BRANCH  16  21
ATOM     18  C   UNL     1      44.674   4.183  11.337  0.00  0.00    +0.000 A 
ATOM     19  C   UNL     1      45.219   4.943  10.309  0.00  0.00    +0.000 A 
ATOM     20  C   UNL     1      45.876   6.134  10.634  0.00  0.00    +0.000 A 
ATOM     21  C   UNL     1      46.000   6.525  11.964  0.00  0.00    +0.000 A 
ATOM     22  C   UNL     1      45.394   5.689  12.912  0.00  0.00    +0.000 A 
ATOM     23  N   UNL     1      44.742   4.530  12.649  0.00  0.00    +0.000 NA
BRANCH  18  25
ATOM     24  N   UNL     1      44.446   2.187   9.976  0.00  0.00    +0.000 N 
ATOM     25  C   UNL     1      43.944   2.911  11.027  0.00  0.00    +0.000 C 
ATOM     26  O   UNL     1      42.970   2.531  11.664  0.00  0.00    +0.000 OA
ATOM     27  H   UNL     1      44.001   1.319   9.715  0.00  0.00    +0.000 HD
ATOM     28  H   UNL     1      45.255   2.532   9.473  0.00  0.00    +0.000 HD
ENDBRANCH  18  25
ENDBRANCH  16  21
ENDBRANCH   1  16
TORSDOF 5
ENDMDL
MODEL 6
REMARK VINA RESULT:    -6.615      2.996      6.807
REMARK INTER + INTRA:          -9.584
REMARK INTER:                  -8.694
REMARK INTRA:                  -0.890
REMARK UNBOUND:                -1.036
REMARK  Name = 
REMARK  5 active torsions:
REMARK  status: ('A' for Active; 'I' for Inactive)
REMARK    1  A    between atoms: C_2  and  C_4
REMARK    2  A    between atoms: C_7  and  N_8
REMARK    3  A    between atoms: N_8  and  C_9
REMARK    4  A    between atoms: C_9  and  C_10
REMARK    5  A    between atoms: C_14  and  C_15
REMARK                            x       y       z     vdW  Elec       q    Type
REMARK                         _______ _______ _______ _____ _____    ______ ____
ROOT
ATOM      1  C   UNL     1      46.190   5.036  13.309  0.00  0.00    +0.000 C 
ATOM      2  C   UNL     1      45.968   4.264  14.607  0.00  0.00    +0.000 C 
ATOM      3  C   UNL     1      47.110   3.901  13.717  0.00  0.00    +0.000 C 
ENDROOT
BRANCH   1   4
ATOM      4  C   UNL     1      45.261   4.792  12.110  0.00  0.00    +0.000 A 
ATOM      5  C   UNL     1      43.968   5.316  12.087  0.00  0.00    +0.000 A 
ATOM      6  C   UNL     1      43.179   5.164  10.954  0.00  0.00    +0.000 A 
ATOM      7  C   UNL     1      43.704   4.505   9.850  0.00  0.00    +0.000 A 
ATOM      8  C   UNL     1      44.999   3.996   9.913  0.00  0.00    +0.000 A 
ATOM      9  N   UNL     1      45.756   4.119  11.035  0.00  0.00    +0.000 NA
BRANCH   8  10
ATOM     10  C   UNL     1      45.642   3.311   8.770  0.00  0.00    +0.000 A 
ATOM     11  C   UNL     1      46.090   4.017   7.637  0.00  0.00    +0.000 A 
ATOM     12  C   UNL     1      46.694   3.362   6.559  0.00  0.00    +0.000 A 
ATOM     13  C   UNL     1      46.866   1.981   6.591  0.00  0.00    +0.000 A 
ATOM     14  C   UNL     1      46.444   1.258   7.703  0.00  0.00    +0.000 A 
ATOM     15  C   UNL     1      45.841   1.916   8.779  0.00  0.00    +0.000 A 
ENDBRANCH   8  10
ENDBRANCH   1   4
BRANCH   1  16
ATOM     16  N   UNL     1      46.522   6.464  13.534  0.00  0.00    +0.000 N 
ATOM     17  H   UNL     1      45.734   7.091  13.389  0.00  0.00    +0.000 HD
BRANCH  16  21
ATOM     18  C   UNL     1      50.235   8.066  12.529  0.00  0.00    +0.000 A 
ATOM     19  C   UNL     1      49.297   7.947  11.511  0.00  0.00    +0.000 A 
ATOM     20  C   UNL     1      48.033   7.435  11.822  0.00  0.00    +0.000 A 
ATOM     21  C   UNL     1      47.724   7.081  13.132  0.00  0.00    +0.000 A 
ATOM     22  C   UNL     1      48.755   7.226  14.071  0.00  0.00    +0.000 A 
ATOM     23  N   UNL     1      49.996   7.712  13.820  0.00  0.00    +0.000 NA
BRANCH  18  25
ATOM     24  N   UNL     1      52.428   7.733  11.547  0.00  0.00    +0.000 N 
ATOM     25  C   UNL     1      51.606   8.591  12.232  0.00  0.00    +0.000 C 
ATOM     26  O   UNL     1      51.978   9.709  12.565  0.00  0.00    +0.000 OA
ATOM     27  H   UNL     1      53.366   8.025  11.313  0.00  0.00    +0.000 HD
ATOM     28  H   UNL     1      52.086   6.817  11.285  0.00  0.00    +0.000 HD
ENDBRANCH  18  25
ENDBRANCH  16  21
ENDBRANCH   1  16
TORSDOF 5
ENDMDL
MODEL 7
REMARK VINA RESULT:    -6.110      3.755      7.775
REMARK INTER + INTRA:          -8.931
REMARK INTER:                  -7.961
REMARK INTRA:                  -0.970
REMARK UNBOUND:                -1.036
REMARK  Name = 
REMARK  5 active torsions:
REMARK  status: ('A' for Active; 'I' for Inactive)
REMARK    1  A    between atoms: C_2  and  C_4
REMARK    2  A    between atoms: C_7  and  N_8
REMARK    3  A    between atoms: N_8  and  C_9
REMARK    4  A    between atoms: C_9  and  C_10
REMARK    5  A    between atoms: C_14  and  C_15
REMARK                            x       y       z     vdW  Elec       q    Type
REMARK                         _______ _______ _______ _____ _____    ______ ____
ROOT
ATOM      1  C   UNL     1      48.557   8.142  12.684  0.00  0.00    +0.000 C 
ATOM      2  C   UNL     1      49.510   8.810  11.695  0.00  0.00    +0.000 C 
ATOM      3  C   UNL     1      48.990   9.585  12.859  0.00  0.00    +0.000 C 
ENDROOT
BRANCH   1   4
ATOM      4  C   UNL     1      47.096   7.890  12.280  0.00  0.00    +0.000 A 
ATOM      5  C   UNL     1      46.121   8.869  12.473  0.00  0.00    +0.000 A 
ATOM      6  C   UNL     1      44.827   8.657  12.013  0.00  0.00    +0.000 A 
ATOM      7  C   UNL     1      44.533   7.474  11.348  0.00  0.00    +0.000 A 
ATOM      8  C   UNL     1      45.536   6.522  11.175  0.00  0.00    +0.000 A 
ATOM      9  N   UNL     1      46.792   6.720  11.655  0.00  0.00    +0.000 NA
BRANCH   8  10
ATOM     10  C   UNL     1      45.312   5.252  10.449  0.00  0.00    +0.000 A 
ATOM     11  C   UNL     1      44.704   4.142  11.065  0.00  0.00    +0.000 A 
ATOM     12  C   UNL     1      44.499   2.944  10.373  0.00  0.00    +0.000 A 
ATOM     13  C   UNL     1      44.896   2.831   9.043  0.00  0.00    +0.000 A 
ATOM     14  C   UNL     1      45.487   3.917   8.405  0.00  0.00    +0.000 A 
ATOM     15  C   UNL     1      45.691   5.112   9.099  0.00  0.00    +0.000 A 
ENDBRANCH   8  10
ENDBRANCH   1   4
BRANCH   1  16
ATOM     16  N   UNL     1      49.182   7.017  13.421  0.00  0.00    +0.000 N 
ATOM     17  H   UNL     1      49.372   6.206  12.837  0.00  0.00    +0.000 HD
BRANCH  16  21
ATOM     18  C   UNL     1      48.175   5.520  17.177  0.00  0.00    +0.000 A 
ATOM     19  C   UNL     1      48.969   6.660  17.139  0.00  0.00    +0.000 A 
ATOM     20  C   UNL     1      49.304   7.200  15.892  0.00  0.00    +0.000 A 
ATOM     21  C   UNL     1      48.825   6.615  14.724  0.00  0.00    +0.000 A 
ATOM     22  C   UNL     1      48.050   5.458  14.885  0.00  0.00    +0.000 A 
ATOM     23  N   UNL     1      47.702   4.892  16.068  0.00  0.00    +0.000 NA
BRANCH  18  25
ATOM     24  N   UNL     1      46.782   5.508  19.162  0.00  0.00    +0.000 N 
ATOM     25  C   UNL     1      47.812   4.900  18.492  0.00  0.00    +0.000 C 
ATOM     26  O   UNL     1      48.382   3.916  18.944  0.00  0.00    +0.000 OA
ATOM     27  H   UNL     1      46.485   5.140  20.055  0.00  0.00    +0.000 HD
ATOM     28  H   UNL     1      46.331   6.319  18.757  0.00  0.00    +0.000 HD
ENDBRANCH  18  25
ENDBRANCH  16  21
ENDBRANCH   1  16
TORSDOF 5
ENDMDL
MODEL 8
REMARK VINA RESULT:    -6.070      3.845      6.051
REMARK INTER + INTRA:          -8.880
REMARK INTER:                  -8.245
REMARK INTRA:                  -0.635
REMARK UNBOUND:                -1.036
REMARK  Name = 
REMARK  5 active torsions:
REMARK  status: ('A' for Active; 'I' for Inactive)
REMARK    1  A    between atoms: C_2  and  C_4
REMARK    2  A    between atoms: C_7  and  N_8
REMARK    3  A    between atoms: N_8  and  C_9
REMARK    4  A    between atoms: C_9  and  C_10
REMARK    5  A    between atoms: C_14  and  C_15
REMARK                            x       y       z     vdW  Elec       q    Type
REMARK                         _______ _______ _______ _____ _____    ______ ____
ROOT
ATOM      1  C   UNL     1      48.095   7.696  13.190  0.00  0.00    +0.000 C 
ATOM      2  C   UNL     1      48.025   9.046  12.480  0.00  0.00    +0.000 C 
ATOM      3  C   UNL     1      48.592   7.863  11.767  0.00  0.00    +0.000 C 
ENDROOT
BRANCH   1   4
ATOM      4  C   UNL     1      49.151   7.465  14.282  0.00  0.00    +0.000 A 
ATOM      5  C   UNL     1      50.480   7.844  14.085  0.00  0.00    +0.000 A 
ATOM      6  C   UNL     1      51.397   7.714  15.120  0.00  0.00    +0.000 A 
ATOM      7  C   UNL     1      50.966   7.225  16.346  0.00  0.00    +0.000 A 
ATOM      8  C   UNL     1      49.631   6.859  16.502  0.00  0.00    +0.000 A 
ATOM      9  N   UNL     1      48.744   6.957  15.478  0.00  0.00    +0.000 NA
BRANCH   8  10
ATOM     10  C   UNL     1      49.087   6.361  17.785  0.00  0.00    +0.000 A 
ATOM     11  C   UNL     1      48.326   7.183  18.638  0.00  0.00    +0.000 A 
ATOM     12  C   UNL     1      47.818   6.706  19.851  0.00  0.00    +0.000 A 
ATOM     13  C   UNL     1      48.058   5.390  20.237  0.00  0.00    +0.000 A 
ATOM     14  C   UNL     1      48.796   4.551  19.408  0.00  0.00    +0.000 A 
ATOM     15  C   UNL     1      49.302   5.031  18.197  0.00  0.00    +0.000 A 
ENDBRANCH   8  10
ENDBRANCH   1   4
BRANCH   1  16
ATOM     16  N   UNL     1      46.758   7.144  13.518  0.00  0.00    +0.000 N 
ATOM     17  H   UNL     1      46.602   7.026  14.516  0.00  0.00    +0.000 HD
BRANCH  16  21
ATOM     18  C   UNL     1      44.750   4.002  11.659  0.00  0.00    +0.000 A 
ATOM     19  C   UNL     1      44.636   5.260  11.080  0.00  0.00    +0.000 A 
ATOM     20  C   UNL     1      45.318   6.331  11.668  0.00  0.00    +0.000 A 
ATOM     21  C   UNL     1      46.112   6.123  12.792  0.00  0.00    +0.000 A 
ATOM     22  C   UNL     1      46.135   4.816  13.299  0.00  0.00    +0.000 A 
ATOM     23  N   UNL     1      45.489   3.747  12.771  0.00  0.00    +0.000 NA
BRANCH  18  25
ATOM     24  N   UNL     1      44.631   2.237   9.998  0.00  0.00    +0.000 N 
ATOM     25  C   UNL     1      44.018   2.834  11.070  0.00  0.00    +0.000 C 
ATOM     26  O   UNL     1      42.950   2.427  11.510  0.00  0.00    +0.000 OA
ATOM     27  H   UNL     1      44.191   1.443   9.554  0.00  0.00    +0.000 HD
ATOM     28  H   UNL     1      45.515   2.599   9.663  0.00  0.00    +0.000 HD
ENDBRANCH  18  25
ENDBRANCH  16  21
ENDBRANCH   1  16
TORSDOF 5
ENDMDL
MODEL 9
REMARK VINA RESULT:    -5.829      4.176      6.074
REMARK INTER + INTRA:          -8.568
REMARK INTER:                  -7.760
REMARK INTRA:                  -0.809
REMARK UNBOUND:                -1.036
REMARK  Name = 
REMARK  5 active torsions:
REMARK  status: ('A' for Active; 'I' for Inactive)
REMARK    1  A    between atoms: C_2  and  C_4
REMARK    2  A    between atoms: C_7  and  N_8
REMARK    3  A    between atoms: N_8  and  C_9
REMARK    4  A    between atoms: C_9  and  C_10
REMARK    5  A    between atoms: C_14  and  C_15
REMARK                            x       y       z     vdW  Elec       q    Type
REMARK                         _______ _______ _______ _____ _____    ______ ____
ROOT
ATOM      1  C   UNL     1      48.351   8.052  12.972  0.00  0.00    +0.000 C 
ATOM      2  C   UNL     1      48.738   9.092  11.923  0.00  0.00    +0.000 C 
ATOM      3  C   UNL     1      49.180   7.676  11.759  0.00  0.00    +0.000 C 
ENDROOT
BRANCH   1   4
ATOM      4  C   UNL     1      49.058   8.050  14.336  0.00  0.00    +0.000 A 
ATOM      5  C   UNL     1      50.376   7.607  14.459  0.00  0.00    +0.000 A 
ATOM      6  C   UNL     1      51.027   7.703  15.682  0.00  0.00    +0.000 A 
ATOM      7  C   UNL     1      50.356   8.262  16.762  0.00  0.00    +0.000 A 
ATOM      8  C   UNL     1      49.041   8.692  16.598  0.00  0.00    +0.000 A 
ATOM      9  N   UNL     1      48.397   8.567  15.408  0.00  0.00    +0.000 NA
BRANCH   8  10
ATOM     10  C   UNL     1      48.269   9.327  17.689  0.00  0.00    +0.000 A 
ATOM     11  C   UNL     1      47.990  10.707  17.696  0.00  0.00    +0.000 A 
ATOM     12  C   UNL     1      47.262  11.301  18.732  0.00  0.00    +0.000 A 
ATOM     13  C   UNL     1      46.793  10.523  19.788  0.00  0.00    +0.000 A 
ATOM     14  C   UNL     1      47.043   9.154  19.801  0.00  0.00    +0.000 A 
ATOM     15  C   UNL     1      47.770   8.564  18.763  0.00  0.00    +0.000 A 
ENDBRANCH   8  10
ENDBRANCH   1   4
BRANCH   1  16
ATOM     16  N   UNL     1      46.887   7.825  13.051  0.00  0.00    +0.000 N 
ATOM     17  H   UNL     1      46.482   8.105  13.940  0.00  0.00    +0.000 HD
BRANCH  16  21
ATOM     18  C   UNL     1      44.806   4.425  11.838  0.00  0.00    +0.000 A 
ATOM     19  C   UNL     1      44.788   5.521  10.983  0.00  0.00    +0.000 A 
ATOM     20  C   UNL     1      45.497   6.669  11.352  0.00  0.00    +0.000 A 
ATOM     21  C   UNL     1      46.224   6.692  12.539  0.00  0.00    +0.000 A 
ATOM     22  C   UNL     1      46.152   5.536  13.329  0.00  0.00    +0.000 A 
ATOM     23  N   UNL     1      45.476   4.402  13.020  0.00  0.00    +0.000 NA
BRANCH  18  25
ATOM     24  N   UNL     1      43.733   2.367  12.544  0.00  0.00    +0.000 N 
ATOM     25  C   UNL     1      44.042   3.185  11.487  0.00  0.00    +0.000 C 
ATOM     26  O   UNL     1      43.705   2.912  10.342  0.00  0.00    +0.000 OA
ATOM     27  H   UNL     1      43.217   1.515  12.377  0.00  0.00    +0.000 HD
ATOM     28  H   UNL     1      44.025   2.627  13.478  0.00  0.00    +0.000 HD
ENDBRANCH  18  25
ENDBRANCH  16  21
ENDBRANCH   1  16
TORSDOF 5
ENDMDL
