MODEL 1
REMARK VINA RESULT:    -8.256      0.000      0.000
REMARK INTER + INTRA:         -11.935
REMARK INTER:                 -11.393
REMARK INTRA:                  -0.542
REMARK UNBOUND:                -0.542
REMARK  Name = 
REMARK  7 active torsions:
REMARK  status: ('A' for Active; 'I' for Inactive)
REMARK    1  A    between atoms: N_1  and  C_2
REMARK    2  A    between atoms: C_2  and  C_3
REMARK    3  A    between atoms: C_6  and  O_7
REMARK    4  A    between atoms: O_7  and  C_8
REMARK    5  A    between atoms: C_8  and  C_9
REMARK    6  A    between atoms: C_9  and  C_10
REMARK    7  A    between atoms: C_13  and  C_14
REMARK                            x       y       z     vdW  Elec       q    Type
REMARK                         _______ _______ _______ _____ _____    ______ ____
ROOT
ATOM      1  C   UNL     1      43.642   3.909  10.638  0.00  0.00    +0.000 C 
ENDROOT
BRANCH   1   2
ATOM      2  C   UNL     1      44.637   3.494   9.581  0.00  0.00    +0.000 A 
ATOM      3  C   UNL     1      45.294   4.454   8.801  0.00  0.00    +0.000 A 
ATOM      4  C   UNL     1      46.205   4.064   7.810  0.00  0.00    +0.000 A 
ATOM      5  C   UNL     1      46.471   2.707   7.581  0.00  0.00    +0.000 A 
ATOM      6  C   UNL     1      45.808   1.756   8.357  0.00  0.00    +0.000 A 
ATOM      7  F   UNL     1      46.024   0.442   8.181  0.00  0.00    +0.000 F 
ATOM      8  C   UNL     1      44.898   2.139   9.345  0.00  0.00    +0.000 A 
BRANCH   5   9
ATOM      9  C   UNL     1      47.442   2.349   6.514  0.00  0.00    +0.000 C 
ATOM     10  N   UNL     1      47.376   3.018   5.327  0.00  0.00    +0.000 N 
ATOM     11  O   UNL     1      48.285   1.478   6.687  0.00  0.00    +0.000 OA
ATOM     12  H   UNL     1      46.696   3.744   5.137  0.00  0.00    +0.000 HD
ATOM     13  H   UNL     1      48.040   2.771   4.604  0.00  0.00    +0.000 HD
ENDBRANCH   5   9
ENDBRANCH   1   2
BRANCH   1  14
ATOM     14  C   UNL     1      43.603   2.925  11.806  0.00  0.00    +0.000 C 
BRANCH  14  15
ATOM     15  O   UNL     1      43.768   3.650  13.028  0.00  0.00    +0.000 OA
BRANCH  15  19
ATOM     16  C   UNL     1      46.948   6.375  13.055  0.00  0.00    +0.000 A 
ATOM     17  C   UNL     1      45.646   6.847  12.843  0.00  0.00    +0.000 A 
ATOM     18  C   UNL     1      44.557   5.971  12.836  0.00  0.00    +0.000 A 
ATOM     19  C   UNL     1      44.752   4.604  13.036  0.00  0.00    +0.000 A 
ATOM     20  C   UNL     1      46.045   4.129  13.262  0.00  0.00    +0.000 A 
ATOM     21  C   UNL     1      47.137   5.005  13.272  0.00  0.00    +0.000 A 
BRANCH  16  22
ATOM     22  C   UNL     1      48.115   7.328  13.005  0.00  0.00    +0.000 C 
BRANCH  22  23
ATOM     23  N   UNL     1      49.386   6.621  12.901  0.00  0.00    +0.000 NA
ATOM     24  H   UNL     1      49.226   5.712  12.470  0.00  0.00    +0.000 HD
ATOM     25  H   UNL     1      49.736   6.438  13.841  0.00  0.00    +0.000 HD
ENDBRANCH  22  23
ENDBRANCH  16  22
ENDBRANCH  15  19
ENDBRANCH  14  15
ENDBRANCH   1  14
TORSDOF 7
ENDMDL
MODEL 2
REMARK VINA RESULT:    -7.761      2.668      6.416
REMARK INTER + INTRA:         -11.251
REMARK INTER:                 -10.434
REMARK INTRA:                  -0.817
REMARK UNBOUND:                -0.542
REMARK  Name = 
REMARK  7 active torsions:
REMARK  status: ('A' for Active; 'I' for Inactive)
REMARK    1  A    between atoms: N_1  and  C_2
REMARK    2  A    between atoms: C_2  and  C_3
REMARK    3  A    between atoms: C_6  and  O_7
REMARK    4  A    between atoms: O_7  and  C_8
REMARK    5  A    between atoms: C_8  and  C_9
REMARK    6  A    between atoms: C_9  and  C_10
REMARK    7  A    between atoms: C_13  and  C_14
REMARK                            x       y       z     vdW  Elec       q    Type
REMARK                         _______ _______ _______ _____ _____    ______ ____
ROOT
ATOM      1  C   UNL     1      43.285   4.796  12.381  0.00  0.00    +0.000 C 
ENDROOT
BRANCH   1   2
ATOM      2  C   UNL     1      44.652   5.357  12.690  0.00  0.00    +0.000 A 
ATOM      3  C   UNL     1      45.695   4.516  13.099  0.00  0.00    +0.000 A 
ATOM      4  C   UNL     1      46.957   5.043  13.402  0.00  0.00    +0.000 A 
ATOM      5  C   UNL     1      47.197   6.421  13.303  0.00  0.00    +0.000 A 
ATOM      6  C   UNL     1      46.153   7.253  12.901  0.00  0.00    +0.000 A 
ATOM      7  F   UNL     1      46.325   8.581  12.789  0.00  0.00    +0.000 F 
ATOM      8  C   UNL     1      44.892   6.734  12.600  0.00  0.00    +0.000 A 
BRANCH   5   9
ATOM      9  C   UNL     1      48.554   6.927  13.641  0.00  0.00    +0.000 C 
ATOM     10  N   UNL     1      49.518   6.888  12.677  0.00  0.00    +0.000 N 
ATOM     11  O   UNL     1      48.807   7.371  14.753  0.00  0.00    +0.000 OA
ATOM     12  H   UNL     1      49.356   6.528  11.744  0.00  0.00    +0.000 HD
ATOM     13  H   UNL     1      50.440   7.235  12.912  0.00  0.00    +0.000 HD
ENDBRANCH   5   9
ENDBRANCH   1   2
BRANCH   1  14
ATOM     14  C   UNL     1      43.340   3.708  11.310  0.00  0.00    +0.000 C 
BRANCH  14  15
ATOM     15  O   UNL     1      43.719   4.302  10.065  0.00  0.00    +0.000 OA
BRANCH  15  19
ATOM     16  C   UNL     1      46.507   2.333   7.638  0.00  0.00    +0.000 A 
ATOM     17  C   UNL     1      45.723   1.583   8.524  0.00  0.00    +0.000 A 
ATOM     18  C   UNL     1      44.776   2.202   9.344  0.00  0.00    +0.000 A 
ATOM     19  C   UNL     1      44.598   3.585   9.296  0.00  0.00    +0.000 A 
ATOM     20  C   UNL     1      45.366   4.336   8.404  0.00  0.00    +0.000 A 
ATOM     21  C   UNL     1      46.313   3.718   7.580  0.00  0.00    +0.000 A 
BRANCH  16  22
ATOM     22  C   UNL     1      47.561   1.654   6.800  0.00  0.00    +0.000 C 
BRANCH  22  23
ATOM     23  N   UNL     1      48.659   2.558   6.478  0.00  0.00    +0.000 NA
ATOM     24  H   UNL     1      49.539   2.051   6.550  0.00  0.00    +0.000 HD
ATOM     25  H   UNL     1      48.692   3.296   7.180  0.00  0.00    +0.000 HD
ENDBRANCH  22  23
ENDBRANCH  16  22
ENDBRANCH  15  19
ENDBRANCH  14  15
ENDBRANCH   1  14
TORSDOF 7
ENDMDL
MODEL 3
REMARK VINA RESULT:    -7.673      2.379      6.174
REMARK INTER + INTRA:         -11.130
REMARK INTER:                 -10.362
REMARK INTRA:                  -0.768
REMARK UNBOUND:                -0.542
REMARK  Name = 
REMARK  7 active torsions:
REMARK  status: ('A' for Active; 'I' for Inactive)
REMARK    1  A    between atoms: N_1  and  C_2
REMARK    2  A    between atoms: C_2  and  C_3
REMARK    3  A    between atoms: C_6  and  O_7
REMARK    4  A    between atoms: O_7  and  C_8
REMARK    5  A    between atoms: C_8  and  C_9
REMARK    6  A    between atoms: C_9  and  C_10
REMARK    7  A    between atoms: C_13  and  C_14
REMARK                            x       y       z     vdW  Elec       q    Type
REMARK                         _______ _______ _______ _____ _____    ______ ____
ROOT
ATOM      1  C   UNL     1      43.332   4.650  12.197  0.00  0.00    +0.000 C 
ENDROOT
BRANCH   1   2
ATOM      2  C   UNL     1      44.712   5.143  12.558  0.00  0.00    +0.000 A 
ATOM      3  C   UNL     1      45.240   6.294  11.961  0.00  0.00    +0.000 A 
ATOM      4  C   UNL     1      46.528   6.738  12.287  0.00  0.00    +0.000 A 
ATOM      5  C   UNL     1      47.311   6.036  13.216  0.00  0.00    +0.000 A 
ATOM      6  C   UNL     1      46.781   4.887  13.801  0.00  0.00    +0.000 A 
ATOM      7  F   UNL     1      47.485   4.175  14.697  0.00  0.00    +0.000 F 
ATOM      8  C   UNL     1      45.499   4.439  13.479  0.00  0.00    +0.000 A 
BRANCH   5   9
ATOM      9  C   UNL     1      48.672   6.549  13.521  0.00  0.00    +0.000 C 
ATOM     10  N   UNL     1      49.479   6.904  12.480  0.00  0.00    +0.000 N 
ATOM     11  O   UNL     1      49.068   6.655  14.675  0.00  0.00    +0.000 OA
ATOM     12  H   UNL     1      49.197   6.832  11.510  0.00  0.00    +0.000 HD
ATOM     13  H   UNL     1      50.405   7.254  12.693  0.00  0.00    +0.000 HD
ENDBRANCH   5   9
ENDBRANCH   1   2
BRANCH   1  14
ATOM     14  C   UNL     1      43.380   3.469  11.228  0.00  0.00    +0.000 C 
BRANCH  14  15
ATOM     15  O   UNL     1      43.555   3.967   9.899  0.00  0.00    +0.000 OA
BRANCH  15  19
ATOM     16  C   UNL     1      46.668   2.398   7.578  0.00  0.00    +0.000 A 
ATOM     17  C   UNL     1      45.910   1.534   8.377  0.00  0.00    +0.000 A 
ATOM     18  C   UNL     1      44.857   2.017   9.158  0.00  0.00    +0.000 A 
ATOM     19  C   UNL     1      44.546   3.376   9.159  0.00  0.00    +0.000 A 
ATOM     20  C   UNL     1      45.290   4.242   8.354  0.00  0.00    +0.000 A 
ATOM     21  C   UNL     1      46.343   3.760   7.568  0.00  0.00    +0.000 A 
BRANCH  16  22
ATOM     22  C   UNL     1      47.835   1.867   6.783  0.00  0.00    +0.000 C 
BRANCH  22  23
ATOM     23  N   UNL     1      48.068   2.651   5.575  0.00  0.00    +0.000 NA
ATOM     24  H   UNL     1      48.918   3.198   5.693  0.00  0.00    +0.000 HD
ATOM     25  H   UNL     1      47.305   3.319   5.468  0.00  0.00    +0.000 HD
ENDBRANCH  22  23
ENDBRANCH  16  22
ENDBRANCH  15  19
ENDBRANCH  14  15
ENDBRANCH   1  14
TORSDOF 7
ENDMDL
MODEL 4
REMARK VINA RESULT:    -7.121      1.530      2.136
REMARK INTER + INTRA:         -10.369
REMARK INTER:                  -9.424
REMARK INTRA:                  -0.945
REMARK UNBOUND:                -0.542
REMARK  Name = 
REMARK  7 active torsions:
REMARK  status: ('A' for Active; 'I' for Inactive)
REMARK    1  A    between atoms: N_1  and  C_2
REMARK    2  A    between atoms: C_2  and  C_3
REMARK    3  A    between atoms: C_6  and  O_7
REMARK    4  A    between atoms: O_7  and  C_8
REMARK    5  A    between atoms: C_8  and  C_9
REMARK    6  A    between atoms: C_9  and  C_10
REMARK    7  A    between atoms: C_13  and  C_14
REMARK                            x       y       z     vdW  Elec       q    Type
REMARK                         _______ _______ _______ _____ _____    ______ ____
ROOT
ATOM      1  C   UNL     1      43.537   3.562  11.124  0.00  0.00    +0.000 C 
ENDROOT
BRANCH   1   2
ATOM      2  C   UNL     1      44.440   3.277   9.949  0.00  0.00    +0.000 A 
ATOM      3  C   UNL     1      44.591   1.973   9.462  0.00  0.00    +0.000 A 
ATOM      4  C   UNL     1      45.444   1.710   8.382  0.00  0.00    +0.000 A 
ATOM      5  C   UNL     1      46.162   2.749   7.771  0.00  0.00    +0.000 A 
ATOM      6  C   UNL     1      46.012   4.044   8.266  0.00  0.00    +0.000 A 
ATOM      7  F   UNL     1      46.676   5.077   7.721  0.00  0.00    +0.000 F 
ATOM      8  C   UNL     1      45.166   4.311   9.343  0.00  0.00    +0.000 A 
BRANCH   5   9
ATOM      9  C   UNL     1      47.057   2.413   6.633  0.00  0.00    +0.000 C 
ATOM     10  N   UNL     1      48.195   1.706   6.889  0.00  0.00    +0.000 N 
ATOM     11  O   UNL     1      46.786   2.757   5.489  0.00  0.00    +0.000 OA
ATOM     12  H   UNL     1      48.462   1.402   7.818  0.00  0.00    +0.000 HD
ATOM     13  H   UNL     1      48.800   1.480   6.110  0.00  0.00    +0.000 HD
ENDBRANCH   5   9
ENDBRANCH   1   2
BRANCH   1  14
ATOM     14  C   UNL     1      43.090   5.023  11.163  0.00  0.00    +0.000 C 
BRANCH  14  15
ATOM     15  O   UNL     1      43.466   5.589  12.422  0.00  0.00    +0.000 OA
BRANCH  15  19
ATOM     16  C   UNL     1      47.526   6.524  12.847  0.00  0.00    +0.000 A 
ATOM     17  C   UNL     1      46.993   5.451  13.572  0.00  0.00    +0.000 A 
ATOM     18  C   UNL     1      45.645   5.101  13.451  0.00  0.00    +0.000 A 
ATOM     19  C   UNL     1      44.804   5.823  12.604  0.00  0.00    +0.000 A 
ATOM     20  C   UNL     1      45.332   6.885  11.868  0.00  0.00    +0.000 A 
ATOM     21  C   UNL     1      46.682   7.236  11.986  0.00  0.00    +0.000 A 
BRANCH  16  22
ATOM     22  C   UNL     1      48.969   6.920  13.032  0.00  0.00    +0.000 C 
BRANCH  22  23
ATOM     23  N   UNL     1      49.094   8.217  13.686  0.00  0.00    +0.000 NA
ATOM     24  H   UNL     1      49.222   8.936  12.976  0.00  0.00    +0.000 HD
ATOM     25  H   UNL     1      49.940   8.216  14.254  0.00  0.00    +0.000 HD
ENDBRANCH  22  23
ENDBRANCH  16  22
ENDBRANCH  15  19
ENDBRANCH  14  15
ENDBRANCH   1  14
TORSDOF 7
ENDMDL
MODEL 5
REMARK VINA RESULT:    -7.073      2.999      6.527
REMARK INTER + INTRA:         -10.302
REMARK INTER:                  -9.800
REMARK INTRA:                  -0.502
REMARK UNBOUND:                -0.542
REMARK  Name = 
REMARK  7 active torsions:
REMARK  status: ('A' for Active; 'I' for Inactive)
REMARK    1  A    between atoms: N_1  and  C_2
REMARK    2  A    between atoms: C_2  and  C_3
REMARK    3  A    between atoms: C_6  and  O_7
REMARK    4  A    between atoms: O_7  and  C_8
REMARK    5  A    between atoms: C_8  and  C_9
REMARK    6  A    between atoms: C_9  and  C_10
REMARK    7  A    between atoms: C_13  and  C_14
REMARK                            x       y       z     vdW  Elec       q    Type
REMARK                         _______ _______ _______ _____ _____    ______ ____
ROOT
ATOM      1  C   UNL     1      44.939   4.144  12.004  0.00  0.00    +0.000 C 
ENDROOT
BRANCH   1   2
ATOM      2  C   UNL     1      45.426   5.571  12.087  0.00  0.00    +0.000 A 
ATOM      3  C   UNL     1      44.544   6.611  12.406  0.00  0.00    +0.000 A 
ATOM      4  C   UNL     1      44.996   7.935  12.465  0.00  0.00    +0.000 A 
ATOM      5  C   UNL     1      46.340   8.242  12.205  0.00  0.00    +0.000 A 
ATOM      6  C   UNL     1      47.211   7.202  11.882  0.00  0.00    +0.000 A 
ATOM      7  F   UNL     1      48.508   7.437  11.623  0.00  0.00    +0.000 F 
ATOM      8  C   UNL     1      46.765   5.881  11.819  0.00  0.00    +0.000 A 
BRANCH   5   9
ATOM      9  C   UNL     1      46.765   9.665  12.277  0.00  0.00    +0.000 C 
ATOM     10  N   UNL     1      45.807  10.632  12.196  0.00  0.00    +0.000 N 
ATOM     11  O   UNL     1      47.944   9.970  12.407  0.00  0.00    +0.000 OA
ATOM     12  H   UNL     1      44.821  10.429  12.086  0.00  0.00    +0.000 HD
ATOM     13  H   UNL     1      46.102  11.599  12.247  0.00  0.00    +0.000 HD
ENDBRANCH   5   9
ENDBRANCH   1   2
BRANCH   1  14
ATOM     14  C   UNL     1      43.581   4.041  11.310  0.00  0.00    +0.000 C 
BRANCH  14  15
ATOM     15  O   UNL     1      43.737   4.391   9.933  0.00  0.00    +0.000 OA
BRANCH  15  19
ATOM     16  C   UNL     1      46.562   2.293   7.663  0.00  0.00    +0.000 A 
ATOM     17  C   UNL     1      45.697   1.582   8.503  0.00  0.00    +0.000 A 
ATOM     18  C   UNL     1      44.734   2.244   9.269  0.00  0.00    +0.000 A 
ATOM     19  C   UNL     1      44.623   3.633   9.213  0.00  0.00    +0.000 A 
ATOM     20  C   UNL     1      45.473   4.348   8.366  0.00  0.00    +0.000 A 
ATOM     21  C   UNL     1      46.436   3.686   7.596  0.00  0.00    +0.000 A 
BRANCH  16  22
ATOM     22  C   UNL     1      47.630   1.565   6.884  0.00  0.00    +0.000 C 
BRANCH  22  23
ATOM     23  N   UNL     1      48.608   2.487   6.318  0.00  0.00    +0.000 NA
ATOM     24  H   UNL     1      48.400   2.626   5.331  0.00  0.00    +0.000 HD
ATOM     25  H   UNL     1      49.529   2.053   6.362  0.00  0.00    +0.000 HD
ENDBRANCH  22  23
ENDBRANCH  16  22
ENDBRANCH  15  19
ENDBRANCH  14  15
ENDBRANCH   1  14
TORSDOF 7
ENDMDL
MODEL 6
REMARK VINA RESULT:    -7.018      1.729      2.241
REMARK INTER + INTRA:         -10.227
REMARK INTER:                  -9.926
REMARK INTRA:                  -0.301
REMARK UNBOUND:                -0.542
REMARK  Name = 
REMARK  7 active torsions:
REMARK  status: ('A' for Active; 'I' for Inactive)
REMARK    1  A    between atoms: N_1  and  C_2
REMARK    2  A    between atoms: C_2  and  C_3
REMARK    3  A    between atoms: C_6  and  O_7
REMARK    4  A    between atoms: O_7  and  C_8
REMARK    5  A    between atoms: C_8  and  C_9
REMARK    6  A    between atoms: C_9  and  C_10
REMARK    7  A    between atoms: C_13  and  C_14
REMARK                            x       y       z     vdW  Elec       q    Type
REMARK                         _______ _______ _______ _____ _____    ______ ____
ROOT
ATOM      1  C   UNL     1      43.588   4.649  10.220  0.00  0.00    +0.000 C 
ENDROOT
BRANCH   1   2
ATOM      2  C   UNL     1      44.538   3.827   9.383  0.00  0.00    +0.000 A 
ATOM      3  C   UNL     1      44.616   2.438   9.544  0.00  0.00    +0.000 A 
ATOM      4  C   UNL     1      45.511   1.681   8.776  0.00  0.00    +0.000 A 
ATOM      5  C   UNL     1      46.345   2.301   7.836  0.00  0.00    +0.000 A 
ATOM      6  C   UNL     1      46.268   3.686   7.685  0.00  0.00    +0.000 A 
ATOM      7  F   UNL     1      47.043   4.334   6.800  0.00  0.00    +0.000 F 
ATOM      8  C   UNL     1      45.379   4.445   8.449  0.00  0.00    +0.000 A 
BRANCH   5   9
ATOM      9  C   UNL     1      47.280   1.451   7.052  0.00  0.00    +0.000 C 
ATOM     10  N   UNL     1      48.436   2.012   6.594  0.00  0.00    +0.000 N 
ATOM     11  O   UNL     1      47.027   0.276   6.821  0.00  0.00    +0.000 OA
ATOM     12  H   UNL     1      48.687   2.979   6.758  0.00  0.00    +0.000 HD
ATOM     13  H   UNL     1      49.069   1.428   6.062  0.00  0.00    +0.000 HD
ENDBRANCH   5   9
ENDBRANCH   1   2
BRANCH   1  14
ATOM     14  C   UNL     1      44.328   5.588  11.171  0.00  0.00    +0.000 C 
BRANCH  14  15
ATOM     15  O   UNL     1      45.429   4.885  11.753  0.00  0.00    +0.000 OA
BRANCH  15  19
ATOM     16  C   UNL     1      48.541   7.094  13.479  0.00  0.00    +0.000 A 
ATOM     17  C   UNL     1      48.154   7.373  12.162  0.00  0.00    +0.000 A 
ATOM     18  C   UNL     1      47.115   6.665  11.554  0.00  0.00    +0.000 A 
ATOM     19  C   UNL     1      46.445   5.660  12.251  0.00  0.00    +0.000 A 
ATOM     20  C   UNL     1      46.815   5.387  13.570  0.00  0.00    +0.000 A 
ATOM     21  C   UNL     1      47.855   6.096  14.182  0.00  0.00    +0.000 A 
BRANCH  16  22
ATOM     22  C   UNL     1      49.700   7.832  14.100  0.00  0.00    +0.000 C 
BRANCH  22  23
ATOM     23  N   UNL     1      49.421   8.214  15.480  0.00  0.00    +0.000 NA
ATOM     24  H   UNL     1      50.210   8.743  15.845  0.00  0.00    +0.000 HD
ATOM     25  H   UNL     1      49.352   7.368  16.045  0.00  0.00    +0.000 HD
ENDBRANCH  22  23
ENDBRANCH  16  22
ENDBRANCH  15  19
ENDBRANCH  14  15
ENDBRANCH   1  14
TORSDOF 7
ENDMDL
MODEL 7
REMARK VINA RESULT:    -6.932      1.856      2.241
REMARK INTER + INTRA:         -10.108
REMARK INTER:                 -10.140
REMARK INTRA:                   0.032
REMARK UNBOUND:                -0.542
REMARK  Name = 
REMARK  7 active torsions:
REMARK  status: ('A' for Active; 'I' for Inactive)
REMARK    1  A    between atoms: N_1  and  C_2
REMARK    2  A    between atoms: C_2  and  C_3
REMARK    3  A    between atoms: C_6  and  O_7
REMARK    4  A    between atoms: O_7  and  C_8
REMARK    5  A    between atoms: C_8  and  C_9
REMARK    6  A    between atoms: C_9  and  C_10
REMARK    7  A    between atoms: C_13  and  C_14
REMARK                            x       y       z     vdW  Elec       q    Type
REMARK                         _______ _______ _______ _____ _____    ______ ____
ROOT
ATOM      1  C   UNL     1      43.646   3.524  10.306  0.00  0.00    +0.000 C 
ENDROOT
BRANCH   1   2
ATOM      2  C   UNL     1      44.726   3.174   9.311  0.00  0.00    +0.000 A 
ATOM      3  C   UNL     1      45.283   4.157   8.484  0.00  0.00    +0.000 A 
ATOM      4  C   UNL     1      46.273   3.825   7.550  0.00  0.00    +0.000 A 
ATOM      5  C   UNL     1      46.721   2.503   7.426  0.00  0.00    +0.000 A 
ATOM      6  C   UNL     1      46.158   1.527   8.248  0.00  0.00    +0.000 A 
ATOM      7  F   UNL     1      46.548   0.244   8.173  0.00  0.00    +0.000 F 
ATOM      8  C   UNL     1      45.170   1.852   9.179  0.00  0.00    +0.000 A 
BRANCH   5   9
ATOM      9  C   UNL     1      47.770   2.205   6.415  0.00  0.00    +0.000 C 
ATOM     10  N   UNL     1      48.933   2.916   6.460  0.00  0.00    +0.000 N 
ATOM     11  O   UNL     1      47.603   1.344   5.561  0.00  0.00    +0.000 OA
ATOM     12  H   UNL     1      49.116   3.638   7.146  0.00  0.00    +0.000 HD
ATOM     13  H   UNL     1      49.644   2.708   5.770  0.00  0.00    +0.000 HD
ENDBRANCH   5   9
ENDBRANCH   1   2
BRANCH   1  14
ATOM     14  C   UNL     1      44.153   3.465  11.747  0.00  0.00    +0.000 C 
BRANCH  14  15
ATOM     15  O   UNL     1      45.483   3.987  11.792  0.00  0.00    +0.000 OA
BRANCH  15  19
ATOM     16  C   UNL     1      45.569   8.172  11.928  0.00  0.00    +0.000 A 
ATOM     17  C   UNL     1      46.722   7.454  12.271  0.00  0.00    +0.000 A 
ATOM     18  C   UNL     1      46.736   6.057  12.230  0.00  0.00    +0.000 A 
ATOM     19  C   UNL     1      45.595   5.352  11.848  0.00  0.00    +0.000 A 
ATOM     20  C   UNL     1      44.447   6.063  11.491  0.00  0.00    +0.000 A 
ATOM     21  C   UNL     1      44.431   7.461  11.530  0.00  0.00    +0.000 A 
BRANCH  16  22
ATOM     22  C   UNL     1      45.556   9.677  12.031  0.00  0.00    +0.000 C 
BRANCH  22  23
ATOM     23  N   UNL     1      44.327  10.166  12.644  0.00  0.00    +0.000 NA
ATOM     24  H   UNL     1      44.340  11.184  12.649  0.00  0.00    +0.000 HD
ATOM     25  H   UNL     1      44.308   9.870  13.619  0.00  0.00    +0.000 HD
ENDBRANCH  22  23
ENDBRANCH  16  22
ENDBRANCH  15  19
ENDBRANCH  14  15
ENDBRANCH   1  14
TORSDOF 7
ENDMDL
MODEL 8
REMARK VINA RESULT:    -6.919      3.159      6.774
REMARK INTER + INTRA:         -10.091
REMARK INTER:                  -9.722
REMARK INTRA:                  -0.369
REMARK UNBOUND:                -0.542
REMARK  Name = 
REMARK  7 active torsions:
REMARK  status: ('A' for Active; 'I' for Inactive)
REMARK    1  A    between atoms: N_1  and  C_2
REMARK    2  A    between atoms: C_2  and  C_3
REMARK    3  A    between atoms: C_6  and  O_7
REMARK    4  A    between atoms: O_7  and  C_8
REMARK    5  A    between atoms: C_8  and  C_9
REMARK    6  A    between atoms: C_9  and  C_10
REMARK    7  A    between atoms: C_13  and  C_14
REMARK                            x       y       z     vdW  Elec       q    Type
REMARK                         _______ _______ _______ _____ _____    ______ ____
ROOT
ATOM      1  C   UNL     1      45.186   4.886  11.944  0.00  0.00    +0.000 C 
ENDROOT
BRANCH   1   2
ATOM      2  C   UNL     1      46.362   5.704  12.417  0.00  0.00    +0.000 A 
ATOM      3  C   UNL     1      46.981   6.628  11.566  0.00  0.00    +0.000 A 
ATOM      4  C   UNL     1      48.083   7.373  12.004  0.00  0.00    +0.000 A 
ATOM      5  C   UNL     1      48.588   7.205  13.301  0.00  0.00    +0.000 A 
ATOM      6  C   UNL     1      47.971   6.279  14.142  0.00  0.00    +0.000 A 
ATOM      7  F   UNL     1      48.412   6.076  15.394  0.00  0.00    +0.000 F 
ATOM      8  C   UNL     1      46.874   5.532  13.710  0.00  0.00    +0.000 A 
BRANCH   5   9
ATOM      9  C   UNL     1      49.763   8.018  13.712  0.00  0.00    +0.000 C 
ATOM     10  N   UNL     1      50.668   7.462  14.568  0.00  0.00    +0.000 N 
ATOM     11  O   UNL     1      49.923   9.159  13.296  0.00  0.00    +0.000 OA
ATOM     12  H   UNL     1      50.576   6.525  14.940  0.00  0.00    +0.000 HD
ATOM     13  H   UNL     1      51.466   8.019  14.844  0.00  0.00    +0.000 HD
ENDBRANCH   5   9
ENDBRANCH   1   2
BRANCH   1  14
ATOM     14  C   UNL     1      44.314   5.654  10.952  0.00  0.00    +0.000 C 
BRANCH  14  15
ATOM     15  O   UNL     1      43.716   4.725  10.044  0.00  0.00    +0.000 OA
BRANCH  15  19
ATOM     16  C   UNL     1      46.223   2.115   7.937  0.00  0.00    +0.000 A 
ATOM     17  C   UNL     1      46.340   3.494   7.725  0.00  0.00    +0.000 A 
ATOM     18  C   UNL     1      45.528   4.398   8.415  0.00  0.00    +0.000 A 
ATOM     19  C   UNL     1      44.580   3.938   9.329  0.00  0.00    +0.000 A 
ATOM     20  C   UNL     1      44.468   2.565   9.556  0.00  0.00    +0.000 A 
ATOM     21  C   UNL     1      45.281   1.658   8.867  0.00  0.00    +0.000 A 
BRANCH  16  22
ATOM     22  C   UNL     1      47.070   1.152   7.143  0.00  0.00    +0.000 C 
BRANCH  22  23
ATOM     23  N   UNL     1      46.977  -0.207   7.666  0.00  0.00    +0.000 NA
ATOM     24  H   UNL     1      46.482  -0.188   8.555  0.00  0.00    +0.000 HD
ATOM     25  H   UNL     1      47.917  -0.545   7.864  0.00  0.00    +0.000 HD
ENDBRANCH  22  23
ENDBRANCH  16  22
ENDBRANCH  15  19
ENDBRANCH  14  15
ENDBRANCH   1  14
TORSDOF 7
ENDMDL
MODEL 9
REMARK VINA RESULT:    -6.259      3.864      5.450
REMARK INTER + INTRA:          -9.179
REMARK INTER:                  -8.458
REMARK INTRA:                  -0.721
REMARK UNBOUND:                -0.542
REMARK  Name = 
REMARK  7 active torsions:
REMARK  status: ('A' for Active; 'I' for Inactive)
REMARK    1  A    between atoms: N_1  and  C_2
REMARK    2  A    between atoms: C_2  and  C_3
REMARK    3  A    between atoms: C_6  and  O_7
REMARK    4  A    between atoms: O_7  and  C_8
REMARK    5  A    between atoms: C_8  and  C_9
REMARK    6  A    between atoms: C_9  and  C_10
REMARK    7  A    between atoms: C_13  and  C_14
REMARK                            x       y       z     vdW  Elec       q    Type
REMARK                         _______ _______ _______ _____ _____    ______ ____
ROOT
ATOM      1  C   UNL     1      46.511   8.455  12.290  0.00  0.00    +0.000 C 
ENDROOT
BRANCH   1   2
ATOM      2  C   UNL     1      45.838   7.125  12.059  0.00  0.00    +0.000 A 
ATOM      3  C   UNL     1      46.270   6.272  11.036  0.00  0.00    +0.000 A 
ATOM      4  C   UNL     1      45.631   5.045  10.813  0.00  0.00    +0.000 A 
ATOM      5  C   UNL     1      44.546   4.651  11.610  0.00  0.00    +0.000 A 
ATOM      6  C   UNL     1      44.116   5.509  12.622  0.00  0.00    +0.000 A 
ATOM      7  F   UNL     1      43.082   5.184  13.416  0.00  0.00    +0.000 F 
ATOM      8  C   UNL     1      44.748   6.733  12.847  0.00  0.00    +0.000 A 
BRANCH   5   9
ATOM      9  C   UNL     1      43.901   3.342  11.327  0.00  0.00    +0.000 C 
ATOM     10  N   UNL     1      43.663   2.498  12.372  0.00  0.00    +0.000 N 
ATOM     11  O   UNL     1      43.587   3.021  10.188  0.00  0.00    +0.000 OA
ATOM     12  H   UNL     1      43.907   2.719  13.330  0.00  0.00    +0.000 HD
ATOM     13  H   UNL     1      43.222   1.609  12.174  0.00  0.00    +0.000 HD
ENDBRANCH   5   9
ENDBRANCH   1   2
BRANCH   1  14
ATOM     14  C   UNL     1      47.310   8.475  13.592  0.00  0.00    +0.000 C 
BRANCH  14  15
ATOM     15  O   UNL     1      48.258   7.405  13.571  0.00  0.00    +0.000 OA
BRANCH  15  19
ATOM     16  C   UNL     1      47.978   4.549  16.622  0.00  0.00    +0.000 A 
ATOM     17  C   UNL     1      48.711   5.721  16.848  0.00  0.00    +0.000 A 
ATOM     18  C   UNL     1      48.821   6.702  15.859  0.00  0.00    +0.000 A 
ATOM     19  C   UNL     1      48.202   6.526  14.621  0.00  0.00    +0.000 A 
ATOM     20  C   UNL     1      47.457   5.367  14.394  0.00  0.00    +0.000 A 
ATOM     21  C   UNL     1      47.345   4.384  15.384  0.00  0.00    +0.000 A 
BRANCH  16  22
ATOM     22  C   UNL     1      47.916   3.478  17.682  0.00  0.00    +0.000 C 
BRANCH  22  23
ATOM     23  N   UNL     1      46.609   2.833  17.722  0.00  0.00    +0.000 NA
ATOM     24  H   UNL     1      46.571   2.208  18.524  0.00  0.00    +0.000 HD
ATOM     25  H   UNL     1      46.508   2.248  16.893  0.00  0.00    +0.000 HD
ENDBRANCH  22  23
ENDBRANCH  16  22
ENDBRANCH  15  19
ENDBRANCH  14  15
ENDBRANCH   1  14
TORSDOF 7
ENDMDL
