MODEL 1
REMARK VINA RESULT:    -9.093      0.000      0.000
REMARK INTER + INTRA:         -12.614
REMARK INTER:                 -11.751
REMARK INTRA:                  -0.863
REMARK UNBOUND:                -0.863
REMARK  Name = 
REMARK  8 active torsions:
REMARK  status: ('A' for Active; 'I' for Inactive)
REMARK    1  A    between atoms: C_1  and  N_2
REMARK    2  A    between atoms: N_5  and  C_6
REMARK    3  A    between atoms: C_10  and  C_11
REMARK    4  A    between atoms: C_11  and  C_12
REMARK    5  A    between atoms: C_11  and  C_13
REMARK    6  A    between atoms: C_11  and  C_14
REMARK    7  A    between atoms: C_14  and  N_15
REMARK    8  A    between atoms: C_19  and  C_20
REMARK                            x       y       z     vdW  Elec       q    Type
REMARK                         _______ _______ _______ _____ _____    ______ ____
ROOT
ATOM      1  C   UNL     1      43.660   5.211  11.975  0.00  0.00    +0.000 C 
ATOM      2  C   UNL     1      43.002   4.733  13.293  0.00  0.00    +0.000 C 
ATOM      3  C   UNL     1      42.796   6.354  11.386  0.00  0.00    +0.000 C 
ENDROOT
BRANCH   1   8
ATOM      4  C   UNL     1      47.058   5.774  13.773  0.00  0.00    +0.000 A 
ATOM      5  C   UNL     1      47.747   6.466  12.773  0.00  0.00    +0.000 A 
ATOM      6  C   UNL     1      47.128   6.824  11.573  0.00  0.00    +0.000 A 
ATOM      7  C   UNL     1      45.808   6.449  11.326  0.00  0.00    +0.000 A 
ATOM      8  C   UNL     1      45.074   5.739  12.289  0.00  0.00    +0.000 A 
ATOM      9  C   UNL     1      45.709   5.486  13.519  0.00  0.00    +0.000 A 
BRANCH   4  14
ATOM     10  C   UNL     1      48.118   4.951  19.157  0.00  0.00    +0.000 C 
ATOM     11  N   UNL     1      48.328   4.814  17.719  0.00  0.00    +0.000 NA
ATOM     12  C   UNL     1      47.146   4.201  17.072  0.00  0.00    +0.000 C 
ATOM     13  C   UNL     1      47.313   4.038  15.540  0.00  0.00    +0.000 C 
ATOM     14  N   UNL     1      47.672   5.322  14.923  0.00  0.00    +0.000 N 
ATOM     15  C   UNL     1      48.797   6.023  15.566  0.00  0.00    +0.000 C 
ATOM     16  C   UNL     1      48.577   6.133  17.093  0.00  0.00    +0.000 C 
ENDBRANCH   4  14
ENDBRANCH   1   8
BRANCH   1  17
ATOM     17  C   UNL     1      43.604   3.997  10.984  0.00  0.00    +0.000 C 
BRANCH  17  18
ATOM     18  N   UNL     1      43.760   4.379   9.576  0.00  0.00    +0.000 N 
ATOM     19  C   UNL     1      44.806   3.810   8.861  0.00  0.00    +0.000 A 
ATOM     20  C   UNL     1      45.121   2.462   8.961  0.00  0.00    +0.000 A 
ATOM     21  C   UNL     1      46.126   1.924   8.157  0.00  0.00    +0.000 A 
ATOM     22  C   UNL     1      46.802   2.739   7.257  0.00  0.00    +0.000 A 
ATOM     23  C   UNL     1      46.441   4.076   7.230  0.00  0.00    +0.000 A 
ATOM     24  N   UNL     1      45.466   4.623   8.010  0.00  0.00    +0.000 NA
ATOM     25  H   UNL     1      43.775   5.381   9.387  0.00  0.00    +0.000 HD
BRANCH  22  26
ATOM     26  C   UNL     1      47.835   2.124   6.386  0.00  0.00    +0.000 C 
ATOM     27  N   UNL     1      48.258   2.793   5.269  0.00  0.00    +0.000 N 
ATOM     28  O   UNL     1      48.308   1.025   6.649  0.00  0.00    +0.000 OA
ATOM     29  H   UNL     1      47.903   3.675   4.937  0.00  0.00    +0.000 HD
ATOM     30  H   UNL     1      48.938   2.312   4.696  0.00  0.00    +0.000 HD
ENDBRANCH  22  26
ENDBRANCH  17  18
ENDBRANCH   1  17
TORSDOF 5
ENDMDL
MODEL 2
REMARK VINA RESULT:    -8.261      2.367      2.994
REMARK INTER + INTRA:         -11.539
REMARK INTER:                 -10.873
REMARK INTRA:                  -0.667
REMARK UNBOUND:                -0.863
REMARK  Name = 
REMARK  8 active torsions:
REMARK  status: ('A' for Active; 'I' for Inactive)
REMARK    1  A    between atoms: C_1  and  N_2
REMARK    2  A    between atoms: N_5  and  C_6
REMARK    3  A    between atoms: C_10  and  C_11
REMARK    4  A    between atoms: C_11  and  C_12
REMARK    5  A    between atoms: C_11  and  C_13
REMARK    6  A    between atoms: C_11  and  C_14
REMARK    7  A    between atoms: C_14  and  N_15
REMARK    8  A    between atoms: C_19  and  C_20
REMARK                            x       y       z     vdW  Elec       q    Type
REMARK                         _______ _______ _______ _____ _____    ______ ____
ROOT
ATOM      1  C   UNL     1      44.187   4.539  12.172  0.00  0.00    +0.000 C 
ATOM      2  C   UNL     1      45.364   3.550  12.354  0.00  0.00    +0.000 C 
ATOM      3  C   UNL     1      43.256   4.420  13.404  0.00  0.00    +0.000 C 
ENDROOT
BRANCH   1   8
ATOM      4  C   UNL     1      46.687   7.513  12.199  0.00  0.00    +0.000 A 
ATOM      5  C   UNL     1      45.868   8.520  11.680  0.00  0.00    +0.000 A 
ATOM      6  C   UNL     1      44.520   8.291  11.397  0.00  0.00    +0.000 A 
ATOM      7  C   UNL     1      43.970   7.023  11.581  0.00  0.00    +0.000 A 
ATOM      8  C   UNL     1      44.750   5.971  12.085  0.00  0.00    +0.000 A 
ATOM      9  C   UNL     1      46.076   6.275  12.447  0.00  0.00    +0.000 A 
BRANCH   4  14
ATOM     10  C   UNL     1      51.476   9.193  14.443  0.00  0.00    +0.000 C 
ATOM     11  N   UNL     1      50.622   8.500  13.484  0.00  0.00    +0.000 NA
ATOM     12  C   UNL     1      49.768   7.501  14.167  0.00  0.00    +0.000 C 
ATOM     13  C   UNL     1      48.835   6.739  13.194  0.00  0.00    +0.000 C 
ATOM     14  N   UNL     1      48.042   7.684  12.395  0.00  0.00    +0.000 N 
ATOM     15  C   UNL     1      48.824   8.749  11.746  0.00  0.00    +0.000 C 
ATOM     16  C   UNL     1      49.747   9.455  12.767  0.00  0.00    +0.000 C 
ENDBRANCH   4  14
ENDBRANCH   1   8
BRANCH   1  17
ATOM     17  C   UNL     1      43.391   4.056  10.911  0.00  0.00    +0.000 C 
BRANCH  17  18
ATOM     18  N   UNL     1      43.836   4.680   9.659  0.00  0.00    +0.000 N 
ATOM     19  C   UNL     1      44.830   4.038   8.932  0.00  0.00    +0.000 A 
ATOM     20  C   UNL     1      44.828   2.664   8.732  0.00  0.00    +0.000 A 
ATOM     21  C   UNL     1      45.803   2.082   7.922  0.00  0.00    +0.000 A 
ATOM     22  C   UNL     1      46.767   2.879   7.316  0.00  0.00    +0.000 A 
ATOM     23  C   UNL     1      46.710   4.238   7.580  0.00  0.00    +0.000 A 
ATOM     24  N   UNL     1      45.770   4.828   8.372  0.00  0.00    +0.000 NA
ATOM     25  H   UNL     1      44.094   5.663   9.721  0.00  0.00    +0.000 HD
BRANCH  22  26
ATOM     26  C   UNL     1      47.762   2.231   6.426  0.00  0.00    +0.000 C 
ATOM     27  N   UNL     1      48.137   2.858   5.268  0.00  0.00    +0.000 N 
ATOM     28  O   UNL     1      48.247   1.143   6.709  0.00  0.00    +0.000 OA
ATOM     29  H   UNL     1      47.767   3.726   4.918  0.00  0.00    +0.000 HD
ATOM     30  H   UNL     1      48.792   2.355   4.685  0.00  0.00    +0.000 HD
ENDBRANCH  22  26
ENDBRANCH  17  18
ENDBRANCH   1  17
TORSDOF 5
ENDMDL
MODEL 3
REMARK VINA RESULT:    -7.429      2.606      8.113
REMARK INTER + INTRA:         -10.463
REMARK INTER:                  -9.365
REMARK INTRA:                  -1.098
REMARK UNBOUND:                -0.863
REMARK  Name = 
REMARK  8 active torsions:
REMARK  status: ('A' for Active; 'I' for Inactive)
REMARK    1  A    between atoms: C_1  and  N_2
REMARK    2  A    between atoms: N_5  and  C_6
REMARK    3  A    between atoms: C_10  and  C_11
REMARK    4  A    between atoms: C_11  and  C_12
REMARK    5  A    between atoms: C_11  and  C_13
REMARK    6  A    between atoms: C_11  and  C_14
REMARK    7  A    between atoms: C_14  and  N_15
REMARK    8  A    between atoms: C_19  and  C_20
REMARK                            x       y       z     vdW  Elec       q    Type
REMARK                         _______ _______ _______ _____ _____    ______ ____
ROOT
ATOM      1  C   UNL     1      46.476   7.499  12.311  0.00  0.00    +0.000 C 
ATOM      2  C   UNL     1      47.800   7.335  11.525  0.00  0.00    +0.000 C 
ATOM      3  C   UNL     1      45.773   8.788  11.820  0.00  0.00    +0.000 C 
ENDROOT
BRANCH   1   8
ATOM      4  C   UNL     1      44.923   4.408  10.541  0.00  0.00    +0.000 A 
ATOM      5  C   UNL     1      44.144   3.900  11.584  0.00  0.00    +0.000 A 
ATOM      6  C   UNL     1      44.043   4.563  12.809  0.00  0.00    +0.000 A 
ATOM      7  C   UNL     1      44.766   5.733  13.035  0.00  0.00    +0.000 A 
ATOM      8  C   UNL     1      45.576   6.279  12.029  0.00  0.00    +0.000 A 
ATOM      9  C   UNL     1      45.570   5.630  10.780  0.00  0.00    +0.000 A 
BRANCH   4  14
ATOM     10  C   UNL     1      47.411   1.439   6.567  0.00  0.00    +0.000 C 
ATOM     11  N   UNL     1      46.316   2.165   7.203  0.00  0.00    +0.000 NA
ATOM     12  C   UNL     1      45.968   1.555   8.507  0.00  0.00    +0.000 C 
ATOM     13  C   UNL     1      44.814   2.293   9.230  0.00  0.00    +0.000 C 
ATOM     14  N   UNL     1      45.119   3.725   9.358  0.00  0.00    +0.000 N 
ATOM     15  C   UNL     1      45.544   4.379   8.109  0.00  0.00    +0.000 C 
ATOM     16  C   UNL     1      46.683   3.583   7.430  0.00  0.00    +0.000 C 
ENDBRANCH   4  14
ENDBRANCH   1   8
BRANCH   1  17
ATOM     17  C   UNL     1      46.874   7.702  13.814  0.00  0.00    +0.000 C 
BRANCH  17  18
ATOM     18  N   UNL     1      48.223   7.223  14.136  0.00  0.00    +0.000 N 
ATOM     19  C   UNL     1      48.350   6.258  15.127  0.00  0.00    +0.000 A 
ATOM     20  C   UNL     1      47.493   5.169  15.211  0.00  0.00    +0.000 A 
ATOM     21  C   UNL     1      47.717   4.184  16.173  0.00  0.00    +0.000 A 
ATOM     22  C   UNL     1      48.799   4.296  17.039  0.00  0.00    +0.000 A 
ATOM     23  C   UNL     1      49.597   5.421  16.901  0.00  0.00    +0.000 A 
ATOM     24  N   UNL     1      49.393   6.397  15.972  0.00  0.00    +0.000 NA
ATOM     25  H   UNL     1      48.916   7.944  14.326  0.00  0.00    +0.000 HD
BRANCH  22  26
ATOM     26  C   UNL     1      49.033   3.208  18.021  0.00  0.00    +0.000 C 
ATOM     27  N   UNL     1      48.447   3.279  19.256  0.00  0.00    +0.000 N 
ATOM     28  O   UNL     1      49.747   2.252  17.744  0.00  0.00    +0.000 OA
ATOM     29  H   UNL     1      47.884   4.039  19.601  0.00  0.00    +0.000 HD
ATOM     30  H   UNL     1      48.668   2.528  19.894  0.00  0.00    +0.000 HD
ENDBRANCH  22  26
ENDBRANCH  17  18
ENDBRANCH   1  17
TORSDOF 5
ENDMDL
MODEL 4
REMARK VINA RESULT:    -7.040      3.768      7.798
REMARK INTER + INTRA:          -9.960
REMARK INTER:                  -8.787
REMARK INTRA:                  -1.174
REMARK UNBOUND:                -0.863
REMARK  Name = 
REMARK  8 active torsions:
REMARK  status: ('A' for Active; 'I' for Inactive)
REMARK    1  A    between atoms: C_1  and  N_2
REMARK    2  A    between atoms: N_5  and  C_6
REMARK    3  A    between atoms: C_10  and  C_11
REMARK    4  A    between atoms: C_11  and  C_12
REMARK    5  A    between atoms: C_11  and  C_13
REMARK    6  A    between atoms: C_11  and  C_14
REMARK    7  A    between atoms: C_14  and  N_15
REMARK    8  A    between atoms: C_19  and  C_20
REMARK                            x       y       z     vdW  Elec       q    Type
REMARK                         _______ _______ _______ _____ _____    ______ ____
ROOT
ATOM      1  C   UNL     1      49.176   8.706  12.507  0.00  0.00    +0.000 C 
ATOM      2  C   UNL     1      49.726   7.380  11.926  0.00  0.00    +0.000 C 
ATOM      3  C   UNL     1      49.947   9.881  11.857  0.00  0.00    +0.000 C 
ENDROOT
BRANCH   1   8
ATOM      4  C   UNL     1      45.441   7.759  12.004  0.00  0.00    +0.000 A 
ATOM      5  C   UNL     1      44.897   9.030  11.797  0.00  0.00    +0.000 A 
ATOM      6  C   UNL     1      45.704  10.169  11.736  0.00  0.00    +0.000 A 
ATOM      7  C   UNL     1      47.079  10.064  11.934  0.00  0.00    +0.000 A 
ATOM      8  C   UNL     1      47.677   8.816  12.162  0.00  0.00    +0.000 A 
ATOM      9  C   UNL     1      46.838   7.687  12.118  0.00  0.00    +0.000 A 
BRANCH   4  14
ATOM     10  C   UNL     1      43.511   2.597  11.362  0.00  0.00    +0.000 C 
ATOM     11  N   UNL     1      43.558   3.944  11.921  0.00  0.00    +0.000 NA
ATOM     12  C   UNL     1      44.861   4.195  12.578  0.00  0.00    +0.000 C 
ATOM     13  C   UNL     1      44.967   5.617  13.183  0.00  0.00    +0.000 C 
ATOM     14  N   UNL     1      44.660   6.634  12.167  0.00  0.00    +0.000 N 
ATOM     15  C   UNL     1      43.411   6.403  11.423  0.00  0.00    +0.000 C 
ATOM     16  C   UNL     1      43.360   4.962  10.863  0.00  0.00    +0.000 C 
ENDBRANCH   4  14
ENDBRANCH   1   8
BRANCH   1  17
ATOM     17  C   UNL     1      49.510   8.692  14.039  0.00  0.00    +0.000 C 
BRANCH  17  18
ATOM     18  N   UNL     1      50.236   7.493  14.472  0.00  0.00    +0.000 N 
ATOM     19  C   UNL     1      49.572   6.595  15.297  0.00  0.00    +0.000 A 
ATOM     20  C   UNL     1      48.254   6.220  15.072  0.00  0.00    +0.000 A 
ATOM     21  C   UNL     1      47.663   5.250  15.880  0.00  0.00    +0.000 A 
ATOM     22  C   UNL     1      48.396   4.658  16.902  0.00  0.00    +0.000 A 
ATOM     23  C   UNL     1      49.699   5.099  17.072  0.00  0.00    +0.000 A 
ATOM     24  N   UNL     1      50.295   6.049  16.298  0.00  0.00    +0.000 NA
ATOM     25  H   UNL     1      51.156   7.655  14.880  0.00  0.00    +0.000 HD
BRANCH  22  26
ATOM     26  C   UNL     1      47.749   3.598  17.713  0.00  0.00    +0.000 C 
ATOM     27  N   UNL     1      48.339   3.188  18.879  0.00  0.00    +0.000 N 
ATOM     28  O   UNL     1      46.699   3.081  17.353  0.00  0.00    +0.000 OA
ATOM     29  H   UNL     1      49.221   3.511  19.241  0.00  0.00    +0.000 HD
ATOM     30  H   UNL     1      47.871   2.440  19.372  0.00  0.00    +0.000 HD
ENDBRANCH  22  26
ENDBRANCH  17  18
ENDBRANCH   1  17
TORSDOF 5
ENDMDL
MODEL 5
REMARK VINA RESULT:    -6.675      4.187      6.607
REMARK INTER + INTRA:          -9.489
REMARK INTER:                  -8.790
REMARK INTRA:                  -0.698
REMARK UNBOUND:                -0.863
REMARK  Name = 
REMARK  8 active torsions:
REMARK  status: ('A' for Active; 'I' for Inactive)
REMARK    1  A    between atoms: C_1  and  N_2
REMARK    2  A    between atoms: N_5  and  C_6
REMARK    3  A    between atoms: C_10  and  C_11
REMARK    4  A    between atoms: C_11  and  C_12
REMARK    5  A    between atoms: C_11  and  C_13
REMARK    6  A    between atoms: C_11  and  C_14
REMARK    7  A    between atoms: C_14  and  N_15
REMARK    8  A    between atoms: C_19  and  C_20
REMARK                            x       y       z     vdW  Elec       q    Type
REMARK                         _______ _______ _______ _____ _____    ______ ____
ROOT
ATOM      1  C   UNL     1      47.916   4.389  17.299  0.00  0.00    +0.000 C 
ATOM      2  C   UNL     1      47.605   2.876  17.414  0.00  0.00    +0.000 C 
ATOM      3  C   UNL     1      47.200   5.123  18.460  0.00  0.00    +0.000 C 
ENDROOT
BRANCH   1   8
ATOM      4  C   UNL     1      51.690   3.657  17.868  0.00  0.00    +0.000 A 
ATOM      5  C   UNL     1      52.240   4.852  17.394  0.00  0.00    +0.000 A 
ATOM      6  C   UNL     1      51.432   5.911  16.972  0.00  0.00    +0.000 A 
ATOM      7  C   UNL     1      50.045   5.776  16.968  0.00  0.00    +0.000 A 
ATOM      8  C   UNL     1      49.439   4.593  17.418  0.00  0.00    +0.000 A 
ATOM      9  C   UNL     1      50.289   3.592  17.924  0.00  0.00    +0.000 A 
BRANCH   4  14
ATOM     10  C   UNL     1      55.689  -0.181  17.633  0.00  0.00    +0.000 C 
ATOM     11  N   UNL     1      54.518   0.494  18.183  0.00  0.00    +0.000 NA
ATOM     12  C   UNL     1      54.831   1.903  18.514  0.00  0.00    +0.000 C 
ATOM     13  C   UNL     1      53.618   2.670  19.096  0.00  0.00    +0.000 C 
ATOM     14  N   UNL     1      52.461   2.562  18.196  0.00  0.00    +0.000 N 
ATOM     15  C   UNL     1      52.139   1.190  17.768  0.00  0.00    +0.000 C 
ATOM     16  C   UNL     1      53.396   0.475  17.217  0.00  0.00    +0.000 C 
ENDBRANCH   4  14
ENDBRANCH   1   8
BRANCH   1  17
ATOM     17  C   UNL     1      47.280   4.873  15.950  0.00  0.00    +0.000 C 
BRANCH  17  18
ATOM     18  N   UNL     1      47.250   3.838  14.909  0.00  0.00    +0.000 N 
ATOM     19  C   UNL     1      46.550   4.113  13.742  0.00  0.00    +0.000 A 
ATOM     20  C   UNL     1      46.637   5.342  13.101  0.00  0.00    +0.000 A 
ATOM     21  C   UNL     1      45.982   5.536  11.885  0.00  0.00    +0.000 A 
ATOM     22  C   UNL     1      45.251   4.498  11.319  0.00  0.00    +0.000 A 
ATOM     23  C   UNL     1      45.200   3.310  12.029  0.00  0.00    +0.000 A 
ATOM     24  N   UNL     1      45.828   3.100  13.220  0.00  0.00    +0.000 NA
ATOM     25  H   UNL     1      46.970   2.908  15.217  0.00  0.00    +0.000 HD
BRANCH  22  26
ATOM     26  C   UNL     1      44.603   4.726  10.003  0.00  0.00    +0.000 C 
ATOM     27  N   UNL     1      45.375   5.052   8.920  0.00  0.00    +0.000 N 
ATOM     28  O   UNL     1      43.389   4.633   9.874  0.00  0.00    +0.000 OA
ATOM     29  H   UNL     1      46.371   5.200   8.927  0.00  0.00    +0.000 HD
ATOM     30  H   UNL     1      44.877   5.228   8.059  0.00  0.00    +0.000 HD
ENDBRANCH  22  26
ENDBRANCH  17  18
ENDBRANCH   1  17
TORSDOF 5
ENDMDL
MODEL 6
REMARK VINA RESULT:    -6.469      3.206      5.578
REMARK INTER + INTRA:          -9.223
REMARK INTER:                  -8.091
REMARK INTRA:                  -1.132
REMARK UNBOUND:                -0.863
REMARK  Name = 
REMARK  8 active torsions:
REMARK  status: ('A' for Active; 'I' for Inactive)
REMARK    1  A    between atoms: C_1  and  N_2
REMARK    2  A    between atoms: N_5  and  C_6
REMARK    3  A    between atoms: C_10  and  C_11
REMARK    4  A    between atoms: C_11  and  C_12
REMARK    5  A    between atoms: C_11  and  C_13
REMARK    6  A    between atoms: C_11  and  C_14
REMARK    7  A    between atoms: C_14  and  N_15
REMARK    8  A    between atoms: C_19  and  C_20
REMARK                            x       y       z     vdW  Elec       q    Type
REMARK                         _______ _______ _______ _____ _____    ______ ____
ROOT
ATOM      1  C   UNL     1      49.326   8.262  13.925  0.00  0.00    +0.000 C 
ATOM      2  C   UNL     1      48.521   9.527  13.538  0.00  0.00    +0.000 C 
ATOM      3  C   UNL     1      50.834   8.595  13.827  0.00  0.00    +0.000 C 
ENDROOT
BRANCH   1   8
ATOM      4  C   UNL     1      49.057   6.221  17.220  0.00  0.00    +0.000 A 
ATOM      5  C   UNL     1      48.588   7.217  18.082  0.00  0.00    +0.000 A 
ATOM      6  C   UNL     1      48.282   8.499  17.619  0.00  0.00    +0.000 A 
ATOM      7  C   UNL     1      48.490   8.828  16.280  0.00  0.00    +0.000 A 
ATOM      8  C   UNL     1      48.974   7.872  15.374  0.00  0.00    +0.000 A 
ATOM      9  C   UNL     1      49.175   6.569  15.866  0.00  0.00    +0.000 A 
BRANCH   4  14
ATOM     10  C   UNL     1      51.566   1.274  17.360  0.00  0.00    +0.000 C 
ATOM     11  N   UNL     1      50.729   2.360  17.858  0.00  0.00    +0.000 NA
ATOM     12  C   UNL     1      51.508   3.614  17.972  0.00  0.00    +0.000 C 
ATOM     13  C   UNL     1      50.664   4.805  18.491  0.00  0.00    +0.000 C 
ATOM     14  N   UNL     1      49.459   4.979  17.667  0.00  0.00    +0.000 N 
ATOM     15  C   UNL     1      48.675   3.751  17.453  0.00  0.00    +0.000 C 
ATOM     16  C   UNL     1      49.580   2.600  16.955  0.00  0.00    +0.000 C 
ENDBRANCH   4  14
ENDBRANCH   1   8
BRANCH   1  17
ATOM     17  C   UNL     1      48.994   7.177  12.842  0.00  0.00    +0.000 C 
BRANCH  17  18
ATOM     18  N   UNL     1      47.710   7.393  12.165  0.00  0.00    +0.000 N 
ATOM     19  C   UNL     1      46.833   6.320  12.079  0.00  0.00    +0.000 A 
ATOM     20  C   UNL     1      46.597   5.472  13.153  0.00  0.00    +0.000 A 
ATOM     21  C   UNL     1      45.641   4.462  13.040  0.00  0.00    +0.000 A 
ATOM     22  C   UNL     1      44.928   4.313  11.856  0.00  0.00    +0.000 A 
ATOM     23  C   UNL     1      45.235   5.188  10.826  0.00  0.00    +0.000 A 
ATOM     24  N   UNL     1      46.168   6.179  10.914  0.00  0.00    +0.000 NA
ATOM     25  H   UNL     1      47.763   7.815  11.239  0.00  0.00    +0.000 HD
BRANCH  22  26
ATOM     26  C   UNL     1      43.889   3.256  11.786  0.00  0.00    +0.000 C 
ATOM     27  N   UNL     1      43.866   2.271  12.736  0.00  0.00    +0.000 N 
ATOM     28  O   UNL     1      43.056   3.250  10.887  0.00  0.00    +0.000 OA
ATOM     29  H   UNL     1      44.528   2.156  13.485  0.00  0.00    +0.000 HD
ATOM     30  H   UNL     1      43.157   1.560  12.619  0.00  0.00    +0.000 HD
ENDBRANCH  22  26
ENDBRANCH  17  18
ENDBRANCH   1  17
TORSDOF 5
ENDMDL
MODEL 7
REMARK VINA RESULT:    -6.459      2.977      6.281
REMARK INTER + INTRA:          -9.209
REMARK INTER:                  -8.001
REMARK INTRA:                  -1.209
REMARK UNBOUND:                -0.863
REMARK  Name = 
REMARK  8 active torsions:
REMARK  status: ('A' for Active; 'I' for Inactive)
REMARK    1  A    between atoms: C_1  and  N_2
REMARK    2  A    between atoms: N_5  and  C_6
REMARK    3  A    between atoms: C_10  and  C_11
REMARK    4  A    between atoms: C_11  and  C_12
REMARK    5  A    between atoms: C_11  and  C_13
REMARK    6  A    between atoms: C_11  and  C_14
REMARK    7  A    between atoms: C_14  and  N_15
REMARK    8  A    between atoms: C_19  and  C_20
REMARK                            x       y       z     vdW  Elec       q    Type
REMARK                         _______ _______ _______ _____ _____    ______ ____
ROOT
ATOM      1  C   UNL     1      48.448   4.524  17.211  0.00  0.00    +0.000 C 
ATOM      2  C   UNL     1      49.103   3.121  17.251  0.00  0.00    +0.000 C 
ATOM      3  C   UNL     1      48.053   4.918  18.656  0.00  0.00    +0.000 C 
ENDROOT
BRANCH   1   8
ATOM      4  C   UNL     1      49.951   7.610  15.390  0.00  0.00    +0.000 A 
ATOM      5  C   UNL     1      51.268   7.543  15.853  0.00  0.00    +0.000 A 
ATOM      6  C   UNL     1      51.704   6.495  16.667  0.00  0.00    +0.000 A 
ATOM      7  C   UNL     1      50.809   5.510  17.080  0.00  0.00    +0.000 A 
ATOM      8  C   UNL     1      49.471   5.535  16.659  0.00  0.00    +0.000 A 
ATOM      9  C   UNL     1      49.102   6.555  15.762  0.00  0.00    +0.000 A 
BRANCH   4  14
ATOM     10  C   UNL     1      48.558  10.806  11.073  0.00  0.00    +0.000 C 
ATOM     11  N   UNL     1      48.689  10.449  12.482  0.00  0.00    +0.000 NA
ATOM     12  C   UNL     1      47.947   9.203  12.780  0.00  0.00    +0.000 C 
ATOM     13  C   UNL     1      48.059   8.774  14.264  0.00  0.00    +0.000 C 
ATOM     14  N   UNL     1      49.469   8.682  14.669  0.00  0.00    +0.000 N 
ATOM     15  C   UNL     1      50.283   9.862  14.335  0.00  0.00    +0.000 C 
ATOM     16  C   UNL     1      50.111  10.248  12.847  0.00  0.00    +0.000 C 
ENDBRANCH   4  14
ENDBRANCH   1   8
BRANCH   1  17
ATOM     17  C   UNL     1      47.133   4.376  16.370  0.00  0.00    +0.000 C 
BRANCH  17  18
ATOM     18  N   UNL     1      47.299   3.569  15.155  0.00  0.00    +0.000 N 
ATOM     19  C   UNL     1      46.630   3.978  14.008  0.00  0.00    +0.000 A 
ATOM     20  C   UNL     1      46.582   5.309  13.617  0.00  0.00    +0.000 A 
ATOM     21  C   UNL     1      45.971   5.654  12.412  0.00  0.00    +0.000 A 
ATOM     22  C   UNL     1      45.419   4.664  11.606  0.00  0.00    +0.000 A 
ATOM     23  C   UNL     1      45.494   3.363  12.076  0.00  0.00    +0.000 A 
ATOM     24  N   UNL     1      46.082   3.004  13.253  0.00  0.00    +0.000 NA
ATOM     25  H   UNL     1      47.134   2.569  15.261  0.00  0.00    +0.000 HD
BRANCH  22  26
ATOM     26  C   UNL     1      44.816   5.062  10.310  0.00  0.00    +0.000 C 
ATOM     27  N   UNL     1      43.502   5.443  10.268  0.00  0.00    +0.000 N 
ATOM     28  O   UNL     1      45.476   5.049   9.278  0.00  0.00    +0.000 OA
ATOM     29  H   UNL     1      42.862   5.445  11.044  0.00  0.00    +0.000 HD
ATOM     30  H   UNL     1      43.137   5.672   9.354  0.00  0.00    +0.000 HD
ENDBRANCH  22  26
ENDBRANCH  17  18
ENDBRANCH   1  17
TORSDOF 5
ENDMDL
MODEL 8
REMARK VINA RESULT:    -6.377      3.509      8.235
REMARK INTER + INTRA:          -9.105
REMARK INTER:                  -7.794
REMARK INTRA:                  -1.310
REMARK UNBOUND:                -0.863
REMARK  Name = 
REMARK  8 active torsions:
REMARK  status: ('A' for Active; 'I' for Inactive)
REMARK    1  A    between atoms: C_1  and  N_2
REMARK    2  A    between atoms: N_5  and  C_6
REMARK    3  A    between atoms: C_10  and  C_11
REMARK    4  A    between atoms: C_11  and  C_12
REMARK    5  A    between atoms: C_11  and  C_13
REMARK    6  A    between atoms: C_11  and  C_14
REMARK    7  A    between atoms: C_14  and  N_15
REMARK    8  A    between atoms: C_19  and  C_20
REMARK                            x       y       z     vdW  Elec       q    Type
REMARK                         _______ _______ _______ _____ _____    ______ ____
ROOT
ATOM      1  C   UNL     1      49.396   9.183  16.798  0.00  0.00    +0.000 C 
ATOM      2  C   UNL     1      50.031  10.572  16.544  0.00  0.00    +0.000 C 
ATOM      3  C   UNL     1      47.943   9.394  17.290  0.00  0.00    +0.000 C 
ENDROOT
BRANCH   1   8
ATOM      4  C   UNL     1      48.215   6.872  13.906  0.00  0.00    +0.000 A 
ATOM      5  C   UNL     1      49.211   7.140  12.963  0.00  0.00    +0.000 A 
ATOM      6  C   UNL     1      50.289   7.978  13.257  0.00  0.00    +0.000 A 
ATOM      7  C   UNL     1      50.367   8.611  14.496  0.00  0.00    +0.000 A 
ATOM      8  C   UNL     1      49.386   8.391  15.476  0.00  0.00    +0.000 A 
ATOM      9  C   UNL     1      48.372   7.464  15.169  0.00  0.00    +0.000 A 
BRANCH   4  14
ATOM     10  C   UNL     1      44.844   3.277  11.356  0.00  0.00    +0.000 C 
ATOM     11  N   UNL     1      45.228   4.266  12.358  0.00  0.00    +0.000 NA
ATOM     12  C   UNL     1      46.394   3.796  13.141  0.00  0.00    +0.000 C 
ATOM     13  C   UNL     1      46.849   4.813  14.217  0.00  0.00    +0.000 C 
ATOM     14  N   UNL     1      47.090   6.130  13.611  0.00  0.00    +0.000 N 
ATOM     15  C   UNL     1      45.997   6.625  12.758  0.00  0.00    +0.000 C 
ATOM     16  C   UNL     1      45.578   5.556  11.721  0.00  0.00    +0.000 C 
ENDBRANCH   4  14
ENDBRANCH   1   8
BRANCH   1  17
ATOM     17  C   UNL     1      50.215   8.527  17.964  0.00  0.00    +0.000 C 
BRANCH  17  18
ATOM     18  N   UNL     1      49.504   7.437  18.642  0.00  0.00    +0.000 N 
ATOM     19  C   UNL     1      49.677   6.148  18.154  0.00  0.00    +0.000 A 
ATOM     20  C   UNL     1      50.923   5.660  17.782  0.00  0.00    +0.000 A 
ATOM     21  C   UNL     1      51.054   4.331  17.381  0.00  0.00    +0.000 A 
ATOM     22  C   UNL     1      49.939   3.500  17.361  0.00  0.00    +0.000 A 
ATOM     23  C   UNL     1      48.731   4.067  17.731  0.00  0.00    +0.000 A 
ATOM     24  N   UNL     1      48.579   5.364  18.122  0.00  0.00    +0.000 NA
ATOM     25  H   UNL     1      48.504   7.577  18.778  0.00  0.00    +0.000 HD
BRANCH  22  26
ATOM     26  C   UNL     1      50.123   2.080  16.972  0.00  0.00    +0.000 C 
ATOM     27  N   UNL     1      50.959   1.283  17.707  0.00  0.00    +0.000 N 
ATOM     28  O   UNL     1      49.543   1.613  15.999  0.00  0.00    +0.000 OA
ATOM     29  H   UNL     1      51.518   1.577  18.491  0.00  0.00    +0.000 HD
ATOM     30  H   UNL     1      51.071   0.335  17.376  0.00  0.00    +0.000 HD
ENDBRANCH  22  26
ENDBRANCH  17  18
ENDBRANCH   1  17
TORSDOF 5
ENDMDL
MODEL 9
REMARK VINA RESULT:    -6.166      3.031      5.111
REMARK INTER + INTRA:          -8.831
REMARK INTER:                  -8.086
REMARK INTRA:                  -0.745
REMARK UNBOUND:                -0.863
REMARK  Name = 
REMARK  8 active torsions:
REMARK  status: ('A' for Active; 'I' for Inactive)
REMARK    1  A    between atoms: C_1  and  N_2
REMARK    2  A    between atoms: N_5  and  C_6
REMARK    3  A    between atoms: C_10  and  C_11
REMARK    4  A    between atoms: C_11  and  C_12
REMARK    5  A    between atoms: C_11  and  C_13
REMARK    6  A    between atoms: C_11  and  C_14
REMARK    7  A    between atoms: C_14  and  N_15
REMARK    8  A    between atoms: C_19  and  C_20
REMARK                            x       y       z     vdW  Elec       q    Type
REMARK                         _______ _______ _______ _____ _____    ______ ____
ROOT
ATOM      1  C   UNL     1      48.816   8.470  12.822  0.00  0.00    +0.000 C 
ATOM      2  C   UNL     1      49.067   9.948  12.435  0.00  0.00    +0.000 C 
ATOM      3  C   UNL     1      49.081   7.588  11.577  0.00  0.00    +0.000 C 
ENDROOT
BRANCH   1   8
ATOM      4  C   UNL     1      50.277   6.746  15.983  0.00  0.00    +0.000 A 
ATOM      5  C   UNL     1      51.614   7.141  15.875  0.00  0.00    +0.000 A 
ATOM      6  C   UNL     1      52.041   8.005  14.864  0.00  0.00    +0.000 A 
ATOM      7  C   UNL     1      51.140   8.456  13.901  0.00  0.00    +0.000 A 
ATOM      8  C   UNL     1      49.789   8.079  13.951  0.00  0.00    +0.000 A 
ATOM      9  C   UNL     1      49.387   7.287  15.043  0.00  0.00    +0.000 A 
BRANCH   4  14
ATOM     10  C   UNL     1      48.722   4.523  20.823  0.00  0.00    +0.000 C 
ATOM     11  N   UNL     1      49.008   4.539  19.393  0.00  0.00    +0.000 NA
ATOM     12  C   UNL     1      48.152   5.526  18.696  0.00  0.00    +0.000 C 
ATOM     13  C   UNL     1      48.420   5.588  17.172  0.00  0.00    +0.000 C 
ATOM     14  N   UNL     1      49.848   5.818  16.909  0.00  0.00    +0.000 N 
ATOM     15  C   UNL     1      50.760   4.916  17.630  0.00  0.00    +0.000 C 
ATOM     16  C   UNL     1      50.426   4.885  19.140  0.00  0.00    +0.000 C 
ENDBRANCH   4  14
ENDBRANCH   1   8
BRANCH   1  17
ATOM     17  C   UNL     1      47.294   8.358  13.183  0.00  0.00    +0.000 C 
BRANCH  17  18
ATOM     18  N   UNL     1      46.434   8.074  12.028  0.00  0.00    +0.000 N 
ATOM     19  C   UNL     1      45.883   6.803  11.927  0.00  0.00    +0.000 A 
ATOM     20  C   UNL     1      45.337   6.145  13.021  0.00  0.00    +0.000 A 
ATOM     21  C   UNL     1      44.719   4.907  12.847  0.00  0.00    +0.000 A 
ATOM     22  C   UNL     1      44.649   4.340  11.580  0.00  0.00    +0.000 A 
ATOM     23  C   UNL     1      45.233   5.051  10.544  0.00  0.00    +0.000 A 
ATOM     24  N   UNL     1      45.845   6.260  10.692  0.00  0.00    +0.000 NA
ATOM     25  H   UNL     1      46.824   8.307  11.117  0.00  0.00    +0.000 HD
BRANCH  22  26
ATOM     26  C   UNL     1      43.946   3.043  11.424  0.00  0.00    +0.000 C 
ATOM     27  N   UNL     1      43.665   2.292  12.534  0.00  0.00    +0.000 N 
ATOM     28  O   UNL     1      43.619   2.632  10.317  0.00  0.00    +0.000 OA
ATOM     29  H   UNL     1      43.930   2.513  13.480  0.00  0.00    +0.000 HD
ATOM     30  H   UNL     1      43.215   1.403  12.364  0.00  0.00    +0.000 HD
ENDBRANCH  22  26
ENDBRANCH  17  18
ENDBRANCH   1  17
TORSDOF 5
ENDMDL
