MODEL 1
REMARK VINA RESULT:    -8.290      0.000      0.000
REMARK INTER + INTRA:         -12.719
REMARK INTER:                 -11.683
REMARK INTRA:                  -1.036
REMARK UNBOUND:                -1.036
REMARK  Name = 
REMARK  8 active torsions:
REMARK  status: ('A' for Active; 'I' for Inactive)
REMARK    1  A    between atoms: C_1  and  O_2
REMARK    2  A    between atoms: O_2  and  C_3
REMARK    3  A    between atoms: C_10  and  C_11
REMARK    4  A    between atoms: N_13  and  C_14
REMARK    5  A    between atoms: C_14  and  C_15
REMARK    6  A    between atoms: C_18  and  C_19
REMARK    7  A    between atoms: C_19  and  C_20
REMARK    8  A    between atoms: C_20  and  N_21
REMARK                            x       y       z     vdW  Elec       q    Type
REMARK                         _______ _______ _______ _____ _____    ______ ____
ROOT
ATOM      1  C   UNL     1      48.025   7.223  13.395  0.00  0.00    +0.000 C 
ENDROOT
BRANCH   1   2
ATOM      2  C   UNL     1      47.052   6.215  12.840  0.00  0.00    +0.000 A 
ATOM      3  C   UNL     1      46.753   5.054  13.558  0.00  0.00    +0.000 A 
ATOM      4  C   UNL     1      45.808   4.140  13.079  0.00  0.00    +0.000 A 
ATOM      5  C   UNL     1      45.145   4.351  11.859  0.00  0.00    +0.000 A 
ATOM      6  C   UNL     1      45.491   5.489  11.116  0.00  0.00    +0.000 A 
ATOM      7  C   UNL     1      46.437   6.406  11.595  0.00  0.00    +0.000 A 
BRANCH   5   8
ATOM      8  C   UNL     1      44.059   3.423  11.333  0.00  0.00    +0.000 C 
BRANCH   8   9
ATOM      9  C   UNL     1      44.113   3.162   9.822  0.00  0.00    +0.000 C 
BRANCH   9  10
ATOM     10  N   UNL     1      44.847   1.938   9.482  0.00  0.00    +0.000 N 
ATOM     11  C   UNL     1      45.744   2.158   8.408  0.00  0.00    +0.000 A 
ATOM     12  C   UNL     1      46.519   1.092   7.954  0.00  0.00    +0.000 A 
ATOM     13  C   UNL     1      47.416   1.294   6.905  0.00  0.00    +0.000 A 
ATOM     14  C   UNL     1      47.523   2.553   6.333  0.00  0.00    +0.000 A 
ATOM     15  C   UNL     1      46.729   3.561   6.842  0.00  0.00    +0.000 A 
ATOM     16  N   UNL     1      45.857   3.387   7.860  0.00  0.00    +0.000 NA
ATOM     17  H   UNL     1      44.229   1.173   9.225  0.00  0.00    +0.000 HD
ENDBRANCH   9  10
ENDBRANCH   8   9
ENDBRANCH   5   8
ENDBRANCH   1   2
BRANCH   1  20
ATOM     18  C   UNL     1      49.057   7.024  15.620  0.00  0.00    +0.000 C 
ATOM     19  O   UNL     1      50.145   6.728  15.129  0.00  0.00    +0.000 OA
ATOM     20  N   UNL     1      47.967   7.279  14.833  0.00  0.00    +0.000 N 
ATOM     21  H   UNL     1      47.077   7.501  15.253  0.00  0.00    +0.000 HD
BRANCH  18  29
ATOM     22  C   UNL     1      48.941   4.670  18.128  0.00  0.00    +0.000 A 
ATOM     23  N   UNL     1      48.890   3.976  19.282  0.00  0.00    +0.000 NA
ATOM     24  C   UNL     1      48.715   4.660  20.416  0.00  0.00    +0.000 A 
ATOM     25  N   UNL     1      48.580   5.978  20.546  0.00  0.00    +0.000 NA
ATOM     26  C   UNL     1      48.651   6.631  19.373  0.00  0.00    +0.000 A 
ATOM     27  S   UNL     1      48.493   8.321  19.343  0.00  0.00    +0.000 S 
ATOM     28  C   UNL     1      48.684   8.360  17.655  0.00  0.00    +0.000 A 
ATOM     29  C   UNL     1      48.873   7.108  17.079  0.00  0.00    +0.000 A 
ATOM     30  C   UNL     1      48.840   6.073  18.112  0.00  0.00    +0.000 A 
BRANCH  22  32
ATOM     31  C   UNL     1      48.210   2.898  16.783  0.00  0.00    +0.000 C 
ATOM     32  O   UNL     1      49.133   3.969  16.957  0.00  0.00    +0.000 OA
ENDBRANCH  22  32
ENDBRANCH  18  29
ENDBRANCH   1  20
TORSDOF 7
ENDMDL
MODEL 2
REMARK VINA RESULT:    -7.618      1.522      2.604
REMARK INTER + INTRA:         -11.771
REMARK INTER:                 -10.716
REMARK INTRA:                  -1.055
REMARK UNBOUND:                -1.036
REMARK  Name = 
REMARK  8 active torsions:
REMARK  status: ('A' for Active; 'I' for Inactive)
REMARK    1  A    between atoms: C_1  and  O_2
REMARK    2  A    between atoms: O_2  and  C_3
REMARK    3  A    between atoms: C_10  and  C_11
REMARK    4  A    between atoms: N_13  and  C_14
REMARK    5  A    between atoms: C_14  and  C_15
REMARK    6  A    between atoms: C_18  and  C_19
REMARK    7  A    between atoms: C_19  and  C_20
REMARK    8  A    between atoms: C_20  and  N_21
REMARK                            x       y       z     vdW  Elec       q    Type
REMARK                         _______ _______ _______ _____ _____    ______ ____
ROOT
ATOM      1  C   UNL     1      48.258   6.922  13.945  0.00  0.00    +0.000 C 
ENDROOT
BRANCH   1   2
ATOM      2  C   UNL     1      47.044   6.394  13.224  0.00  0.00    +0.000 A 
ATOM      3  C   UNL     1      46.222   7.261  12.498  0.00  0.00    +0.000 A 
ATOM      4  C   UNL     1      45.127   6.773  11.778  0.00  0.00    +0.000 A 
ATOM      5  C   UNL     1      44.810   5.405  11.774  0.00  0.00    +0.000 A 
ATOM      6  C   UNL     1      45.604   4.548  12.550  0.00  0.00    +0.000 A 
ATOM      7  C   UNL     1      46.703   5.036  13.271  0.00  0.00    +0.000 A 
BRANCH   5   8
ATOM      8  C   UNL     1      43.672   4.818  10.949  0.00  0.00    +0.000 C 
BRANCH   8   9
ATOM      9  C   UNL     1      44.070   4.359   9.540  0.00  0.00    +0.000 C 
BRANCH   9  10
ATOM     10  N   UNL     1      44.543   2.971   9.507  0.00  0.00    +0.000 N 
ATOM     11  C   UNL     1      45.497   2.777   8.478  0.00  0.00    +0.000 A 
ATOM     12  C   UNL     1      46.046   1.507   8.304  0.00  0.00    +0.000 A 
ATOM     13  C   UNL     1      46.995   1.303   7.303  0.00  0.00    +0.000 A 
ATOM     14  C   UNL     1      47.379   2.366   6.499  0.00  0.00    +0.000 A 
ATOM     15  C   UNL     1      46.798   3.595   6.737  0.00  0.00    +0.000 A 
ATOM     16  N   UNL     1      45.879   3.815   7.703  0.00  0.00    +0.000 NA
ATOM     17  H   UNL     1      43.787   2.306   9.365  0.00  0.00    +0.000 HD
ENDBRANCH   9  10
ENDBRANCH   8   9
ENDBRANCH   5   8
ENDBRANCH   1   2
BRANCH   1  20
ATOM     18  C   UNL     1      49.249   6.514  16.160  0.00  0.00    +0.000 C 
ATOM     19  O   UNL     1      50.382   6.470  15.684  0.00  0.00    +0.000 OA
ATOM     20  N   UNL     1      48.154   6.731  15.368  0.00  0.00    +0.000 N 
ATOM     21  H   UNL     1      47.229   6.746  15.772  0.00  0.00    +0.000 HD
BRANCH  18  29
ATOM     22  C   UNL     1      47.845   8.493  18.599  0.00  0.00    +0.000 A 
ATOM     23  N   UNL     1      47.325   9.036  19.718  0.00  0.00    +0.000 NA
ATOM     24  C   UNL     1      47.376   8.318  20.843  0.00  0.00    +0.000 A 
ATOM     25  N   UNL     1      47.894   7.102  20.997  0.00  0.00    +0.000 NA
ATOM     26  C   UNL     1      48.388   6.593  19.854  0.00  0.00    +0.000 A 
ATOM     27  S   UNL     1      49.095   5.050  19.860  0.00  0.00    +0.000 S 
ATOM     28  C   UNL     1      49.429   5.142  18.197  0.00  0.00    +0.000 A 
ATOM     29  C   UNL     1      49.016   6.329  17.602  0.00  0.00    +0.000 A 
ATOM     30  C   UNL     1      48.402   7.202  18.603  0.00  0.00    +0.000 A 
BRANCH  22  32
ATOM     31  C   UNL     1      48.842  10.171  17.306  0.00  0.00    +0.000 C 
ATOM     32  O   UNL     1      47.784   9.226  17.433  0.00  0.00    +0.000 OA
ENDBRANCH  22  32
ENDBRANCH  18  29
ENDBRANCH   1  20
TORSDOF 7
ENDMDL
MODEL 3
REMARK VINA RESULT:    -7.502      1.630      3.121
REMARK INTER + INTRA:         -11.607
REMARK INTER:                 -10.375
REMARK INTRA:                  -1.233
REMARK UNBOUND:                -1.036
REMARK  Name = 
REMARK  8 active torsions:
REMARK  status: ('A' for Active; 'I' for Inactive)
REMARK    1  A    between atoms: C_1  and  O_2
REMARK    2  A    between atoms: O_2  and  C_3
REMARK    3  A    between atoms: C_10  and  C_11
REMARK    4  A    between atoms: N_13  and  C_14
REMARK    5  A    between atoms: C_14  and  C_15
REMARK    6  A    between atoms: C_18  and  C_19
REMARK    7  A    between atoms: C_19  and  C_20
REMARK    8  A    between atoms: C_20  and  N_21
REMARK                            x       y       z     vdW  Elec       q    Type
REMARK                         _______ _______ _______ _____ _____    ______ ____
ROOT
ATOM      1  C   UNL     1      47.587   4.023  15.106  0.00  0.00    +0.000 C 
ENDROOT
BRANCH   1   2
ATOM      2  C   UNL     1      46.618   4.303  13.987  0.00  0.00    +0.000 A 
ATOM      3  C   UNL     1      46.254   5.618  13.681  0.00  0.00    +0.000 A 
ATOM      4  C   UNL     1      45.402   5.894  12.608  0.00  0.00    +0.000 A 
ATOM      5  C   UNL     1      44.873   4.862  11.815  0.00  0.00    +0.000 A 
ATOM      6  C   UNL     1      45.196   3.542  12.161  0.00  0.00    +0.000 A 
ATOM      7  C   UNL     1      46.051   3.265  13.236  0.00  0.00    +0.000 A 
BRANCH   5   8
ATOM      8  C   UNL     1      43.999   5.117  10.594  0.00  0.00    +0.000 C 
BRANCH   8   9
ATOM      9  C   UNL     1      44.106   4.053   9.493  0.00  0.00    +0.000 C 
BRANCH   9  10
ATOM     10  N   UNL     1      44.992   4.457   8.396  0.00  0.00    +0.000 N 
ATOM     11  C   UNL     1      45.783   3.370   7.948  0.00  0.00    +0.000 A 
ATOM     12  C   UNL     1      46.688   3.585   6.909  0.00  0.00    +0.000 A 
ATOM     13  C   UNL     1      47.465   2.523   6.447  0.00  0.00    +0.000 A 
ATOM     14  C   UNL     1      47.324   1.271   7.028  0.00  0.00    +0.000 A 
ATOM     15  C   UNL     1      46.401   1.135   8.046  0.00  0.00    +0.000 A 
ATOM     16  N   UNL     1      45.636   2.149   8.506  0.00  0.00    +0.000 NA
ATOM     17  H   UNL     1      45.618   5.213   8.660  0.00  0.00    +0.000 HD
ENDBRANCH   9  10
ENDBRANCH   8   9
ENDBRANCH   5   8
ENDBRANCH   1   2
BRANCH   1  20
ATOM     18  C   UNL     1      48.723   5.272  16.897  0.00  0.00    +0.000 C 
ATOM     19  O   UNL     1      49.620   4.433  16.961  0.00  0.00    +0.000 OA
ATOM     20  N   UNL     1      47.688   5.138  16.012  0.00  0.00    +0.000 N 
ATOM     21  H   UNL     1      46.949   5.826  15.985  0.00  0.00    +0.000 HD
BRANCH  18  29
ATOM     22  C   UNL     1      48.614   8.658  16.297  0.00  0.00    +0.000 A 
ATOM     23  N   UNL     1      48.546  10.003  16.346  0.00  0.00    +0.000 NA
ATOM     24  C   UNL     1      48.546  10.586  17.548  0.00  0.00    +0.000 A 
ATOM     25  N   UNL     1      48.609   9.983  18.733  0.00  0.00    +0.000 NA
ATOM     26  C   UNL     1      48.661   8.642  18.638  0.00  0.00    +0.000 A 
ATOM     27  S   UNL     1      48.752   7.704  20.050  0.00  0.00    +0.000 S 
ATOM     28  C   UNL     1      48.777   6.263  19.150  0.00  0.00    +0.000 A 
ATOM     29  C   UNL     1      48.715   6.454  17.774  0.00  0.00    +0.000 A 
ATOM     30  C   UNL     1      48.658   7.885  17.471  0.00  0.00    +0.000 A 
BRANCH  22  32
ATOM     31  C   UNL     1      49.900   7.908  14.490  0.00  0.00    +0.000 C 
ATOM     32  O   UNL     1      48.603   8.052  15.059  0.00  0.00    +0.000 OA
ENDBRANCH  22  32
ENDBRANCH  18  29
ENDBRANCH   1  20
TORSDOF 7
ENDMDL
MODEL 4
REMARK VINA RESULT:    -7.283      1.582      2.125
REMARK INTER + INTRA:         -11.299
REMARK INTER:                 -10.402
REMARK INTRA:                  -0.897
REMARK UNBOUND:                -1.036
REMARK  Name = 
REMARK  8 active torsions:
REMARK  status: ('A' for Active; 'I' for Inactive)
REMARK    1  A    between atoms: C_1  and  O_2
REMARK    2  A    between atoms: O_2  and  C_3
REMARK    3  A    between atoms: C_10  and  C_11
REMARK    4  A    between atoms: N_13  and  C_14
REMARK    5  A    between atoms: C_14  and  C_15
REMARK    6  A    between atoms: C_18  and  C_19
REMARK    7  A    between atoms: C_19  and  C_20
REMARK    8  A    between atoms: C_20  and  N_21
REMARK                            x       y       z     vdW  Elec       q    Type
REMARK                         _______ _______ _______ _____ _____    ______ ____
ROOT
ATOM      1  C   UNL     1      47.729   8.914  13.813  0.00  0.00    +0.000 C 
ENDROOT
BRANCH   1   2
ATOM      2  C   UNL     1      46.788   8.029  13.037  0.00  0.00    +0.000 A 
ATOM      3  C   UNL     1      47.017   6.652  12.959  0.00  0.00    +0.000 A 
ATOM      4  C   UNL     1      46.120   5.814  12.291  0.00  0.00    +0.000 A 
ATOM      5  C   UNL     1      44.971   6.328  11.666  0.00  0.00    +0.000 A 
ATOM      6  C   UNL     1      44.777   7.717  11.698  0.00  0.00    +0.000 A 
ATOM      7  C   UNL     1      45.676   8.558  12.369  0.00  0.00    +0.000 A 
BRANCH   5   8
ATOM      8  C   UNL     1      43.930   5.448  10.989  0.00  0.00    +0.000 C 
BRANCH   8   9
ATOM      9  C   UNL     1      44.504   4.276  10.183  0.00  0.00    +0.000 C 
BRANCH   9  10
ATOM     10  N   UNL     1      45.182   4.707   8.956  0.00  0.00    +0.000 N 
ATOM     11  C   UNL     1      45.785   3.612   8.289  0.00  0.00    +0.000 A 
ATOM     12  C   UNL     1      46.479   3.850   7.103  0.00  0.00    +0.000 A 
ATOM     13  C   UNL     1      47.069   2.781   6.429  0.00  0.00    +0.000 A 
ATOM     14  C   UNL     1      46.954   1.500   6.948  0.00  0.00    +0.000 A 
ATOM     15  C   UNL     1      46.244   1.343   8.121  0.00  0.00    +0.000 A 
ATOM     16  N   UNL     1      45.663   2.363   8.788  0.00  0.00    +0.000 NA
ATOM     17  H   UNL     1      45.902   5.403   9.133  0.00  0.00    +0.000 HD
ENDBRANCH   9  10
ENDBRANCH   8   9
ENDBRANCH   5   8
ENDBRANCH   1   2
BRANCH   1  20
ATOM     18  C   UNL     1      48.430   9.172  16.158  0.00  0.00    +0.000 C 
ATOM     19  O   UNL     1      49.549   9.554  15.819  0.00  0.00    +0.000 OA
ATOM     20  N   UNL     1      47.482   8.837  15.230  0.00  0.00    +0.000 N 
ATOM     21  H   UNL     1      46.575   8.508  15.525  0.00  0.00    +0.000 HD
BRANCH  18  29
ATOM     22  C   UNL     1      48.223   6.507  18.324  0.00  0.00    +0.000 A 
ATOM     23  N   UNL     1      48.094   5.664  19.368  0.00  0.00    +0.000 NA
ATOM     24  C   UNL     1      47.717   6.178  20.542  0.00  0.00    +0.000 A 
ATOM     25  N   UNL     1      47.445   7.452  20.811  0.00  0.00    +0.000 NA
ATOM     26  C   UNL     1      47.601   8.259  19.746  0.00  0.00    +0.000 A 
ATOM     27  S   UNL     1      47.292   9.921  19.901  0.00  0.00    +0.000 S 
ATOM     28  C   UNL     1      47.686  10.196  18.271  0.00  0.00    +0.000 A 
ATOM     29  C   UNL     1      48.060   9.050  17.578  0.00  0.00    +0.000 A 
ATOM     30  C   UNL     1      47.995   7.887  18.465  0.00  0.00    +0.000 A 
BRANCH  22  32
ATOM     31  C   UNL     1      50.036   5.873  16.985  0.00  0.00    +0.000 C 
ATOM     32  O   UNL     1      48.622   5.982  17.113  0.00  0.00    +0.000 OA
ENDBRANCH  22  32
ENDBRANCH  18  29
ENDBRANCH   1  20
TORSDOF 7
ENDMDL
MODEL 5
REMARK VINA RESULT:    -7.263      4.688      9.301
REMARK INTER + INTRA:         -11.271
REMARK INTER:                 -10.467
REMARK INTRA:                  -0.804
REMARK UNBOUND:                -1.036
REMARK  Name = 
REMARK  8 active torsions:
REMARK  status: ('A' for Active; 'I' for Inactive)
REMARK    1  A    between atoms: C_1  and  O_2
REMARK    2  A    between atoms: O_2  and  C_3
REMARK    3  A    between atoms: C_10  and  C_11
REMARK    4  A    between atoms: N_13  and  C_14
REMARK    5  A    between atoms: C_14  and  C_15
REMARK    6  A    between atoms: C_18  and  C_19
REMARK    7  A    between atoms: C_19  and  C_20
REMARK    8  A    between atoms: C_20  and  N_21
REMARK                            x       y       z     vdW  Elec       q    Type
REMARK                         _______ _______ _______ _____ _____    ______ ____
ROOT
ATOM      1  C   UNL     1      47.198   3.385  16.857  0.00  0.00    +0.000 C 
ENDROOT
BRANCH   1   2
ATOM      2  C   UNL     1      48.685   3.364  17.096  0.00  0.00    +0.000 A 
ATOM      3  C   UNL     1      49.360   4.536  17.452  0.00  0.00    +0.000 A 
ATOM      4  C   UNL     1      50.729   4.517  17.733  0.00  0.00    +0.000 A 
ATOM      5  C   UNL     1      51.472   3.327  17.652  0.00  0.00    +0.000 A 
ATOM      6  C   UNL     1      50.802   2.166  17.239  0.00  0.00    +0.000 A 
ATOM      7  C   UNL     1      49.429   2.184  16.959  0.00  0.00    +0.000 A 
BRANCH   5   8
ATOM      8  C   UNL     1      52.948   3.243  18.017  0.00  0.00    +0.000 C 
BRANCH   8   9
ATOM      9  C   UNL     1      53.438   1.838  18.392  0.00  0.00    +0.000 C 
BRANCH   9  10
ATOM     10  N   UNL     1      54.125   1.161  17.287  0.00  0.00    +0.000 N 
ATOM     11  C   UNL     1      54.339  -0.209  17.575  0.00  0.00    +0.000 A 
ATOM     12  C   UNL     1      54.988  -1.000  16.629  0.00  0.00    +0.000 A 
ATOM     13  C   UNL     1      55.195  -2.353  16.892  0.00  0.00    +0.000 A 
ATOM     14  C   UNL     1      54.750  -2.890  18.091  0.00  0.00    +0.000 A 
ATOM     15  C   UNL     1      54.108  -2.047  18.975  0.00  0.00    +0.000 A 
ATOM     16  N   UNL     1      53.894  -0.734  18.738  0.00  0.00    +0.000 NA
ATOM     17  H   UNL     1      55.026   1.582  17.074  0.00  0.00    +0.000 HD
ENDBRANCH   9  10
ENDBRANCH   8   9
ENDBRANCH   5   8
ENDBRANCH   1   2
BRANCH   1  20
ATOM     18  C   UNL     1      46.870   4.209  14.562  0.00  0.00    +0.000 C 
ATOM     19  O   UNL     1      47.236   3.135  14.087  0.00  0.00    +0.000 OA
ATOM     20  N   UNL     1      46.827   4.409  15.915  0.00  0.00    +0.000 N 
ATOM     21  H   UNL     1      46.543   5.303  16.288  0.00  0.00    +0.000 HD
BRANCH  18  29
ATOM     22  C   UNL     1      44.102   4.821  12.612  0.00  0.00    +0.000 A 
ATOM     23  N   UNL     1      43.136   5.318  11.815  0.00  0.00    +0.000 NA
ATOM     24  C   UNL     1      43.332   6.524  11.273  0.00  0.00    +0.000 A 
ATOM     25  N   UNL     1      44.393   7.311  11.428  0.00  0.00    +0.000 NA
ATOM     26  C   UNL     1      45.324   6.783  12.242  0.00  0.00    +0.000 A 
ATOM     27  S   UNL     1      46.753   7.646  12.553  0.00  0.00    +0.000 S 
ATOM     28  C   UNL     1      47.335   6.414  13.569  0.00  0.00    +0.000 A 
ATOM     29  C   UNL     1      46.470   5.333  13.698  0.00  0.00    +0.000 A 
ATOM     30  C   UNL     1      45.270   5.553  12.891  0.00  0.00    +0.000 A 
BRANCH  22  32
ATOM     31  C   UNL     1      43.536   2.581  12.238  0.00  0.00    +0.000 C 
ATOM     32  O   UNL     1      43.899   3.582  13.182  0.00  0.00    +0.000 OA
ENDBRANCH  22  32
ENDBRANCH  18  29
ENDBRANCH   1  20
TORSDOF 7
ENDMDL
MODEL 6
REMARK VINA RESULT:    -7.258      2.051      2.358
REMARK INTER + INTRA:         -11.265
REMARK INTER:                 -10.303
REMARK INTRA:                  -0.962
REMARK UNBOUND:                -1.036
REMARK  Name = 
REMARK  8 active torsions:
REMARK  status: ('A' for Active; 'I' for Inactive)
REMARK    1  A    between atoms: C_1  and  O_2
REMARK    2  A    between atoms: O_2  and  C_3
REMARK    3  A    between atoms: C_10  and  C_11
REMARK    4  A    between atoms: N_13  and  C_14
REMARK    5  A    between atoms: C_14  and  C_15
REMARK    6  A    between atoms: C_18  and  C_19
REMARK    7  A    between atoms: C_19  and  C_20
REMARK    8  A    between atoms: C_20  and  N_21
REMARK                            x       y       z     vdW  Elec       q    Type
REMARK                         _______ _______ _______ _____ _____    ______ ____
ROOT
ATOM      1  C   UNL     1      47.291   8.292  13.260  0.00  0.00    +0.000 C 
ENDROOT
BRANCH   1   2
ATOM      2  C   UNL     1      46.507   7.097  12.783  0.00  0.00    +0.000 A 
ATOM      3  C   UNL     1      46.734   5.835  13.341  0.00  0.00    +0.000 A 
ATOM      4  C   UNL     1      45.972   4.731  12.947  0.00  0.00    +0.000 A 
ATOM      5  C   UNL     1      44.970   4.850  11.970  0.00  0.00    +0.000 A 
ATOM      6  C   UNL     1      44.786   6.105  11.372  0.00  0.00    +0.000 A 
ATOM      7  C   UNL     1      45.548   7.213  11.768  0.00  0.00    +0.000 A 
BRANCH   5   8
ATOM      8  C   UNL     1      44.068   3.693  11.561  0.00  0.00    +0.000 C 
BRANCH   8   9
ATOM      9  C   UNL     1      44.024   3.415  10.052  0.00  0.00    +0.000 C 
BRANCH   9  10
ATOM     10  N   UNL     1      44.648   2.137   9.691  0.00  0.00    +0.000 N 
ATOM     11  C   UNL     1      45.583   2.300   8.639  0.00  0.00    +0.000 A 
ATOM     12  C   UNL     1      46.263   1.178   8.168  0.00  0.00    +0.000 A 
ATOM     13  C   UNL     1      47.196   1.323   7.142  0.00  0.00    +0.000 A 
ATOM     14  C   UNL     1      47.432   2.581   6.608  0.00  0.00    +0.000 A 
ATOM     15  C   UNL     1      46.726   3.645   7.131  0.00  0.00    +0.000 A 
ATOM     16  N   UNL     1      45.821   3.527   8.128  0.00  0.00    +0.000 NA
ATOM     17  H   UNL     1      43.966   1.441   9.401  0.00  0.00    +0.000 HD
ENDBRANCH   9  10
ENDBRANCH   8   9
ENDBRANCH   5   8
ENDBRANCH   1   2
BRANCH   1  20
ATOM     18  C   UNL     1      48.978   8.203  15.049  0.00  0.00    +0.000 C 
ATOM     19  O   UNL     1      48.244   8.817  15.821  0.00  0.00    +0.000 OA
ATOM     20  N   UNL     1      48.581   7.910  13.773  0.00  0.00    +0.000 N 
ATOM     21  H   UNL     1      49.204   7.421  13.146  0.00  0.00    +0.000 HD
BRANCH  18  29
ATOM     22  C   UNL     1      50.127   5.566  16.938  0.00  0.00    +0.000 A 
ATOM     23  N   UNL     1      50.833   4.626  17.596  0.00  0.00    +0.000 NA
ATOM     24  C   UNL     1      52.164   4.737  17.606  0.00  0.00    +0.000 A 
ATOM     25  N   UNL     1      52.895   5.691  17.032  0.00  0.00    +0.000 NA
ATOM     26  C   UNL     1      52.151   6.599  16.376  0.00  0.00    +0.000 A 
ATOM     27  S   UNL     1      52.912   7.894  15.586  0.00  0.00    +0.000 S 
ATOM     28  C   UNL     1      51.421   8.513  15.057  0.00  0.00    +0.000 A 
ATOM     29  C   UNL     1      50.323   7.762  15.458  0.00  0.00    +0.000 A 
ATOM     30  C   UNL     1      50.764   6.620  16.260  0.00  0.00    +0.000 A 
BRANCH  22  32
ATOM     31  C   UNL     1      48.304   4.097  16.943  0.00  0.00    +0.000 C 
ATOM     32  O   UNL     1      48.753   5.448  16.916  0.00  0.00    +0.000 OA
ENDBRANCH  22  32
ENDBRANCH  18  29
ENDBRANCH   1  20
TORSDOF 7
ENDMDL
MODEL 7
REMARK VINA RESULT:    -6.920      1.893      2.760
REMARK INTER + INTRA:         -10.788
REMARK INTER:                  -9.896
REMARK INTRA:                  -0.893
REMARK UNBOUND:                -1.036
REMARK  Name = 
REMARK  8 active torsions:
REMARK  status: ('A' for Active; 'I' for Inactive)
REMARK    1  A    between atoms: C_1  and  O_2
REMARK    2  A    between atoms: O_2  and  C_3
REMARK    3  A    between atoms: C_10  and  C_11
REMARK    4  A    between atoms: N_13  and  C_14
REMARK    5  A    between atoms: C_14  and  C_15
REMARK    6  A    between atoms: C_18  and  C_19
REMARK    7  A    between atoms: C_19  and  C_20
REMARK    8  A    between atoms: C_20  and  N_21
REMARK                            x       y       z     vdW  Elec       q    Type
REMARK                         _______ _______ _______ _____ _____    ______ ____
ROOT
ATOM      1  C   UNL     1      47.022   8.356  13.182  0.00  0.00    +0.000 C 
ENDROOT
BRANCH   1   2
ATOM      2  C   UNL     1      46.194   7.292  12.508  0.00  0.00    +0.000 A 
ATOM      3  C   UNL     1      45.036   6.805  13.122  0.00  0.00    +0.000 A 
ATOM      4  C   UNL     1      44.230   5.860  12.481  0.00  0.00    +0.000 A 
ATOM      5  C   UNL     1      44.563   5.360  11.211  0.00  0.00    +0.000 A 
ATOM      6  C   UNL     1      45.756   5.809  10.625  0.00  0.00    +0.000 A 
ATOM      7  C   UNL     1      46.565   6.757  11.267  0.00  0.00    +0.000 A 
BRANCH   5   8
ATOM      8  C   UNL     1      43.680   4.385  10.444  0.00  0.00    +0.000 C 
BRANCH   8   9
ATOM      9  C   UNL     1      44.221   3.974   9.068  0.00  0.00    +0.000 C 
BRANCH   9  10
ATOM     10  N   UNL     1      44.888   2.667   9.087  0.00  0.00    +0.000 N 
ATOM     11  C   UNL     1      45.822   2.551   8.028  0.00  0.00    +0.000 A 
ATOM     12  C   UNL     1      46.542   1.364   7.897  0.00  0.00    +0.000 A 
ATOM     13  C   UNL     1      47.473   1.238   6.867  0.00  0.00    +0.000 A 
ATOM     14  C   UNL     1      47.669   2.296   5.992  0.00  0.00    +0.000 A 
ATOM     15  C   UNL     1      46.926   3.441   6.190  0.00  0.00    +0.000 A 
ATOM     16  N   UNL     1      46.021   3.586   7.183  0.00  0.00    +0.000 NA
ATOM     17  H   UNL     1      44.232   1.895   9.014  0.00  0.00    +0.000 HD
ENDBRANCH   9  10
ENDBRANCH   8   9
ENDBRANCH   5   8
ENDBRANCH   1   2
BRANCH   1  20
ATOM     18  C   UNL     1      48.591   7.077  14.581  0.00  0.00    +0.000 C 
ATOM     19  O   UNL     1      49.188   6.658  13.591  0.00  0.00    +0.000 OA
ATOM     20  N   UNL     1      47.515   7.914  14.461  0.00  0.00    +0.000 N 
ATOM     21  H   UNL     1      47.024   8.233  15.283  0.00  0.00    +0.000 HD
BRANCH  18  29
ATOM     22  C   UNL     1      50.652   8.522  16.927  0.00  0.00    +0.000 A 
ATOM     23  N   UNL     1      51.364   8.879  18.015  0.00  0.00    +0.000 NA
ATOM     24  C   UNL     1      51.332   8.068  19.076  0.00  0.00    +0.000 A 
ATOM     25  N   UNL     1      50.666   6.921  19.191  0.00  0.00    +0.000 NA
ATOM     26  C   UNL     1      49.959   6.611  18.090  0.00  0.00    +0.000 A 
ATOM     27  S   UNL     1      49.051   5.178  18.051  0.00  0.00    +0.000 S 
ATOM     28  C   UNL     1      48.512   5.502  16.473  0.00  0.00    +0.000 A 
ATOM     29  C   UNL     1      48.999   6.692  15.943  0.00  0.00    +0.000 A 
ATOM     30  C   UNL     1      49.877   7.349  16.912  0.00  0.00    +0.000 A 
BRANCH  22  32
ATOM     31  C   UNL     1      51.901   9.316  15.113  0.00  0.00    +0.000 C 
ATOM     32  O   UNL     1      50.674   9.361  15.834  0.00  0.00    +0.000 OA
ENDBRANCH  22  32
ENDBRANCH  18  29
ENDBRANCH   1  20
TORSDOF 7
ENDMDL
MODEL 8
REMARK VINA RESULT:    -6.830      3.195      4.487
REMARK INTER + INTRA:         -10.660
REMARK INTER:                  -9.552
REMARK INTRA:                  -1.108
REMARK UNBOUND:                -1.036
REMARK  Name = 
REMARK  8 active torsions:
REMARK  status: ('A' for Active; 'I' for Inactive)
REMARK    1  A    between atoms: C_1  and  O_2
REMARK    2  A    between atoms: O_2  and  C_3
REMARK    3  A    between atoms: C_10  and  C_11
REMARK    4  A    between atoms: N_13  and  C_14
REMARK    5  A    between atoms: C_14  and  C_15
REMARK    6  A    between atoms: C_18  and  C_19
REMARK    7  A    between atoms: C_19  and  C_20
REMARK    8  A    between atoms: C_20  and  N_21
REMARK                            x       y       z     vdW  Elec       q    Type
REMARK                         _______ _______ _______ _____ _____    ______ ____
ROOT
ATOM      1  C   UNL     1      46.477   8.699  12.559  0.00  0.00    +0.000 C 
ENDROOT
BRANCH   1   2
ATOM      2  C   UNL     1      45.782   7.432  12.132  0.00  0.00    +0.000 A 
ATOM      3  C   UNL     1      46.456   6.208  12.174  0.00  0.00    +0.000 A 
ATOM      4  C   UNL     1      45.803   5.019  11.835  0.00  0.00    +0.000 A 
ATOM      5  C   UNL     1      44.459   5.017  11.429  0.00  0.00    +0.000 A 
ATOM      6  C   UNL     1      43.804   6.254  11.334  0.00  0.00    +0.000 A 
ATOM      7  C   UNL     1      44.457   7.446  11.675  0.00  0.00    +0.000 A 
BRANCH   5   8
ATOM      8  C   UNL     1      43.686   3.742  11.120  0.00  0.00    +0.000 C 
BRANCH   8   9
ATOM      9  C   UNL     1      44.309   2.861  10.029  0.00  0.00    +0.000 C 
BRANCH   9  10
ATOM     10  N   UNL     1      44.740   3.628   8.856  0.00  0.00    +0.000 N 
ATOM     11  C   UNL     1      45.666   2.895   8.074  0.00  0.00    +0.000 A 
ATOM     12  C   UNL     1      46.183   3.484   6.920  0.00  0.00    +0.000 A 
ATOM     13  C   UNL     1      47.087   2.771   6.133  0.00  0.00    +0.000 A 
ATOM     14  C   UNL     1      47.455   1.488   6.510  0.00  0.00    +0.000 A 
ATOM     15  C   UNL     1      46.895   0.970   7.660  0.00  0.00    +0.000 A 
ATOM     16  N   UNL     1      46.016   1.641   8.435  0.00  0.00    +0.000 NA
ATOM     17  H   UNL     1      45.172   4.513   9.107  0.00  0.00    +0.000 HD
ENDBRANCH   9  10
ENDBRANCH   8   9
ENDBRANCH   5   8
ENDBRANCH   1   2
BRANCH   1  20
ATOM     18  C   UNL     1      48.760   9.556  12.228  0.00  0.00    +0.000 C 
ATOM     19  O   UNL     1      48.335  10.659  11.891  0.00  0.00    +0.000 OA
ATOM     20  N   UNL     1      47.909   8.540  12.569  0.00  0.00    +0.000 N 
ATOM     21  H   UNL     1      48.273   7.634  12.824  0.00  0.00    +0.000 HD
BRANCH  18  29
ATOM     22  C   UNL     1      50.847   8.302  14.659  0.00  0.00    +0.000 A 
ATOM     23  N   UNL     1      51.859   7.814  15.403  0.00  0.00    +0.000 NA
ATOM     24  C   UNL     1      53.075   7.767  14.851  0.00  0.00    +0.000 A 
ATOM     25  N   UNL     1      53.415   8.155  13.624  0.00  0.00    +0.000 NA
ATOM     26  C   UNL     1      52.373   8.622  12.913  0.00  0.00    +0.000 A 
ATOM     27  S   UNL     1      52.620   9.169  11.325  0.00  0.00    +0.000 S 
ATOM     28  C   UNL     1      50.973   9.550  11.148  0.00  0.00    +0.000 A 
ATOM     29  C   UNL     1      50.205   9.272  12.273  0.00  0.00    +0.000 A 
ATOM     30  C   UNL     1      51.051   8.726  13.334  0.00  0.00    +0.000 A 
BRANCH  22  32
ATOM     31  C   UNL     1      49.081   7.055  15.556  0.00  0.00    +0.000 C 
ATOM     32  O   UNL     1      49.589   8.342  15.222  0.00  0.00    +0.000 OA
ENDBRANCH  22  32
ENDBRANCH  18  29
ENDBRANCH   1  20
TORSDOF 7
ENDMDL
MODEL 9
REMARK VINA RESULT:    -6.778      3.710      5.271
REMARK INTER + INTRA:         -10.588
REMARK INTER:                  -9.712
REMARK INTRA:                  -0.875
REMARK UNBOUND:                -1.036
REMARK  Name = 
REMARK  8 active torsions:
REMARK  status: ('A' for Active; 'I' for Inactive)
REMARK    1  A    between atoms: C_1  and  O_2
REMARK    2  A    between atoms: O_2  and  C_3
REMARK    3  A    between atoms: C_10  and  C_11
REMARK    4  A    between atoms: N_13  and  C_14
REMARK    5  A    between atoms: C_14  and  C_15
REMARK    6  A    between atoms: C_18  and  C_19
REMARK    7  A    between atoms: C_19  and  C_20
REMARK    8  A    between atoms: C_20  and  N_21
REMARK                            x       y       z     vdW  Elec       q    Type
REMARK                         _______ _______ _______ _____ _____    ______ ____
ROOT
ATOM      1  C   UNL     1      48.258   6.575  14.164  0.00  0.00    +0.000 C 
ENDROOT
BRANCH   1   2
ATOM      2  C   UNL     1      47.060   6.202  13.328  0.00  0.00    +0.000 A 
ATOM      3  C   UNL     1      46.529   7.114  12.411  0.00  0.00    +0.000 A 
ATOM      4  C   UNL     1      45.455   6.759  11.590  0.00  0.00    +0.000 A 
ATOM      5  C   UNL     1      44.868   5.486  11.669  0.00  0.00    +0.000 A 
ATOM      6  C   UNL     1      45.368   4.595  12.630  0.00  0.00    +0.000 A 
ATOM      7  C   UNL     1      46.445   4.949  13.454  0.00  0.00    +0.000 A 
BRANCH   5   8
ATOM      8  C   UNL     1      43.745   5.029  10.747  0.00  0.00    +0.000 C 
BRANCH   8   9
ATOM      9  C   UNL     1      44.127   3.903   9.778  0.00  0.00    +0.000 C 
BRANCH   9  10
ATOM     10  N   UNL     1      44.841   4.390   8.593  0.00  0.00    +0.000 N 
ATOM     11  C   UNL     1      45.649   3.374   8.026  0.00  0.00    +0.000 A 
ATOM     12  C   UNL     1      46.403   3.672   6.892  0.00  0.00    +0.000 A 
ATOM     13  C   UNL     1      47.195   2.680   6.314  0.00  0.00    +0.000 A 
ATOM     14  C   UNL     1      47.217   1.412   6.877  0.00  0.00    +0.000 A 
ATOM     15  C   UNL     1      46.438   1.190   7.994  0.00  0.00    +0.000 A 
ATOM     16  N   UNL     1      45.661   2.136   8.567  0.00  0.00    +0.000 NA
ATOM     17  H   UNL     1      45.437   5.187   8.799  0.00  0.00    +0.000 HD
ENDBRANCH   9  10
ENDBRANCH   8   9
ENDBRANCH   5   8
ENDBRANCH   1   2
BRANCH   1  20
ATOM     18  C   UNL     1      49.924   8.236  13.445  0.00  0.00    +0.000 C 
ATOM     19  O   UNL     1      49.494   9.066  14.244  0.00  0.00    +0.000 OA
ATOM     20  N   UNL     1      49.367   6.990  13.346  0.00  0.00    +0.000 N 
ATOM     21  H   UNL     1      49.720   6.327  12.671  0.00  0.00    +0.000 HD
BRANCH  18  29
ATOM     22  C   UNL     1      53.341   8.085  13.817  0.00  0.00    +0.000 A 
ATOM     23  N   UNL     1      54.683   8.090  13.685  0.00  0.00    +0.000 NA
ATOM     24  C   UNL     1      55.194   8.483  12.515  0.00  0.00    +0.000 A 
ATOM     25  N   UNL     1      54.522   8.882  11.438  0.00  0.00    +0.000 NA
ATOM     26  C   UNL     1      53.188   8.848  11.609  0.00  0.00    +0.000 A 
ATOM     27  S   UNL     1      52.167   9.329  10.341  0.00  0.00    +0.000 S 
ATOM     28  C   UNL     1      50.781   9.019  11.273  0.00  0.00    +0.000 A 
ATOM     29  C   UNL     1      51.053   8.545  12.551  0.00  0.00    +0.000 A 
ATOM     30  C   UNL     1      52.500   8.456  12.753  0.00  0.00    +0.000 A 
BRANCH  22  32
ATOM     31  C   UNL     1      53.675   6.807  15.750  0.00  0.00    +0.000 C 
ATOM     32  O   UNL     1      52.810   7.670  15.019  0.00  0.00    +0.000 OA
ENDBRANCH  22  32
ENDBRANCH  18  29
ENDBRANCH   1  20
TORSDOF 7
ENDMDL
