MODEL 1
REMARK VINA RESULT:    -7.802      0.000      0.000
REMARK INTER + INTRA:         -12.123
REMARK INTER:                 -10.994
REMARK INTRA:                  -1.128
REMARK UNBOUND:                -1.128
REMARK  Name = 
REMARK  8 active torsions:
REMARK  status: ('A' for Active; 'I' for Inactive)
REMARK    1  A    between atoms: C_1  and  O_2
REMARK    2  A    between atoms: O_2  and  C_3
REMARK    3  A    between atoms: C_5  and  C_6
REMARK    4  A    between atoms: C_10  and  N_11
REMARK    5  A    between atoms: N_11  and  C_12
REMARK    6  A    between atoms: C_12  and  C_13
REMARK    7  A    between atoms: C_15  and  C_16
REMARK    8  A    between atoms: C_20  and  C_21
REMARK                            x       y       z     vdW  Elec       q    Type
REMARK                         _______ _______ _______ _____ _____    ______ ____
ROOT
ATOM      1  C   UNL     1      47.763   7.097  14.025  0.00  0.00    +0.000 A 
ATOM      2  C   UNL     1      47.028   5.997  13.549  0.00  0.00    +0.000 A 
ATOM      3  C   UNL     1      45.919   6.148  12.690  0.00  0.00    +0.000 A 
ATOM      4  C   UNL     1      45.576   7.460  12.313  0.00  0.00    +0.000 A 
ATOM      5  C   UNL     1      46.304   8.563  12.769  0.00  0.00    +0.000 A 
ATOM      6  C   UNL     1      47.390   8.373  13.614  0.00  0.00    +0.000 A 
ATOM      7  F   UNL     1      48.070   9.444  14.045  0.00  0.00    +0.000 F 
ENDROOT
BRANCH   3   8
ATOM      8  C   UNL     1      45.147   4.975  12.221  0.00  0.00    +0.000 A 
ATOM      9  C   UNL     1      44.214   4.319  13.026  0.00  0.00    +0.000 A 
ATOM     10  N   UNL     1      43.481   3.237  12.656  0.00  0.00    +0.000 NA
ATOM     11  C   UNL     1      43.686   2.759  11.412  0.00  0.00    +0.000 A 
ATOM     12  C   UNL     1      44.584   3.311  10.517  0.00  0.00    +0.000 A 
ATOM     13  C   UNL     1      45.311   4.437  10.935  0.00  0.00    +0.000 A 
BRANCH  12  14
ATOM     14  C   UNL     1      44.775   2.725   9.153  0.00  0.00    +0.000 C 
ATOM     15  F   UNL     1      46.081   2.597   8.789  0.00  0.00    +0.000 F 
ATOM     16  F   UNL     1      44.233   1.482   9.041  0.00  0.00    +0.000 F 
ATOM     17  F   UNL     1      44.189   3.477   8.180  0.00  0.00    +0.000 F 
ENDBRANCH  12  14
ENDBRANCH   3   8
BRANCH   1  18
ATOM     18  C   UNL     1      48.915   6.894  14.976  0.00  0.00    +0.000 C 
BRANCH  18  19
ATOM     19  N   UNL     1      48.455   6.970  16.348  0.00  0.00    +0.000 N 
ATOM     20  H   UNL     1      47.506   7.316  16.470  0.00  0.00    +0.000 HD
BRANCH  19  25
ATOM     21  C   UNL     1      48.446   4.979  19.294  0.00  0.00    +0.000 A 
ATOM     22  C   UNL     1      48.950   3.750  18.923  0.00  0.00    +0.000 A 
ATOM     23  C   UNL     1      49.283   3.584  17.588  0.00  0.00    +0.000 A 
ATOM     24  C   UNL     1      49.098   4.639  16.690  0.00  0.00    +0.000 A 
ATOM     25  C   UNL     1      48.591   5.842  17.150  0.00  0.00    +0.000 A 
ATOM     26  N   UNL     1      48.267   6.014  18.444  0.00  0.00    +0.000 NA
BRANCH  23  27
ATOM     27  C   UNL     1      49.812   2.309  17.052  0.00  0.00    +0.000 C 
ATOM     28  N   UNL     1      50.834   1.714  17.736  0.00  0.00    +0.000 N 
ATOM     29  O   UNL     1      49.376   1.824  16.017  0.00  0.00    +0.000 OA
ATOM     30  H   UNL     1      51.355   2.172  18.470  0.00  0.00    +0.000 HD
ATOM     31  H   UNL     1      51.246   0.894  17.311  0.00  0.00    +0.000 HD
ENDBRANCH  23  27
BRANCH  21  33
ATOM     32  C   UNL     1      47.396   6.325  20.890  0.00  0.00    +0.000 C 
ATOM     33  O   UNL     1      48.114   5.122  20.628  0.00  0.00    +0.000 OA
ENDBRANCH  21  33
ENDBRANCH  19  25
ENDBRANCH  18  19
ENDBRANCH   1  18
TORSDOF 7
ENDMDL
MODEL 2
REMARK VINA RESULT:    -7.637      1.763      2.154
REMARK INTER + INTRA:         -11.890
REMARK INTER:                 -10.685
REMARK INTRA:                  -1.205
REMARK UNBOUND:                -1.128
REMARK  Name = 
REMARK  8 active torsions:
REMARK  status: ('A' for Active; 'I' for Inactive)
REMARK    1  A    between atoms: C_1  and  O_2
REMARK    2  A    between atoms: O_2  and  C_3
REMARK    3  A    between atoms: C_5  and  C_6
REMARK    4  A    between atoms: C_10  and  N_11
REMARK    5  A    between atoms: N_11  and  C_12
REMARK    6  A    between atoms: C_12  and  C_13
REMARK    7  A    between atoms: C_15  and  C_16
REMARK    8  A    between atoms: C_20  and  C_21
REMARK                            x       y       z     vdW  Elec       q    Type
REMARK                         _______ _______ _______ _____ _____    ______ ____
ROOT
ATOM      1  C   UNL     1      47.821   7.462  13.196  0.00  0.00    +0.000 A 
ATOM      2  C   UNL     1      47.130   6.285  12.859  0.00  0.00    +0.000 A 
ATOM      3  C   UNL     1      45.785   6.298  12.431  0.00  0.00    +0.000 A 
ATOM      4  C   UNL     1      45.154   7.554  12.344  0.00  0.00    +0.000 A 
ATOM      5  C   UNL     1      45.832   8.734  12.665  0.00  0.00    +0.000 A 
ATOM      6  C   UNL     1      47.156   8.679  13.082  0.00  0.00    +0.000 A 
ATOM      7  F   UNL     1      47.784   9.821  13.391  0.00  0.00    +0.000 F 
ENDROOT
BRANCH   3   8
ATOM      8  C   UNL     1      45.072   5.043  12.104  0.00  0.00    +0.000 A 
ATOM      9  C   UNL     1      44.207   4.414  13.002  0.00  0.00    +0.000 A 
ATOM     10  N   UNL     1      43.531   3.261  12.763  0.00  0.00    +0.000 NA
ATOM     11  C   UNL     1      43.725   2.677  11.562  0.00  0.00    +0.000 A 
ATOM     12  C   UNL     1      44.560   3.192  10.587  0.00  0.00    +0.000 A 
ATOM     13  C   UNL     1      45.230   4.393  10.870  0.00  0.00    +0.000 A 
BRANCH  12  14
ATOM     14  C   UNL     1      44.744   2.489   9.279  0.00  0.00    +0.000 C 
ATOM     15  F   UNL     1      46.048   2.305   8.934  0.00  0.00    +0.000 F 
ATOM     16  F   UNL     1      44.177   1.252   9.269  0.00  0.00    +0.000 F 
ATOM     17  F   UNL     1      44.177   3.167   8.243  0.00  0.00    +0.000 F 
ENDBRANCH  12  14
ENDBRANCH   3   8
BRANCH   1  18
ATOM     18  C   UNL     1      49.243   7.399  13.690  0.00  0.00    +0.000 C 
BRANCH  18  19
ATOM     19  N   UNL     1      49.293   7.640  15.119  0.00  0.00    +0.000 N 
ATOM     20  H   UNL     1      48.529   8.200  15.491  0.00  0.00    +0.000 HD
BRANCH  19  25
ATOM     21  C   UNL     1      50.967   5.205  17.096  0.00  0.00    +0.000 A 
ATOM     22  C   UNL     1      49.993   4.324  17.516  0.00  0.00    +0.000 A 
ATOM     23  C   UNL     1      48.691   4.593  17.128  0.00  0.00    +0.000 A 
ATOM     24  C   UNL     1      48.418   5.719  16.346  0.00  0.00    +0.000 A 
ATOM     25  C   UNL     1      49.458   6.550  15.964  0.00  0.00    +0.000 A 
ATOM     26  N   UNL     1      50.726   6.296  16.334  0.00  0.00    +0.000 NA
BRANCH  23  27
ATOM     27  C   UNL     1      47.548   3.741  17.529  0.00  0.00    +0.000 C 
ATOM     28  N   UNL     1      47.687   2.995  18.666  0.00  0.00    +0.000 N 
ATOM     29  O   UNL     1      46.532   3.677  16.851  0.00  0.00    +0.000 OA
ATOM     30  H   UNL     1      48.569   2.861  19.141  0.00  0.00    +0.000 HD
ATOM     31  H   UNL     1      46.938   2.351  18.879  0.00  0.00    +0.000 HD
ENDBRANCH  23  27
BRANCH  21  33
ATOM     32  C   UNL     1      52.398   3.601  18.011  0.00  0.00    +0.000 C 
ATOM     33  O   UNL     1      52.258   4.923  17.499  0.00  0.00    +0.000 OA
ENDBRANCH  21  33
ENDBRANCH  19  25
ENDBRANCH  18  19
ENDBRANCH   1  18
TORSDOF 7
ENDMDL
MODEL 3
REMARK VINA RESULT:    -7.559      1.741      2.936
REMARK INTER + INTRA:         -11.780
REMARK INTER:                 -10.897
REMARK INTRA:                  -0.883
REMARK UNBOUND:                -1.128
REMARK  Name = 
REMARK  8 active torsions:
REMARK  status: ('A' for Active; 'I' for Inactive)
REMARK    1  A    between atoms: C_1  and  O_2
REMARK    2  A    between atoms: O_2  and  C_3
REMARK    3  A    between atoms: C_5  and  C_6
REMARK    4  A    between atoms: C_10  and  N_11
REMARK    5  A    between atoms: N_11  and  C_12
REMARK    6  A    between atoms: C_12  and  C_13
REMARK    7  A    between atoms: C_15  and  C_16
REMARK    8  A    between atoms: C_20  and  C_21
REMARK                            x       y       z     vdW  Elec       q    Type
REMARK                         _______ _______ _______ _____ _____    ______ ____
ROOT
ATOM      1  C   UNL     1      48.022   7.857  13.202  0.00  0.00    +0.000 A 
ATOM      2  C   UNL     1      47.277   6.890  12.504  0.00  0.00    +0.000 A 
ATOM      3  C   UNL     1      46.092   7.211  11.808  0.00  0.00    +0.000 A 
ATOM      4  C   UNL     1      45.683   8.558  11.829  0.00  0.00    +0.000 A 
ATOM      5  C   UNL     1      46.420   9.533  12.509  0.00  0.00    +0.000 A 
ATOM      6  C   UNL     1      47.581   9.177  13.183  0.00  0.00    +0.000 A 
ATOM      7  F   UNL     1      48.268  10.125  13.833  0.00  0.00    +0.000 F 
ENDROOT
BRANCH   3   8
ATOM      8  C   UNL     1      45.313   6.170  11.100  0.00  0.00    +0.000 A 
ATOM      9  C   UNL     1      44.013   5.822  11.472  0.00  0.00    +0.000 A 
ATOM     10  N   UNL     1      43.251   4.874  10.868  0.00  0.00    +0.000 NA
ATOM     11  C   UNL     1      43.808   4.213   9.833  0.00  0.00    +0.000 A 
ATOM     12  C   UNL     1      45.088   4.455   9.368  0.00  0.00    +0.000 A 
ATOM     13  C   UNL     1      45.837   5.453  10.013  0.00  0.00    +0.000 A 
BRANCH  12  14
ATOM     14  C   UNL     1      45.655   3.678   8.223  0.00  0.00    +0.000 C 
ATOM     15  F   UNL     1      44.762   3.448   7.221  0.00  0.00    +0.000 F 
ATOM     16  F   UNL     1      46.714   4.305   7.642  0.00  0.00    +0.000 F 
ATOM     17  F   UNL     1      46.111   2.453   8.604  0.00  0.00    +0.000 F 
ENDBRANCH  12  14
ENDBRANCH   3   8
BRANCH   1  18
ATOM     18  C   UNL     1      49.258   7.464  13.970  0.00  0.00    +0.000 C 
BRANCH  18  19
ATOM     19  N   UNL     1      49.011   7.538  15.396  0.00  0.00    +0.000 N 
ATOM     20  H   UNL     1      48.356   8.261  15.687  0.00  0.00    +0.000 HD
BRANCH  19  25
ATOM     21  C   UNL     1      47.798   4.231  15.873  0.00  0.00    +0.000 A 
ATOM     22  C   UNL     1      47.778   4.027  17.237  0.00  0.00    +0.000 A 
ATOM     23  C   UNL     1      48.233   5.065  18.034  0.00  0.00    +0.000 A 
ATOM     24  C   UNL     1      48.684   6.248  17.444  0.00  0.00    +0.000 A 
ATOM     25  C   UNL     1      48.663   6.370  16.065  0.00  0.00    +0.000 A 
ATOM     26  N   UNL     1      48.223   5.370  15.282  0.00  0.00    +0.000 NA
BRANCH  23  27
ATOM     27  C   UNL     1      48.288   4.968  19.511  0.00  0.00    +0.000 C 
ATOM     28  N   UNL     1      48.576   3.747  20.053  0.00  0.00    +0.000 N 
ATOM     29  O   UNL     1      48.047   5.934  20.222  0.00  0.00    +0.000 OA
ATOM     30  H   UNL     1      48.581   2.888  19.521  0.00  0.00    +0.000 HD
ATOM     31  H   UNL     1      48.521   3.675  21.060  0.00  0.00    +0.000 HD
ENDBRANCH  23  27
BRANCH  21  33
ATOM     32  C   UNL     1      46.947   3.595  13.792  0.00  0.00    +0.000 C 
ATOM     33  O   UNL     1      47.347   3.181  15.095  0.00  0.00    +0.000 OA
ENDBRANCH  21  33
ENDBRANCH  19  25
ENDBRANCH  18  19
ENDBRANCH   1  18
TORSDOF 7
ENDMDL
MODEL 4
REMARK VINA RESULT:    -7.474      2.665      4.439
REMARK INTER + INTRA:         -11.660
REMARK INTER:                 -10.785
REMARK INTRA:                  -0.875
REMARK UNBOUND:                -1.128
REMARK  Name = 
REMARK  8 active torsions:
REMARK  status: ('A' for Active; 'I' for Inactive)
REMARK    1  A    between atoms: C_1  and  O_2
REMARK    2  A    between atoms: O_2  and  C_3
REMARK    3  A    between atoms: C_5  and  C_6
REMARK    4  A    between atoms: C_10  and  N_11
REMARK    5  A    between atoms: N_11  and  C_12
REMARK    6  A    between atoms: C_12  and  C_13
REMARK    7  A    between atoms: C_15  and  C_16
REMARK    8  A    between atoms: C_20  and  C_21
REMARK                            x       y       z     vdW  Elec       q    Type
REMARK                         _______ _______ _______ _____ _____    ______ ____
ROOT
ATOM      1  C   UNL     1      44.748   4.747  12.708  0.00  0.00    +0.000 A 
ATOM      2  C   UNL     1      45.441   4.377  11.541  0.00  0.00    +0.000 A 
ATOM      3  C   UNL     1      44.794   4.236  10.295  0.00  0.00    +0.000 A 
ATOM      4  C   UNL     1      43.411   4.494  10.260  0.00  0.00    +0.000 A 
ATOM      5  C   UNL     1      42.711   4.873  11.409  0.00  0.00    +0.000 A 
ATOM      6  C   UNL     1      43.383   5.001  12.618  0.00  0.00    +0.000 A 
ATOM      7  F   UNL     1      42.692   5.359  13.708  0.00  0.00    +0.000 F 
ENDROOT
BRANCH   3   8
ATOM      8  C   UNL     1      45.541   3.822   9.086  0.00  0.00    +0.000 A 
ATOM      9  C   UNL     1      45.989   4.736   8.130  0.00  0.00    +0.000 A 
ATOM     10  N   UNL     1      46.672   4.418   7.000  0.00  0.00    +0.000 NA
ATOM     11  C   UNL     1      46.925   3.110   6.788  0.00  0.00    +0.000 A 
ATOM     12  C   UNL     1      46.531   2.104   7.651  0.00  0.00    +0.000 A 
ATOM     13  C   UNL     1      45.839   2.478   8.814  0.00  0.00    +0.000 A 
BRANCH  12  14
ATOM     14  C   UNL     1      46.831   0.669   7.353  0.00  0.00    +0.000 C 
ATOM     15  F   UNL     1      46.690   0.341   6.039  0.00  0.00    +0.000 F 
ATOM     16  F   UNL     1      48.103   0.322   7.690  0.00  0.00    +0.000 F 
ATOM     17  F   UNL     1      46.019  -0.183   8.038  0.00  0.00    +0.000 F 
ENDBRANCH  12  14
ENDBRANCH   3   8
BRANCH   1  18
ATOM     18  C   UNL     1      45.469   4.843  14.028  0.00  0.00    +0.000 C 
BRANCH  18  19
ATOM     19  N   UNL     1      46.578   3.909  14.067  0.00  0.00    +0.000 N 
ATOM     20  H   UNL     1      47.252   4.004  13.310  0.00  0.00    +0.000 HD
BRANCH  19  25
ATOM     21  C   UNL     1      48.774   2.503  16.483  0.00  0.00    +0.000 A 
ATOM     22  C   UNL     1      48.684   3.314  17.594  0.00  0.00    +0.000 A 
ATOM     23  C   UNL     1      47.852   4.417  17.502  0.00  0.00    +0.000 A 
ATOM     24  C   UNL     1      47.153   4.663  16.317  0.00  0.00    +0.000 A 
ATOM     25  C   UNL     1      47.297   3.792  15.250  0.00  0.00    +0.000 A 
ATOM     26  N   UNL     1      48.102   2.718  15.330  0.00  0.00    +0.000 NA
BRANCH  23  27
ATOM     27  C   UNL     1      47.682   5.382  18.613  0.00  0.00    +0.000 C 
ATOM     28  N   UNL     1      48.814   5.848  19.221  0.00  0.00    +0.000 N 
ATOM     29  O   UNL     1      46.572   5.720  18.999  0.00  0.00    +0.000 OA
ATOM     30  H   UNL     1      49.731   5.449  19.075  0.00  0.00    +0.000 HD
ATOM     31  H   UNL     1      48.682   6.434  20.034  0.00  0.00    +0.000 HD
ENDBRANCH  23  27
BRANCH  21  33
ATOM     32  C   UNL     1      50.874   1.743  17.170  0.00  0.00    +0.000 C 
ATOM     33  O   UNL     1      49.615   1.411  16.592  0.00  0.00    +0.000 OA
ENDBRANCH  21  33
ENDBRANCH  19  25
ENDBRANCH  18  19
ENDBRANCH   1  18
TORSDOF 7
ENDMDL
MODEL 5
REMARK VINA RESULT:    -7.378      4.016      7.916
REMARK INTER + INTRA:         -11.526
REMARK INTER:                 -10.370
REMARK INTRA:                  -1.156
REMARK UNBOUND:                -1.128
REMARK  Name = 
REMARK  8 active torsions:
REMARK  status: ('A' for Active; 'I' for Inactive)
REMARK    1  A    between atoms: C_1  and  O_2
REMARK    2  A    between atoms: O_2  and  C_3
REMARK    3  A    between atoms: C_5  and  C_6
REMARK    4  A    between atoms: C_10  and  N_11
REMARK    5  A    between atoms: N_11  and  C_12
REMARK    6  A    between atoms: C_12  and  C_13
REMARK    7  A    between atoms: C_15  and  C_16
REMARK    8  A    between atoms: C_20  and  C_21
REMARK                            x       y       z     vdW  Elec       q    Type
REMARK                         _______ _______ _______ _____ _____    ______ ____
ROOT
ATOM      1  C   UNL     1      47.023   8.079  13.011  0.00  0.00    +0.000 A 
ATOM      2  C   UNL     1      47.525   7.155  13.945  0.00  0.00    +0.000 A 
ATOM      3  C   UNL     1      48.541   7.492  14.864  0.00  0.00    +0.000 A 
ATOM      4  C   UNL     1      49.035   8.809  14.819  0.00  0.00    +0.000 A 
ATOM      5  C   UNL     1      48.538   9.742  13.903  0.00  0.00    +0.000 A 
ATOM      6  C   UNL     1      47.537   9.372  13.013  0.00  0.00    +0.000 A 
ATOM      7  F   UNL     1      47.080  10.279  12.140  0.00  0.00    +0.000 F 
ENDROOT
BRANCH   3   8
ATOM      8  C   UNL     1      49.069   6.494  15.822  0.00  0.00    +0.000 A 
ATOM      9  C   UNL     1      50.339   6.599  16.393  0.00  0.00    +0.000 A 
ATOM     10  N   UNL     1      50.880   5.715  17.271  0.00  0.00    +0.000 NA
ATOM     11  C   UNL     1      50.127   4.647  17.604  0.00  0.00    +0.000 A 
ATOM     12  C   UNL     1      48.857   4.420  17.105  0.00  0.00    +0.000 A 
ATOM     13  C   UNL     1      48.330   5.366  16.211  0.00  0.00    +0.000 A 
BRANCH  12  14
ATOM     14  C   UNL     1      48.076   3.208  17.503  0.00  0.00    +0.000 C 
ATOM     15  F   UNL     1      46.734   3.331  17.309  0.00  0.00    +0.000 F 
ATOM     16  F   UNL     1      48.452   2.097  16.812  0.00  0.00    +0.000 F 
ATOM     17  F   UNL     1      48.235   2.899  18.820  0.00  0.00    +0.000 F 
ENDBRANCH  12  14
ENDBRANCH   3   8
BRANCH   1  18
ATOM     18  C   UNL     1      45.968   7.666  12.017  0.00  0.00    +0.000 C 
BRANCH  18  19
ATOM     19  N   UNL     1      46.543   6.812  10.996  0.00  0.00    +0.000 N 
ATOM     20  H   UNL     1      47.507   6.530  11.158  0.00  0.00    +0.000 HD
BRANCH  19  25
ATOM     21  C   UNL     1      45.162   4.336   8.851  0.00  0.00    +0.000 A 
ATOM     22  C   UNL     1      44.363   3.545   9.650  0.00  0.00    +0.000 A 
ATOM     23  C   UNL     1      44.318   3.857  10.999  0.00  0.00    +0.000 A 
ATOM     24  C   UNL     1      45.065   4.932  11.489  0.00  0.00    +0.000 A 
ATOM     25  C   UNL     1      45.838   5.678  10.614  0.00  0.00    +0.000 A 
ATOM     26  N   UNL     1      45.887   5.384   9.303  0.00  0.00    +0.000 NA
BRANCH  23  27
ATOM     27  C   UNL     1      43.519   3.075  11.970  0.00  0.00    +0.000 C 
ATOM     28  N   UNL     1      43.520   3.495  13.271  0.00  0.00    +0.000 N 
ATOM     29  O   UNL     1      42.910   2.070  11.631  0.00  0.00    +0.000 OA
ATOM     30  H   UNL     1      44.161   4.188  13.632  0.00  0.00    +0.000 HD
ATOM     31  H   UNL     1      43.046   2.902  13.938  0.00  0.00    +0.000 HD
ENDBRANCH  23  27
BRANCH  21  33
ATOM     32  C   UNL     1      46.354   3.246   7.162  0.00  0.00    +0.000 C 
ATOM     33  O   UNL     1      45.200   4.004   7.510  0.00  0.00    +0.000 OA
ENDBRANCH  21  33
ENDBRANCH  19  25
ENDBRANCH  18  19
ENDBRANCH   1  18
TORSDOF 7
ENDMDL
MODEL 6
REMARK VINA RESULT:    -7.269      2.212      3.722
REMARK INTER + INTRA:         -11.372
REMARK INTER:                 -10.143
REMARK INTRA:                  -1.229
REMARK UNBOUND:                -1.128
REMARK  Name = 
REMARK  8 active torsions:
REMARK  status: ('A' for Active; 'I' for Inactive)
REMARK    1  A    between atoms: C_1  and  O_2
REMARK    2  A    between atoms: O_2  and  C_3
REMARK    3  A    between atoms: C_5  and  C_6
REMARK    4  A    between atoms: C_10  and  N_11
REMARK    5  A    between atoms: N_11  and  C_12
REMARK    6  A    between atoms: C_12  and  C_13
REMARK    7  A    between atoms: C_15  and  C_16
REMARK    8  A    between atoms: C_20  and  C_21
REMARK                            x       y       z     vdW  Elec       q    Type
REMARK                         _______ _______ _______ _____ _____    ______ ____
ROOT
ATOM      1  C   UNL     1      47.718   7.929  11.995  0.00  0.00    +0.000 A 
ATOM      2  C   UNL     1      47.051   6.711  11.775  0.00  0.00    +0.000 A 
ATOM      3  C   UNL     1      45.644   6.606  11.810  0.00  0.00    +0.000 A 
ATOM      4  C   UNL     1      44.921   7.786  12.066  0.00  0.00    +0.000 A 
ATOM      5  C   UNL     1      45.570   9.007  12.275  0.00  0.00    +0.000 A 
ATOM      6  C   UNL     1      46.957   9.070  12.233  0.00  0.00    +0.000 A 
ATOM      7  F   UNL     1      47.558  10.248  12.442  0.00  0.00    +0.000 F 
ENDROOT
BRANCH   3   8
ATOM      8  C   UNL     1      44.967   5.307  11.599  0.00  0.00    +0.000 A 
ATOM      9  C   UNL     1      44.076   4.764  12.527  0.00  0.00    +0.000 A 
ATOM     10  N   UNL     1      43.430   3.577  12.393  0.00  0.00    +0.000 NA
ATOM     11  C   UNL     1      43.684   2.867  11.275  0.00  0.00    +0.000 A 
ATOM     12  C   UNL     1      44.550   3.286  10.281  0.00  0.00    +0.000 A 
ATOM     13  C   UNL     1      45.187   4.526  10.453  0.00  0.00    +0.000 A 
BRANCH  12  14
ATOM     14  C   UNL     1      44.801   2.446   9.069  0.00  0.00    +0.000 C 
ATOM     15  F   UNL     1      46.106   2.095   8.905  0.00  0.00    +0.000 F 
ATOM     16  F   UNL     1      44.101   1.279   9.093  0.00  0.00    +0.000 F 
ATOM     17  F   UNL     1      44.436   3.075   7.918  0.00  0.00    +0.000 F 
ENDBRANCH  12  14
ENDBRANCH   3   8
BRANCH   1  18
ATOM     18  C   UNL     1      49.224   7.988  11.993  0.00  0.00    +0.000 C 
BRANCH  18  19
ATOM     19  N   UNL     1      49.766   7.099  13.001  0.00  0.00    +0.000 N 
ATOM     20  H   UNL     1      50.766   6.927  12.936  0.00  0.00    +0.000 HD
BRANCH  19  25
ATOM     21  C   UNL     1      48.795   6.480  16.365  0.00  0.00    +0.000 A 
ATOM     22  C   UNL     1      48.716   7.716  16.970  0.00  0.00    +0.000 A 
ATOM     23  C   UNL     1      49.042   8.818  16.195  0.00  0.00    +0.000 A 
ATOM     24  C   UNL     1      49.429   8.641  14.864  0.00  0.00    +0.000 A 
ATOM     25  C   UNL     1      49.476   7.362  14.334  0.00  0.00    +0.000 A 
ATOM     26  N   UNL     1      49.160   6.287  15.077  0.00  0.00    +0.000 NA
BRANCH  23  27
ATOM     27  C   UNL     1      49.021  10.199  16.728  0.00  0.00    +0.000 C 
ATOM     28  N   UNL     1      47.855  10.642  17.287  0.00  0.00    +0.000 N 
ATOM     29  O   UNL     1      49.998  10.930  16.639  0.00  0.00    +0.000 OA
ATOM     30  H   UNL     1      46.975  10.154  17.201  0.00  0.00    +0.000 HD
ATOM     31  H   UNL     1      47.827  11.614  17.564  0.00  0.00    +0.000 HD
ENDBRANCH  23  27
BRANCH  21  33
ATOM     32  C   UNL     1      47.611   4.470  16.499  0.00  0.00    +0.000 C 
ATOM     33  O   UNL     1      48.474   5.393  17.156  0.00  0.00    +0.000 OA
ENDBRANCH  21  33
ENDBRANCH  19  25
ENDBRANCH  18  19
ENDBRANCH   1  18
TORSDOF 7
ENDMDL
MODEL 7
REMARK VINA RESULT:    -7.233      2.534      3.398
REMARK INTER + INTRA:         -11.321
REMARK INTER:                 -10.142
REMARK INTRA:                  -1.179
REMARK UNBOUND:                -1.128
REMARK  Name = 
REMARK  8 active torsions:
REMARK  status: ('A' for Active; 'I' for Inactive)
REMARK    1  A    between atoms: C_1  and  O_2
REMARK    2  A    between atoms: O_2  and  C_3
REMARK    3  A    between atoms: C_5  and  C_6
REMARK    4  A    between atoms: C_10  and  N_11
REMARK    5  A    between atoms: N_11  and  C_12
REMARK    6  A    between atoms: C_12  and  C_13
REMARK    7  A    between atoms: C_15  and  C_16
REMARK    8  A    between atoms: C_20  and  C_21
REMARK                            x       y       z     vdW  Elec       q    Type
REMARK                         _______ _______ _______ _____ _____    ______ ____
ROOT
ATOM      1  C   UNL     1      46.379   7.273  11.890  0.00  0.00    +0.000 A 
ATOM      2  C   UNL     1      46.370   6.130  11.071  0.00  0.00    +0.000 A 
ATOM      3  C   UNL     1      45.171   5.502  10.670  0.00  0.00    +0.000 A 
ATOM      4  C   UNL     1      43.967   6.076  11.117  0.00  0.00    +0.000 A 
ATOM      5  C   UNL     1      43.960   7.220  11.923  0.00  0.00    +0.000 A 
ATOM      6  C   UNL     1      45.160   7.809  12.297  0.00  0.00    +0.000 A 
ATOM      7  F   UNL     1      45.132   8.899  13.074  0.00  0.00    +0.000 F 
ENDROOT
BRANCH   3   8
ATOM      8  C   UNL     1      45.189   4.285   9.826  0.00  0.00    +0.000 A 
ATOM      9  C   UNL     1      44.445   3.145  10.136  0.00  0.00    +0.000 A 
ATOM     10  N   UNL     1      44.425   1.999   9.407  0.00  0.00    +0.000 NA
ATOM     11  C   UNL     1      45.197   1.966   8.302  0.00  0.00    +0.000 A 
ATOM     12  C   UNL     1      45.986   3.023   7.887  0.00  0.00    +0.000 A 
ATOM     13  C   UNL     1      45.968   4.194   8.662  0.00  0.00    +0.000 A 
BRANCH  12  14
ATOM     14  C   UNL     1      46.832   2.919   6.657  0.00  0.00    +0.000 C 
ATOM     15  F   UNL     1      46.592   1.801   5.919  0.00  0.00    +0.000 F 
ATOM     16  F   UNL     1      46.652   3.970   5.812  0.00  0.00    +0.000 F 
ATOM     17  F   UNL     1      48.163   2.897   6.945  0.00  0.00    +0.000 F 
ENDBRANCH  12  14
ENDBRANCH   3   8
BRANCH   1  18
ATOM     18  C   UNL     1      47.682   7.887  12.332  0.00  0.00    +0.000 C 
BRANCH  18  19
ATOM     19  N   UNL     1      48.573   6.865  12.846  0.00  0.00    +0.000 N 
ATOM     20  H   UNL     1      49.532   6.915  12.508  0.00  0.00    +0.000 HD
BRANCH  19  25
ATOM     21  C   UNL     1      49.611   7.320  16.216  0.00  0.00    +0.000 A 
ATOM     22  C   UNL     1      48.983   6.331  16.943  0.00  0.00    +0.000 A 
ATOM     23  C   UNL     1      48.136   5.482  16.248  0.00  0.00    +0.000 A 
ATOM     24  C   UNL     1      47.952   5.655  14.874  0.00  0.00    +0.000 A 
ATOM     25  C   UNL     1      48.628   6.672  14.221  0.00  0.00    +0.000 A 
ATOM     26  N   UNL     1      49.453   7.500  14.885  0.00  0.00    +0.000 NA
BRANCH  23  27
ATOM     27  C   UNL     1      47.382   4.393  16.911  0.00  0.00    +0.000 C 
ATOM     28  N   UNL     1      47.145   4.516  18.252  0.00  0.00    +0.000 N 
ATOM     29  O   UNL     1      47.017   3.403  16.293  0.00  0.00    +0.000 OA
ATOM     30  H   UNL     1      47.595   5.205  18.837  0.00  0.00    +0.000 HD
ATOM     31  H   UNL     1      46.710   3.726  18.708  0.00  0.00    +0.000 HD
ENDBRANCH  23  27
BRANCH  21  33
ATOM     32  C   UNL     1      49.769   9.305  17.438  0.00  0.00    +0.000 C 
ATOM     33  O   UNL     1      50.446   8.161  16.927  0.00  0.00    +0.000 OA
ENDBRANCH  21  33
ENDBRANCH  19  25
ENDBRANCH  18  19
ENDBRANCH   1  18
TORSDOF 7
ENDMDL
MODEL 8
REMARK VINA RESULT:    -7.213      2.727      3.843
REMARK INTER + INTRA:         -11.293
REMARK INTER:                 -10.200
REMARK INTRA:                  -1.093
REMARK UNBOUND:                -1.128
REMARK  Name = 
REMARK  8 active torsions:
REMARK  status: ('A' for Active; 'I' for Inactive)
REMARK    1  A    between atoms: C_1  and  O_2
REMARK    2  A    between atoms: O_2  and  C_3
REMARK    3  A    between atoms: C_5  and  C_6
REMARK    4  A    between atoms: C_10  and  N_11
REMARK    5  A    between atoms: N_11  and  C_12
REMARK    6  A    between atoms: C_12  and  C_13
REMARK    7  A    between atoms: C_15  and  C_16
REMARK    8  A    between atoms: C_20  and  C_21
REMARK                            x       y       z     vdW  Elec       q    Type
REMARK                         _______ _______ _______ _____ _____    ______ ____
ROOT
ATOM      1  C   UNL     1      45.985   7.034  11.647  0.00  0.00    +0.000 A 
ATOM      2  C   UNL     1      46.098   5.856  10.888  0.00  0.00    +0.000 A 
ATOM      3  C   UNL     1      44.968   5.169  10.393  0.00  0.00    +0.000 A 
ATOM      4  C   UNL     1      43.706   5.721  10.682  0.00  0.00    +0.000 A 
ATOM      5  C   UNL     1      43.579   6.898  11.426  0.00  0.00    +0.000 A 
ATOM      6  C   UNL     1      44.715   7.545  11.896  0.00  0.00    +0.000 A 
ATOM      7  F   UNL     1      44.571   8.668  12.612  0.00  0.00    +0.000 F 
ENDROOT
BRANCH   3   8
ATOM      8  C   UNL     1      45.112   3.917   9.616  0.00  0.00    +0.000 A 
ATOM      9  C   UNL     1      44.428   2.745   9.945  0.00  0.00    +0.000 A 
ATOM     10  N   UNL     1      44.523   1.567   9.276  0.00  0.00    +0.000 NA
ATOM     11  C   UNL     1      45.357   1.532   8.217  0.00  0.00    +0.000 A 
ATOM     12  C   UNL     1      46.098   2.619   7.789  0.00  0.00    +0.000 A 
ATOM     13  C   UNL     1      45.960   3.822   8.500  0.00  0.00    +0.000 A 
BRANCH  12  14
ATOM     14  C   UNL     1      47.016   2.513   6.613  0.00  0.00    +0.000 C 
ATOM     15  F   UNL     1      48.310   2.828   6.897  0.00  0.00    +0.000 F 
ATOM     16  F   UNL     1      47.045   1.259   6.087  0.00  0.00    +0.000 F 
ATOM     17  F   UNL     1      46.648   3.337   5.593  0.00  0.00    +0.000 F 
ENDBRANCH  12  14
ENDBRANCH   3   8
BRANCH   1  18
ATOM     18  C   UNL     1      47.215   7.712  12.193  0.00  0.00    +0.000 C 
BRANCH  18  19
ATOM     19  N   UNL     1      48.223   6.729  12.539  0.00  0.00    +0.000 N 
ATOM     20  H   UNL     1      49.159   6.928  12.195  0.00  0.00    +0.000 HD
BRANCH  19  25
ATOM     21  C   UNL     1      47.623   4.901  15.528  0.00  0.00    +0.000 A 
ATOM     22  C   UNL     1      48.333   5.548  16.517  0.00  0.00    +0.000 A 
ATOM     23  C   UNL     1      49.081   6.650  16.136  0.00  0.00    +0.000 A 
ATOM     24  C   UNL     1      49.089   7.055  14.798  0.00  0.00    +0.000 A 
ATOM     25  C   UNL     1      48.342   6.349  13.870  0.00  0.00    +0.000 A 
ATOM     26  N   UNL     1      47.611   5.279  14.231  0.00  0.00    +0.000 NA
BRANCH  23  27
ATOM     27  C   UNL     1      49.907   7.421  17.093  0.00  0.00    +0.000 C 
ATOM     28  N   UNL     1      50.363   8.645  16.689  0.00  0.00    +0.000 N 
ATOM     29  O   UNL     1      50.202   6.967  18.190  0.00  0.00    +0.000 OA
ATOM     30  H   UNL     1      50.317   8.970  15.734  0.00  0.00    +0.000 HD
ATOM     31  H   UNL     1      50.999   9.119  17.316  0.00  0.00    +0.000 HD
ENDBRANCH  23  27
BRANCH  21  33
ATOM     32  C   UNL     1      47.252   3.338  17.225  0.00  0.00    +0.000 C 
ATOM     33  O   UNL     1      46.889   3.800  15.927  0.00  0.00    +0.000 OA
ENDBRANCH  21  33
ENDBRANCH  19  25
ENDBRANCH  18  19
ENDBRANCH   1  18
TORSDOF 7
ENDMDL
MODEL 9
REMARK VINA RESULT:    -7.153      3.251      5.838
REMARK INTER + INTRA:         -11.208
REMARK INTER:                 -10.194
REMARK INTRA:                  -1.015
REMARK UNBOUND:                -1.128
REMARK  Name = 
REMARK  8 active torsions:
REMARK  status: ('A' for Active; 'I' for Inactive)
REMARK    1  A    between atoms: C_1  and  O_2
REMARK    2  A    between atoms: O_2  and  C_3
REMARK    3  A    between atoms: C_5  and  C_6
REMARK    4  A    between atoms: C_10  and  N_11
REMARK    5  A    between atoms: N_11  and  C_12
REMARK    6  A    between atoms: C_12  and  C_13
REMARK    7  A    between atoms: C_15  and  C_16
REMARK    8  A    between atoms: C_20  and  C_21
REMARK                            x       y       z     vdW  Elec       q    Type
REMARK                         _______ _______ _______ _____ _____    ______ ____
ROOT
ATOM      1  C   UNL     1      46.499   5.220  13.165  0.00  0.00    +0.000 A 
ATOM      2  C   UNL     1      47.548   6.100  12.843  0.00  0.00    +0.000 A 
ATOM      3  C   UNL     1      47.324   7.331  12.190  0.00  0.00    +0.000 A 
ATOM      4  C   UNL     1      45.991   7.655  11.876  0.00  0.00    +0.000 A 
ATOM      5  C   UNL     1      44.937   6.796  12.200  0.00  0.00    +0.000 A 
ATOM      6  C   UNL     1      45.198   5.593  12.843  0.00  0.00    +0.000 A 
ATOM      7  F   UNL     1      44.174   4.781  13.138  0.00  0.00    +0.000 F 
ENDROOT
BRANCH   3   8
ATOM      8  C   UNL     1      48.448   8.229  11.840  0.00  0.00    +0.000 A 
ATOM      9  C   UNL     1      48.323   9.620  11.827  0.00  0.00    +0.000 A 
ATOM     10  N   UNL     1      49.313  10.494  11.510  0.00  0.00    +0.000 NA
ATOM     11  C   UNL     1      50.507   9.966  11.172  0.00  0.00    +0.000 A 
ATOM     12  C   UNL     1      50.763   8.607  11.139  0.00  0.00    +0.000 A 
ATOM     13  C   UNL     1      49.716   7.739  11.487  0.00  0.00    +0.000 A 
BRANCH  12  14
ATOM     14  C   UNL     1      52.107   8.083  10.743  0.00  0.00    +0.000 C 
ATOM     15  F   UNL     1      52.058   6.902  10.067  0.00  0.00    +0.000 F 
ATOM     16  F   UNL     1      52.785   8.946   9.939  0.00  0.00    +0.000 F 
ATOM     17  F   UNL     1      52.914   7.864  11.818  0.00  0.00    +0.000 F 
ENDBRANCH  12  14
ENDBRANCH   3   8
BRANCH   1  18
ATOM     18  C   UNL     1      46.787   3.896  13.824  0.00  0.00    +0.000 C 
BRANCH  18  19
ATOM     19  N   UNL     1      46.471   3.956  15.237  0.00  0.00    +0.000 N 
ATOM     20  H   UNL     1      45.683   3.383  15.531  0.00  0.00    +0.000 HD
BRANCH  19  25
ATOM     21  C   UNL     1      49.395   2.521  16.662  0.00  0.00    +0.000 A 
ATOM     22  C   UNL     1      49.526   3.090  17.912  0.00  0.00    +0.000 A 
ATOM     23  C   UNL     1      48.582   4.037  18.274  0.00  0.00    +0.000 A 
ATOM     24  C   UNL     1      47.558   4.374  17.384  0.00  0.00    +0.000 A 
ATOM     25  C   UNL     1      47.498   3.748  16.149  0.00  0.00    +0.000 A 
ATOM     26  N   UNL     1      48.409   2.827  15.789  0.00  0.00    +0.000 NA
BRANCH  23  27
ATOM     27  C   UNL     1      48.620   4.741  19.576  0.00  0.00    +0.000 C 
ATOM     28  N   UNL     1      48.606   3.975  20.708  0.00  0.00    +0.000 N 
ATOM     29  O   UNL     1      48.626   5.963  19.640  0.00  0.00    +0.000 OA
ATOM     30  H   UNL     1      48.399   2.986  20.709  0.00  0.00    +0.000 HD
ATOM     31  H   UNL     1      48.541   4.469  21.588  0.00  0.00    +0.000 HD
ENDBRANCH  23  27
BRANCH  21  33
ATOM     32  C   UNL     1      51.240   1.285  17.389  0.00  0.00    +0.000 C 
ATOM     33  O   UNL     1      50.351   1.585  16.317  0.00  0.00    +0.000 OA
ENDBRANCH  21  33
ENDBRANCH  19  25
ENDBRANCH  18  19
ENDBRANCH   1  18
TORSDOF 7
ENDMDL
