MODEL 1
REMARK VINA RESULT:    -8.443      0.000      0.000
REMARK INTER + INTRA:         -11.523
REMARK INTER:                 -10.911
REMARK INTRA:                  -0.612
REMARK UNBOUND:                -0.612
REMARK  Name = 
REMARK  5 active torsions:
REMARK  status: ('A' for Active; 'I' for Inactive)
REMARK    1  A    between atoms: C_2  and  C_4
REMARK    2  A    between atoms: C_7  and  O_8
REMARK    3  A    between atoms: O_8  and  C_9
REMARK    4  A    between atoms: C_9  and  C_10
REMARK    5  A    between atoms: C_15  and  C_16
REMARK                            x       y       z     vdW  Elec       q    Type
REMARK                         _______ _______ _______ _____ _____    ______ ____
ROOT
ATOM      1  C   UNL     1      43.540   4.748  10.907  0.00  0.00    +0.000 C 
ENDROOT
BRANCH   1   2
ATOM      2  C   UNL     1      44.785   4.973  11.728  0.00  0.00    +0.000 A 
ATOM      3  C   UNL     1      45.261   3.989  12.602  0.00  0.00    +0.000 A 
ATOM      4  C   UNL     1      46.436   4.204  13.318  0.00  0.00    +0.000 A 
ATOM      5  F   UNL     1      46.883   3.247  14.143  0.00  0.00    +0.000 F 
ATOM      6  C   UNL     1      47.160   5.384  13.185  0.00  0.00    +0.000 A 
ATOM      7  C   UNL     1      46.693   6.381  12.327  0.00  0.00    +0.000 A 
ATOM      8  C   UNL     1      45.509   6.172  11.604  0.00  0.00    +0.000 A 
BRANCH   7   9
ATOM      9  C   UNL     1      47.437   7.628  12.131  0.00  0.00    +0.000 C 
ATOM     10  C   UNL     1      48.763   7.609  11.917  0.00  0.00    +0.000 C 
ATOM     11  C   UNL     1      49.544   8.852  11.605  0.00  0.00    +0.000 C 
ATOM     12  O   UNL     1      48.701   9.956  11.265  0.00  0.00    +0.000 OA
ATOM     13  C   UNL     1      47.627  10.116  12.194  0.00  0.00    +0.000 C 
ATOM     14  C   UNL     1      46.672   8.923  12.108  0.00  0.00    +0.000 C 
ENDBRANCH   7   9
ENDBRANCH   1   2
BRANCH   1  15
ATOM     15  O   UNL     1      43.617   3.455  10.308  0.00  0.00    +0.000 OA
BRANCH  15  19
ATOM     16  C   UNL     1      46.422   2.675   7.468  0.00  0.00    +0.000 A 
ATOM     17  N   UNL     1      45.910   3.931   7.447  0.00  0.00    +0.000 NA
ATOM     18  C   UNL     1      44.978   4.196   8.391  0.00  0.00    +0.000 A 
ATOM     19  C   UNL     1      44.548   3.282   9.333  0.00  0.00    +0.000 A 
ATOM     20  C   UNL     1      45.153   2.042   9.255  0.00  0.00    +0.000 A 
ATOM     21  N   UNL     1      46.086   1.706   8.341  0.00  0.00    +0.000 NA
BRANCH  16  23
ATOM     22  N   UNL     1      47.372   3.092   5.252  0.00  0.00    +0.000 N 
ATOM     23  C   UNL     1      47.439   2.340   6.402  0.00  0.00    +0.000 C 
ATOM     24  O   UNL     1      48.285   1.459   6.514  0.00  0.00    +0.000 OA
ATOM     25  H   UNL     1      48.041   2.916   4.516  0.00  0.00    +0.000 HD
ATOM     26  H   UNL     1      46.693   3.839   5.166  0.00  0.00    +0.000 HD
ENDBRANCH  16  23
ENDBRANCH  15  19
ENDBRANCH   1  15
TORSDOF 5
ENDMDL
MODEL 2
REMARK VINA RESULT:    -8.199      2.463      3.315
REMARK INTER + INTRA:         -11.207
REMARK INTER:                 -10.829
REMARK INTRA:                  -0.378
REMARK UNBOUND:                -0.612
REMARK  Name = 
REMARK  5 active torsions:
REMARK  status: ('A' for Active; 'I' for Inactive)
REMARK    1  A    between atoms: C_2  and  C_4
REMARK    2  A    between atoms: C_7  and  O_8
REMARK    3  A    between atoms: O_8  and  C_9
REMARK    4  A    between atoms: C_9  and  C_10
REMARK    5  A    between atoms: C_15  and  C_16
REMARK                            x       y       z     vdW  Elec       q    Type
REMARK                         _______ _______ _______ _____ _____    ______ ____
ROOT
ATOM      1  C   UNL     1      43.874   3.329  11.647  0.00  0.00    +0.000 C 
ENDROOT
BRANCH   1   2
ATOM      2  C   UNL     1      44.708   4.502  12.099  0.00  0.00    +0.000 A 
ATOM      3  C   UNL     1      44.566   5.760  11.501  0.00  0.00    +0.000 A 
ATOM      4  C   UNL     1      45.317   6.838  11.965  0.00  0.00    +0.000 A 
ATOM      5  F   UNL     1      45.163   8.038  11.388  0.00  0.00    +0.000 F 
ATOM      6  C   UNL     1      46.214   6.697  13.018  0.00  0.00    +0.000 A 
ATOM      7  C   UNL     1      46.376   5.446  13.617  0.00  0.00    +0.000 A 
ATOM      8  C   UNL     1      45.624   4.356  13.154  0.00  0.00    +0.000 A 
BRANCH   7   9
ATOM      9  C   UNL     1      47.285   5.255  14.750  0.00  0.00    +0.000 C 
ATOM     10  C   UNL     1      47.204   4.155  15.516  0.00  0.00    +0.000 C 
ATOM     11  C   UNL     1      48.183   3.868  16.617  0.00  0.00    +0.000 C 
ATOM     12  O   UNL     1      49.341   4.705  16.549  0.00  0.00    +0.000 OA
ATOM     13  C   UNL     1      48.999   6.080  16.366  0.00  0.00    +0.000 C 
ATOM     14  C   UNL     1      48.353   6.286  14.994  0.00  0.00    +0.000 C 
ENDBRANCH   7   9
ENDBRANCH   1   2
BRANCH   1  15
ATOM     15  O   UNL     1      43.508   3.529  10.282  0.00  0.00    +0.000 OA
BRANCH  15  19
ATOM     16  C   UNL     1      46.403   2.651   7.565  0.00  0.00    +0.000 A 
ATOM     17  N   UNL     1      45.944   3.927   7.530  0.00  0.00    +0.000 NA
ATOM     18  C   UNL     1      44.982   4.224   8.433  0.00  0.00    +0.000 A 
ATOM     19  C   UNL     1      44.473   3.324   9.349  0.00  0.00    +0.000 A 
ATOM     20  C   UNL     1      45.030   2.061   9.289  0.00  0.00    +0.000 A 
ATOM     21  N   UNL     1      45.989   1.692   8.414  0.00  0.00    +0.000 NA
BRANCH  16  23
ATOM     22  N   UNL     1      47.426   2.998   5.369  0.00  0.00    +0.000 N 
ATOM     23  C   UNL     1      47.453   2.280   6.543  0.00  0.00    +0.000 C 
ATOM     24  O   UNL     1      48.291   1.401   6.708  0.00  0.00    +0.000 OA
ATOM     25  H   UNL     1      48.117   2.797   4.661  0.00  0.00    +0.000 HD
ATOM     26  H   UNL     1      46.753   3.744   5.239  0.00  0.00    +0.000 HD
ENDBRANCH  16  23
ENDBRANCH  15  19
ENDBRANCH   1  15
TORSDOF 5
ENDMDL
MODEL 3
REMARK VINA RESULT:    -8.089      1.788      2.244
REMARK INTER + INTRA:         -11.066
REMARK INTER:                 -10.279
REMARK INTRA:                  -0.787
REMARK UNBOUND:                -0.612
REMARK  Name = 
REMARK  5 active torsions:
REMARK  status: ('A' for Active; 'I' for Inactive)
REMARK    1  A    between atoms: C_2  and  C_4
REMARK    2  A    between atoms: C_7  and  O_8
REMARK    3  A    between atoms: O_8  and  C_9
REMARK    4  A    between atoms: C_9  and  C_10
REMARK    5  A    between atoms: C_15  and  C_16
REMARK                            x       y       z     vdW  Elec       q    Type
REMARK                         _______ _______ _______ _____ _____    ______ ____
ROOT
ATOM      1  C   UNL     1      43.867   4.159  11.578  0.00  0.00    +0.000 C 
ENDROOT
BRANCH   1   2
ATOM      2  C   UNL     1      44.766   5.266  12.070  0.00  0.00    +0.000 A 
ATOM      3  C   UNL     1      45.897   4.986  12.844  0.00  0.00    +0.000 A 
ATOM      4  C   UNL     1      46.735   6.022  13.251  0.00  0.00    +0.000 A 
ATOM      5  F   UNL     1      47.820   5.735  13.984  0.00  0.00    +0.000 F 
ATOM      6  C   UNL     1      46.476   7.343  12.903  0.00  0.00    +0.000 A 
ATOM      7  C   UNL     1      45.345   7.641  12.141  0.00  0.00    +0.000 A 
ATOM      8  C   UNL     1      44.496   6.602  11.730  0.00  0.00    +0.000 A 
BRANCH   7   9
ATOM      9  C   UNL     1      45.046   9.013  11.724  0.00  0.00    +0.000 C 
ATOM     10  C   UNL     1      45.900  10.014  11.998  0.00  0.00    +0.000 C 
ATOM     11  C   UNL     1      45.686  11.412  11.496  0.00  0.00    +0.000 C 
ATOM     12  O   UNL     1      44.684  11.480  10.478  0.00  0.00    +0.000 OA
ATOM     13  C   UNL     1      43.501  10.763  10.841  0.00  0.00    +0.000 C 
ATOM     14  C   UNL     1      43.797   9.264  10.926  0.00  0.00    +0.000 C 
ENDBRANCH   7   9
ENDBRANCH   1   2
BRANCH   1  15
ATOM     15  O   UNL     1      43.655   4.333  10.178  0.00  0.00    +0.000 OA
BRANCH  15  19
ATOM     16  C   UNL     1      46.388   2.522   7.772  0.00  0.00    +0.000 A 
ATOM     17  N   UNL     1      46.284   3.866   7.621  0.00  0.00    +0.000 NA
ATOM     18  C   UNL     1      45.377   4.473   8.420  0.00  0.00    +0.000 A 
ATOM     19  C   UNL     1      44.591   3.812   9.343  0.00  0.00    +0.000 A 
ATOM     20  C   UNL     1      44.799   2.447   9.407  0.00  0.00    +0.000 A 
ATOM     21  N   UNL     1      45.682   1.774   8.640  0.00  0.00    +0.000 NA
BRANCH  16  23
ATOM     22  N   UNL     1      48.451   2.554   6.457  0.00  0.00    +0.000 N 
ATOM     23  C   UNL     1      47.367   1.813   6.866  0.00  0.00    +0.000 C 
ATOM     24  O   UNL     1      47.239   0.651   6.493  0.00  0.00    +0.000 OA
ATOM     25  H   UNL     1      49.142   2.119   5.863  0.00  0.00    +0.000 HD
ATOM     26  H   UNL     1      48.576   3.505   6.785  0.00  0.00    +0.000 HD
ENDBRANCH  16  23
ENDBRANCH  15  19
ENDBRANCH   1  15
TORSDOF 5
ENDMDL
MODEL 4
REMARK VINA RESULT:    -7.624      2.009      2.657
REMARK INTER + INTRA:         -10.464
REMARK INTER:                  -9.853
REMARK INTRA:                  -0.611
REMARK UNBOUND:                -0.612
REMARK  Name = 
REMARK  5 active torsions:
REMARK  status: ('A' for Active; 'I' for Inactive)
REMARK    1  A    between atoms: C_2  and  C_4
REMARK    2  A    between atoms: C_7  and  O_8
REMARK    3  A    between atoms: O_8  and  C_9
REMARK    4  A    between atoms: C_9  and  C_10
REMARK    5  A    between atoms: C_15  and  C_16
REMARK                            x       y       z     vdW  Elec       q    Type
REMARK                         _______ _______ _______ _____ _____    ______ ____
ROOT
ATOM      1  C   UNL     1      44.361   4.112  11.734  0.00  0.00    +0.000 C 
ENDROOT
BRANCH   1   2
ATOM      2  C   UNL     1      44.825   5.546  11.789  0.00  0.00    +0.000 A 
ATOM      3  C   UNL     1      44.009   6.586  11.329  0.00  0.00    +0.000 A 
ATOM      4  C   UNL     1      44.442   7.906  11.430  0.00  0.00    +0.000 A 
ATOM      5  F   UNL     1      43.645   8.891  10.993  0.00  0.00    +0.000 F 
ATOM      6  C   UNL     1      45.678   8.223  11.983  0.00  0.00    +0.000 A 
ATOM      7  C   UNL     1      46.509   7.197  12.436  0.00  0.00    +0.000 A 
ATOM      8  C   UNL     1      46.079   5.865  12.336  0.00  0.00    +0.000 A 
BRANCH   7   9
ATOM      9  C   UNL     1      47.806   7.482  13.054  0.00  0.00    +0.000 C 
ATOM     10  C   UNL     1      48.192   6.838  14.168  0.00  0.00    +0.000 C 
ATOM     11  C   UNL     1      49.554   7.021  14.772  0.00  0.00    +0.000 C 
ATOM     12  O   UNL     1      50.458   7.687  13.886  0.00  0.00    +0.000 OA
ATOM     13  C   UNL     1      49.876   8.855  13.303  0.00  0.00    +0.000 C 
ATOM     14  C   UNL     1      48.722   8.465  12.377  0.00  0.00    +0.000 C 
ENDBRANCH   7   9
ENDBRANCH   1   2
BRANCH   1  15
ATOM     15  O   UNL     1      43.831   3.854  10.434  0.00  0.00    +0.000 OA
BRANCH  15  19
ATOM     16  C   UNL     1      46.463   2.732   7.545  0.00  0.00    +0.000 A 
ATOM     17  N   UNL     1      46.013   1.729   8.339  0.00  0.00    +0.000 NA
ATOM     18  C   UNL     1      45.136   2.097   9.301  0.00  0.00    +0.000 A 
ATOM     19  C   UNL     1      44.698   3.392   9.496  0.00  0.00    +0.000 A 
ATOM     20  C   UNL     1      45.223   4.319   8.616  0.00  0.00    +0.000 A 
ATOM     21  N   UNL     1      46.103   4.026   7.636  0.00  0.00    +0.000 NA
BRANCH  16  23
ATOM     22  N   UNL     1      47.443   3.110   5.335  0.00  0.00    +0.000 N 
ATOM     23  C   UNL     1      47.473   2.355   6.485  0.00  0.00    +0.000 C 
ATOM     24  O   UNL     1      48.281   1.441   6.602  0.00  0.00    +0.000 OA
ATOM     25  H   UNL     1      48.109   2.906   4.603  0.00  0.00    +0.000 HD
ATOM     26  H   UNL     1      46.796   3.884   5.245  0.00  0.00    +0.000 HD
ENDBRANCH  16  23
ENDBRANCH  15  19
ENDBRANCH   1  15
TORSDOF 5
ENDMDL
MODEL 5
REMARK VINA RESULT:    -7.516      3.595      7.043
REMARK INTER + INTRA:         -10.325
REMARK INTER:                  -9.721
REMARK INTRA:                  -0.603
REMARK UNBOUND:                -0.612
REMARK  Name = 
REMARK  5 active torsions:
REMARK  status: ('A' for Active; 'I' for Inactive)
REMARK    1  A    between atoms: C_2  and  C_4
REMARK    2  A    between atoms: C_7  and  O_8
REMARK    3  A    between atoms: O_8  and  C_9
REMARK    4  A    between atoms: C_9  and  C_10
REMARK    5  A    between atoms: C_15  and  C_16
REMARK                            x       y       z     vdW  Elec       q    Type
REMARK                         _______ _______ _______ _____ _____    ______ ____
ROOT
ATOM      1  C   UNL     1      44.929   6.561  10.904  0.00  0.00    +0.000 C 
ENDROOT
BRANCH   1   2
ATOM      2  C   UNL     1      44.774   5.101  10.558  0.00  0.00    +0.000 A 
ATOM      3  C   UNL     1      43.893   4.281  11.271  0.00  0.00    +0.000 A 
ATOM      4  C   UNL     1      43.736   2.946  10.906  0.00  0.00    +0.000 A 
ATOM      5  F   UNL     1      42.881   2.176  11.593  0.00  0.00    +0.000 F 
ATOM      6  C   UNL     1      44.438   2.400   9.837  0.00  0.00    +0.000 A 
ATOM      7  C   UNL     1      45.330   3.202   9.122  0.00  0.00    +0.000 A 
ATOM      8  C   UNL     1      45.495   4.547   9.486  0.00  0.00    +0.000 A 
BRANCH   7   9
ATOM      9  C   UNL     1      46.069   2.680   7.969  0.00  0.00    +0.000 C 
ATOM     10  C   UNL     1      46.357   3.473   6.924  0.00  0.00    +0.000 C 
ATOM     11  C   UNL     1      47.203   3.011   5.773  0.00  0.00    +0.000 C 
ATOM     12  O   UNL     1      47.895   1.792   6.060  0.00  0.00    +0.000 OA
ATOM     13  C   UNL     1      47.031   0.806   6.631  0.00  0.00    +0.000 C 
ATOM     14  C   UNL     1      46.554   1.258   8.013  0.00  0.00    +0.000 C 
ENDBRANCH   7   9
ENDBRANCH   1   2
BRANCH   1  15
ATOM     15  O   UNL     1      44.897   6.699  12.324  0.00  0.00    +0.000 OA
BRANCH  15  19
ATOM     16  C   UNL     1      48.488   6.931  14.220  0.00  0.00    +0.000 A 
ATOM     17  N   UNL     1      47.949   8.121  13.852  0.00  0.00    +0.000 NA
ATOM     18  C   UNL     1      46.754   8.048  13.222  0.00  0.00    +0.000 A 
ATOM     19  C   UNL     1      46.089   6.868  12.954  0.00  0.00    +0.000 A 
ATOM     20  C   UNL     1      46.738   5.727  13.388  0.00  0.00    +0.000 A 
ATOM     21  N   UNL     1      47.930   5.723  14.018  0.00  0.00    +0.000 NA
BRANCH  16  23
ATOM     22  N   UNL     1      50.796   7.744  14.263  0.00  0.00    +0.000 N 
ATOM     23  C   UNL     1      49.840   6.979  14.892  0.00  0.00    +0.000 C 
ATOM     24  O   UNL     1      50.111   6.388  15.931  0.00  0.00    +0.000 OA
ATOM     25  H   UNL     1      51.711   7.819  14.683  0.00  0.00    +0.000 HD
ATOM     26  H   UNL     1      50.569   8.257  13.420  0.00  0.00    +0.000 HD
ENDBRANCH  16  23
ENDBRANCH  15  19
ENDBRANCH   1  15
TORSDOF 5
ENDMDL
MODEL 6
REMARK VINA RESULT:    -7.451      4.120      7.268
REMARK INTER + INTRA:         -10.241
REMARK INTER:                  -9.873
REMARK INTRA:                  -0.368
REMARK UNBOUND:                -0.612
REMARK  Name = 
REMARK  5 active torsions:
REMARK  status: ('A' for Active; 'I' for Inactive)
REMARK    1  A    between atoms: C_2  and  C_4
REMARK    2  A    between atoms: C_7  and  O_8
REMARK    3  A    between atoms: O_8  and  C_9
REMARK    4  A    between atoms: C_9  and  C_10
REMARK    5  A    between atoms: C_15  and  C_16
REMARK                            x       y       z     vdW  Elec       q    Type
REMARK                         _______ _______ _______ _____ _____    ______ ____
ROOT
ATOM      1  C   UNL     1      46.346   7.383  12.379  0.00  0.00    +0.000 C 
ENDROOT
BRANCH   1   2
ATOM      2  C   UNL     1      45.370   6.449  11.708  0.00  0.00    +0.000 A 
ATOM      3  C   UNL     1      44.002   6.506  11.997  0.00  0.00    +0.000 A 
ATOM      4  C   UNL     1      43.116   5.661  11.332  0.00  0.00    +0.000 A 
ATOM      5  F   UNL     1      41.808   5.734  11.613  0.00  0.00    +0.000 F 
ATOM      6  C   UNL     1      43.559   4.752  10.377  0.00  0.00    +0.000 A 
ATOM      7  C   UNL     1      44.923   4.674  10.086  0.00  0.00    +0.000 A 
ATOM      8  C   UNL     1      45.820   5.521  10.753  0.00  0.00    +0.000 A 
BRANCH   7   9
ATOM      9  C   UNL     1      45.433   3.755   9.066  0.00  0.00    +0.000 C 
ATOM     10  C   UNL     1      45.934   4.223   7.911  0.00  0.00    +0.000 C 
ATOM     11  C   UNL     1      46.565   3.325   6.887  0.00  0.00    +0.000 C 
ATOM     12  O   UNL     1      46.841   2.019   7.402  0.00  0.00    +0.000 OA
ATOM     13  C   UNL     1      45.723   1.471   8.102  0.00  0.00    +0.000 C 
ATOM     14  C   UNL     1      45.444   2.282   9.370  0.00  0.00    +0.000 C 
ENDBRANCH   7   9
ENDBRANCH   1   2
BRANCH   1  15
ATOM     15  O   UNL     1      47.560   6.675  12.624  0.00  0.00    +0.000 OA
BRANCH  15  19
ATOM     16  C   UNL     1      47.809   4.502  16.054  0.00  0.00    +0.000 A 
ATOM     17  N   UNL     1      47.110   3.919  15.048  0.00  0.00    +0.000 NA
ATOM     18  C   UNL     1      47.026   4.637  13.905  0.00  0.00    +0.000 A 
ATOM     19  C   UNL     1      47.599   5.882  13.727  0.00  0.00    +0.000 A 
ATOM     20  C   UNL     1      48.292   6.361  14.822  0.00  0.00    +0.000 A 
ATOM     21  N   UNL     1      48.415   5.703  15.993  0.00  0.00    +0.000 NA
BRANCH  16  23
ATOM     22  N   UNL     1      46.860   2.859  17.597  0.00  0.00    +0.000 N 
ATOM     23  C   UNL     1      47.889   3.739  17.355  0.00  0.00    +0.000 C 
ATOM     24  O   UNL     1      48.795   3.868  18.171  0.00  0.00    +0.000 OA
ATOM     25  H   UNL     1      46.876   2.314  18.447  0.00  0.00    +0.000 HD
ATOM     26  H   UNL     1      46.124   2.728  16.913  0.00  0.00    +0.000 HD
ENDBRANCH  16  23
ENDBRANCH  15  19
ENDBRANCH   1  15
TORSDOF 5
ENDMDL
MODEL 7
REMARK VINA RESULT:    -7.197      2.730      3.919
REMARK INTER + INTRA:          -9.913
REMARK INTER:                  -9.400
REMARK INTRA:                  -0.512
REMARK UNBOUND:                -0.612
REMARK  Name = 
REMARK  5 active torsions:
REMARK  status: ('A' for Active; 'I' for Inactive)
REMARK    1  A    between atoms: C_2  and  C_4
REMARK    2  A    between atoms: C_7  and  O_8
REMARK    3  A    between atoms: O_8  and  C_9
REMARK    4  A    between atoms: C_9  and  C_10
REMARK    5  A    between atoms: C_15  and  C_16
REMARK                            x       y       z     vdW  Elec       q    Type
REMARK                         _______ _______ _______ _____ _____    ______ ____
ROOT
ATOM      1  C   UNL     1      44.778   5.997  11.149  0.00  0.00    +0.000 C 
ENDROOT
BRANCH   1   2
ATOM      2  C   UNL     1      46.091   6.214  11.859  0.00  0.00    +0.000 A 
ATOM      3  C   UNL     1      47.086   7.025  11.303  0.00  0.00    +0.000 A 
ATOM      4  C   UNL     1      48.274   7.243  11.997  0.00  0.00    +0.000 A 
ATOM      5  F   UNL     1      49.213   8.031  11.455  0.00  0.00    +0.000 F 
ATOM      6  C   UNL     1      48.500   6.671  13.245  0.00  0.00    +0.000 A 
ATOM      7  C   UNL     1      47.522   5.849  13.808  0.00  0.00    +0.000 A 
ATOM      8  C   UNL     1      46.325   5.623  13.113  0.00  0.00    +0.000 A 
BRANCH   7   9
ATOM      9  C   UNL     1      47.701   5.248  15.132  0.00  0.00    +0.000 C 
ATOM     10  C   UNL     1      47.137   4.066  15.432  0.00  0.00    +0.000 C 
ATOM     11  C   UNL     1      47.383   3.366  16.736  0.00  0.00    +0.000 C 
ATOM     12  O   UNL     1      48.485   3.924  17.456  0.00  0.00    +0.000 OA
ATOM     13  C   UNL     1      48.415   5.351  17.522  0.00  0.00    +0.000 C 
ATOM     14  C   UNL     1      48.584   5.953  16.126  0.00  0.00    +0.000 C 
ENDBRANCH   7   9
ENDBRANCH   1   2
BRANCH   1  15
ATOM     15  O   UNL     1      44.540   4.594  11.049  0.00  0.00    +0.000 OA
BRANCH  15  19
ATOM     16  C   UNL     1      46.205   2.924   7.736  0.00  0.00    +0.000 A 
ATOM     17  N   UNL     1      45.748   2.043   8.661  0.00  0.00    +0.000 NA
ATOM     18  C   UNL     1      45.192   2.594   9.764  0.00  0.00    +0.000 A 
ATOM     19  C   UNL     1      45.073   3.953   9.976  0.00  0.00    +0.000 A 
ATOM     20  C   UNL     1      45.568   4.743   8.956  0.00  0.00    +0.000 A 
ATOM     21  N   UNL     1      46.137   4.265   7.831  0.00  0.00    +0.000 NA
BRANCH  16  23
ATOM     22  N   UNL     1      47.057   3.204   5.460  0.00  0.00    +0.000 N 
ATOM     23  C   UNL     1      46.865   2.337   6.510  0.00  0.00    +0.000 C 
ATOM     24  O   UNL     1      47.218   1.166   6.415  0.00  0.00    +0.000 OA
ATOM     25  H   UNL     1      47.508   2.862   4.624  0.00  0.00    +0.000 HD
ATOM     26  H   UNL     1      46.792   4.179   5.544  0.00  0.00    +0.000 HD
ENDBRANCH  16  23
ENDBRANCH  15  19
ENDBRANCH   1  15
TORSDOF 5
ENDMDL
MODEL 8
REMARK VINA RESULT:    -6.547      5.426      8.416
REMARK INTER + INTRA:          -9.072
REMARK INTER:                  -8.455
REMARK INTRA:                  -0.617
REMARK UNBOUND:                -0.612
REMARK  Name = 
REMARK  5 active torsions:
REMARK  status: ('A' for Active; 'I' for Inactive)
REMARK    1  A    between atoms: C_2  and  C_4
REMARK    2  A    between atoms: C_7  and  O_8
REMARK    3  A    between atoms: O_8  and  C_9
REMARK    4  A    between atoms: C_9  and  C_10
REMARK    5  A    between atoms: C_15  and  C_16
REMARK                            x       y       z     vdW  Elec       q    Type
REMARK                         _______ _______ _______ _____ _____    ______ ____
ROOT
ATOM      1  C   UNL     1      48.421   7.291  14.015  0.00  0.00    +0.000 C 
ENDROOT
BRANCH   1   2
ATOM      2  C   UNL     1      47.176   7.362  13.167  0.00  0.00    +0.000 A 
ATOM      3  C   UNL     1      46.409   8.532  13.107  0.00  0.00    +0.000 A 
ATOM      4  C   UNL     1      45.287   8.586  12.284  0.00  0.00    +0.000 A 
ATOM      5  F   UNL     1      44.569   9.717  12.231  0.00  0.00    +0.000 F 
ATOM      6  C   UNL     1      44.903   7.498  11.508  0.00  0.00    +0.000 A 
ATOM      7  C   UNL     1      45.650   6.319  11.565  0.00  0.00    +0.000 A 
ATOM      8  C   UNL     1      46.781   6.257  12.394  0.00  0.00    +0.000 A 
BRANCH   7   9
ATOM      9  C   UNL     1      45.304   5.156  10.744  0.00  0.00    +0.000 C 
ATOM     10  C   UNL     1      45.539   5.156   9.421  0.00  0.00    +0.000 C 
ATOM     11  C   UNL     1      45.300   3.949   8.563  0.00  0.00    +0.000 C 
ATOM     12  O   UNL     1      45.103   2.761   9.334  0.00  0.00    +0.000 OA
ATOM     13  C   UNL     1      44.169   2.961  10.398  0.00  0.00    +0.000 C 
ATOM     14  C   UNL     1      44.740   3.940  11.425  0.00  0.00    +0.000 C 
ENDBRANCH   7   9
ENDBRANCH   1   2
BRANCH   1  15
ATOM     15  O   UNL     1      48.546   5.967  14.531  0.00  0.00    +0.000 OA
BRANCH  15  19
ATOM     16  C   UNL     1      48.323   5.316  18.540  0.00  0.00    +0.000 A 
ATOM     17  N   UNL     1      49.048   6.401  18.168  0.00  0.00    +0.000 NA
ATOM     18  C   UNL     1      49.124   6.622  16.836  0.00  0.00    +0.000 A 
ATOM     19  C   UNL     1      48.518   5.827  15.882  0.00  0.00    +0.000 A 
ATOM     20  C   UNL     1      47.801   4.760  16.389  0.00  0.00    +0.000 A 
ATOM     21  N   UNL     1      47.685   4.477  17.703  0.00  0.00    +0.000 NA
BRANCH  16  23
ATOM     22  N   UNL     1      48.585   3.742  20.395  0.00  0.00    +0.000 N 
ATOM     23  C   UNL     1      48.252   5.024  20.020  0.00  0.00    +0.000 C 
ATOM     24  O   UNL     1      47.920   5.846  20.867  0.00  0.00    +0.000 OA
ATOM     25  H   UNL     1      48.567   3.503  21.375  0.00  0.00    +0.000 HD
ATOM     26  H   UNL     1      48.886   3.067  19.702  0.00  0.00    +0.000 HD
ENDBRANCH  16  23
ENDBRANCH  15  19
ENDBRANCH   1  15
TORSDOF 5
ENDMDL
MODEL 9
REMARK VINA RESULT:    -6.535      6.161      8.519
REMARK INTER + INTRA:          -9.057
REMARK INTER:                  -8.482
REMARK INTRA:                  -0.575
REMARK UNBOUND:                -0.612
REMARK  Name = 
REMARK  5 active torsions:
REMARK  status: ('A' for Active; 'I' for Inactive)
REMARK    1  A    between atoms: C_2  and  C_4
REMARK    2  A    between atoms: C_7  and  O_8
REMARK    3  A    between atoms: O_8  and  C_9
REMARK    4  A    between atoms: C_9  and  C_10
REMARK    5  A    between atoms: C_15  and  C_16
REMARK                            x       y       z     vdW  Elec       q    Type
REMARK                         _______ _______ _______ _____ _____    ______ ____
ROOT
ATOM      1  C   UNL     1      47.969   3.918  16.734  0.00  0.00    +0.000 C 
ENDROOT
BRANCH   1   2
ATOM      2  C   UNL     1      47.554   4.748  15.544  0.00  0.00    +0.000 A 
ATOM      3  C   UNL     1      48.300   5.864  15.149  0.00  0.00    +0.000 A 
ATOM      4  C   UNL     1      47.921   6.589  14.022  0.00  0.00    +0.000 A 
ATOM      5  F   UNL     1      48.651   7.650  13.650  0.00  0.00    +0.000 F 
ATOM      6  C   UNL     1      46.808   6.230  13.269  0.00  0.00    +0.000 A 
ATOM      7  C   UNL     1      46.046   5.125  13.657  0.00  0.00    +0.000 A 
ATOM      8  C   UNL     1      46.422   4.392  14.792  0.00  0.00    +0.000 A 
BRANCH   7   9
ATOM      9  C   UNL     1      44.884   4.689  12.879  0.00  0.00    +0.000 C 
ATOM     10  C   UNL     1      43.836   5.509  12.693  0.00  0.00    +0.000 C 
ATOM     11  C   UNL     1      42.675   5.143  11.816  0.00  0.00    +0.000 C 
ATOM     12  O   UNL     1      42.952   4.009  10.989  0.00  0.00    +0.000 OA
ATOM     13  C   UNL     1      43.531   2.934  11.731  0.00  0.00    +0.000 C 
ATOM     14  C   UNL     1      44.920   3.329  12.238  0.00  0.00    +0.000 C 
ENDBRANCH   7   9
ENDBRANCH   1   2
BRANCH   1  15
ATOM     15  O   UNL     1      49.189   4.445  17.254  0.00  0.00    +0.000 OA
BRANCH  15  19
ATOM     16  C   UNL     1      52.113   1.641  17.614  0.00  0.00    +0.000 A 
ATOM     17  N   UNL     1      52.462   2.895  17.998  0.00  0.00    +0.000 NA
ATOM     18  C   UNL     1      51.493   3.830  17.881  0.00  0.00    +0.000 A 
ATOM     19  C   UNL     1      50.219   3.573  17.412  0.00  0.00    +0.000 A 
ATOM     20  C   UNL     1      49.986   2.256  17.064  0.00  0.00    +0.000 A 
ATOM     21  N   UNL     1      50.904   1.272  17.150  0.00  0.00    +0.000 NA
BRANCH  16  23
ATOM     22  N   UNL     1      52.884  -0.520  18.464  0.00  0.00    +0.000 N 
ATOM     23  C   UNL     1      53.188   0.583  17.700  0.00  0.00    +0.000 C 
ATOM     24  O   UNL     1      54.276   0.664  17.141  0.00  0.00    +0.000 OA
ATOM     25  H   UNL     1      53.565  -1.262  18.538  0.00  0.00    +0.000 HD
ATOM     26  H   UNL     1      51.975  -0.605  18.904  0.00  0.00    +0.000 HD
ENDBRANCH  16  23
ENDBRANCH  15  19
ENDBRANCH   1  15
TORSDOF 5
ENDMDL
