MODEL 1
REMARK VINA RESULT:    -7.339      0.000      0.000
REMARK INTER + INTRA:          -9.508
REMARK INTER:                  -9.055
REMARK INTRA:                  -0.452
REMARK UNBOUND:                -0.452
REMARK  Name = 
REMARK  6 active torsions:
REMARK  status: ('A' for Active; 'I' for Inactive)
REMARK    1  A    between atoms: C_1  and  O_2
REMARK    2  A    between atoms: O_2  and  C_3
REMARK    3  A    between atoms: C_7  and  C_8
REMARK    4  A    between atoms: C_8  and  N_9
REMARK    5  A    between atoms: C_14  and  C_15
REMARK    6  A    between atoms: C_21  and  C_22
REMARK                            x       y       z     vdW  Elec       q    Type
REMARK                         _______ _______ _______ _____ _____    ______ ____
ROOT
ATOM      1  N   UNL     1      44.400   4.863  11.426  0.00  0.00    +0.000 N 
ATOM      2  C   UNL     1      43.988   4.033  12.437  0.00  0.00    +0.000 A 
ATOM      3  N   UNL     1      44.790   4.093  13.482  0.00  0.00    +0.000 NA
ATOM      4  C   UNL     1      45.763   4.999  13.135  0.00  0.00    +0.000 A 
ATOM      5  C   UNL     1      46.921   5.401  13.807  0.00  0.00    +0.000 A 
ATOM      6  C   UNL     1      47.741   6.333  13.159  0.00  0.00    +0.000 A 
ATOM      7  C   UNL     1      47.338   6.830  11.914  0.00  0.00    +0.000 A 
ATOM      8  N   UNL     1      46.229   6.456  11.214  0.00  0.00    +0.000 NA
ATOM      9  C   UNL     1      45.504   5.537  11.880  0.00  0.00    +0.000 A 
ENDROOT
BRANCH   6  10
ATOM     10  C   UNL     1      49.042   6.800  13.696  0.00  0.00    +0.000 C 
ATOM     11  N   UNL     1      49.930   7.401  12.850  0.00  0.00    +0.000 N 
ATOM     12  O   UNL     1      49.317   6.674  14.884  0.00  0.00    +0.000 OA
ATOM     13  H   UNL     1      49.779   7.578  11.869  0.00  0.00    +0.000 HD
ATOM     14  H   UNL     1      50.790   7.742  13.261  0.00  0.00    +0.000 HD
ENDBRANCH   6  10
BRANCH   1  15
ATOM     15  C   UNL     1      43.953   4.804  10.045  0.00  0.00    +0.000 C 
BRANCH  15  20
ATOM     16  C   UNL     1      45.956   2.147   8.273  0.00  0.00    +0.000 A 
ATOM     17  N   UNL     1      46.734   2.891   7.468  0.00  0.00    +0.000 NA
ATOM     18  C   UNL     1      46.541   4.207   7.546  0.00  0.00    +0.000 A 
ATOM     19  N   UNL     1      45.682   4.827   8.368  0.00  0.00    +0.000 NA
ATOM     20  C   UNL     1      44.895   4.043   9.151  0.00  0.00    +0.000 A 
ATOM     21  C   UNL     1      44.957   2.653   9.095  0.00  0.00    +0.000 A 
ATOM     22  C   UNL     1      44.064   1.720   9.855  0.00  0.00    +0.000 C 
BRANCH  16  24
ATOM     23  C   UNL     1      47.082   0.367   7.277  0.00  0.00    +0.000 C 
ATOM     24  O   UNL     1      46.154   0.779   8.281  0.00  0.00    +0.000 OA
ENDBRANCH  16  24
ENDBRANCH  15  20
ENDBRANCH   1  15
TORSDOF 4
ENDMDL
MODEL 2
REMARK VINA RESULT:    -7.214      2.292      6.491
REMARK INTER + INTRA:          -9.354
REMARK INTER:                  -8.932
REMARK INTRA:                  -0.421
REMARK UNBOUND:                -0.452
REMARK  Name = 
REMARK  6 active torsions:
REMARK  status: ('A' for Active; 'I' for Inactive)
REMARK    1  A    between atoms: C_1  and  O_2
REMARK    2  A    between atoms: O_2  and  C_3
REMARK    3  A    between atoms: C_7  and  C_8
REMARK    4  A    between atoms: C_8  and  N_9
REMARK    5  A    between atoms: C_14  and  C_15
REMARK    6  A    between atoms: C_21  and  C_22
REMARK                            x       y       z     vdW  Elec       q    Type
REMARK                         _______ _______ _______ _____ _____    ______ ____
ROOT
ATOM      1  N   UNL     1      44.009   4.706  10.756  0.00  0.00    +0.000 N 
ATOM      2  C   UNL     1      43.405   3.587  11.271  0.00  0.00    +0.000 A 
ATOM      3  N   UNL     1      43.768   2.492  10.632  0.00  0.00    +0.000 NA
ATOM      4  C   UNL     1      44.643   2.919   9.662  0.00  0.00    +0.000 A 
ATOM      5  C   UNL     1      45.281   2.219   8.633  0.00  0.00    +0.000 A 
ATOM      6  C   UNL     1      46.099   2.960   7.771  0.00  0.00    +0.000 A 
ATOM      7  C   UNL     1      46.260   4.330   8.013  0.00  0.00    +0.000 A 
ATOM      8  N   UNL     1      45.648   5.056   8.991  0.00  0.00    +0.000 NA
ATOM      9  C   UNL     1      44.854   4.289   9.762  0.00  0.00    +0.000 A 
ENDROOT
BRANCH   6  10
ATOM     10  C   UNL     1      46.778   2.387   6.584  0.00  0.00    +0.000 C 
ATOM     11  N   UNL     1      47.067   3.206   5.529  0.00  0.00    +0.000 N 
ATOM     12  O   UNL     1      47.101   1.206   6.549  0.00  0.00    +0.000 OA
ATOM     13  H   UNL     1      46.871   4.193   5.480  0.00  0.00    +0.000 HD
ATOM     14  H   UNL     1      47.567   2.788   4.754  0.00  0.00    +0.000 HD
ENDBRANCH   6  10
BRANCH   1  15
ATOM     15  C   UNL     1      43.595   6.078  10.996  0.00  0.00    +0.000 C 
BRANCH  15  20
ATOM     16  C   UNL     1      45.837   8.828  12.269  0.00  0.00    +0.000 A 
ATOM     17  N   UNL     1      46.659   8.147  13.085  0.00  0.00    +0.000 NA
ATOM     18  C   UNL     1      46.415   6.841  13.179  0.00  0.00    +0.000 A 
ATOM     19  N   UNL     1      45.466   6.169  12.511  0.00  0.00    +0.000 NA
ATOM     20  C   UNL     1      44.639   6.894  11.712  0.00  0.00    +0.000 A 
ATOM     21  C   UNL     1      44.752   8.277  11.599  0.00  0.00    +0.000 A 
ATOM     22  C   UNL     1      43.826   9.156  10.815  0.00  0.00    +0.000 C 
BRANCH  16  24
ATOM     23  C   UNL     1      47.476  10.472  12.069  0.00  0.00    +0.000 C 
ATOM     24  O   UNL     1      46.080  10.177  12.085  0.00  0.00    +0.000 OA
ENDBRANCH  16  24
ENDBRANCH  15  20
ENDBRANCH   1  15
TORSDOF 4
ENDMDL
MODEL 3
REMARK VINA RESULT:    -6.943      1.883      2.531
REMARK INTER + INTRA:          -9.019
REMARK INTER:                  -8.411
REMARK INTRA:                  -0.609
REMARK UNBOUND:                -0.452
REMARK  Name = 
REMARK  6 active torsions:
REMARK  status: ('A' for Active; 'I' for Inactive)
REMARK    1  A    between atoms: C_1  and  O_2
REMARK    2  A    between atoms: O_2  and  C_3
REMARK    3  A    between atoms: C_7  and  C_8
REMARK    4  A    between atoms: C_8  and  N_9
REMARK    5  A    between atoms: C_14  and  C_15
REMARK    6  A    between atoms: C_21  and  C_22
REMARK                            x       y       z     vdW  Elec       q    Type
REMARK                         _______ _______ _______ _____ _____    ______ ____
ROOT
ATOM      1  N   UNL     1      45.704   5.821  11.490  0.00  0.00    +0.000 N 
ATOM      2  C   UNL     1      46.112   7.128  11.572  0.00  0.00    +0.000 A 
ATOM      3  N   UNL     1      46.772   7.369  12.688  0.00  0.00    +0.000 NA
ATOM      4  C   UNL     1      46.793   6.169  13.357  0.00  0.00    +0.000 A 
ATOM      5  C   UNL     1      47.275   5.837  14.627  0.00  0.00    +0.000 A 
ATOM      6  C   UNL     1      47.113   4.511  15.043  0.00  0.00    +0.000 A 
ATOM      7  C   UNL     1      46.523   3.598  14.159  0.00  0.00    +0.000 A 
ATOM      8  N   UNL     1      46.024   3.878  12.922  0.00  0.00    +0.000 NA
ATOM      9  C   UNL     1      46.185   5.175  12.599  0.00  0.00    +0.000 A 
ENDROOT
BRANCH   6  10
ATOM     10  C   UNL     1      47.493   4.016  16.388  0.00  0.00    +0.000 C 
ATOM     11  N   UNL     1      48.714   4.355  16.897  0.00  0.00    +0.000 N 
ATOM     12  O   UNL     1      46.721   3.332  17.051  0.00  0.00    +0.000 OA
ATOM     13  H   UNL     1      49.399   4.938  16.442  0.00  0.00    +0.000 HD
ATOM     14  H   UNL     1      48.921   4.033  17.834  0.00  0.00    +0.000 HD
ENDBRANCH   6  10
BRANCH   1  15
ATOM     15  C   UNL     1      44.697   5.303  10.579  0.00  0.00    +0.000 C 
BRANCH  15  20
ATOM     16  C   UNL     1      45.717   2.351   8.469  0.00  0.00    +0.000 A 
ATOM     17  N   UNL     1      46.458   2.946   7.518  0.00  0.00    +0.000 NA
ATOM     18  C   UNL     1      46.561   4.270   7.621  0.00  0.00    +0.000 A 
ATOM     19  N   UNL     1      46.028   5.026   8.591  0.00  0.00    +0.000 NA
ATOM     20  C   UNL     1      45.265   4.394   9.523  0.00  0.00    +0.000 A 
ATOM     21  C   UNL     1      45.026   3.023   9.469  0.00  0.00    +0.000 A 
ATOM     22  C   UNL     1      44.126   2.270  10.400  0.00  0.00    +0.000 C 
BRANCH  16  24
ATOM     23  C   UNL     1      46.710   0.373   7.742  0.00  0.00    +0.000 C 
ATOM     24  O   UNL     1      45.625   0.971   8.449  0.00  0.00    +0.000 OA
ENDBRANCH  16  24
ENDBRANCH  15  20
ENDBRANCH   1  15
TORSDOF 4
ENDMDL
MODEL 4
REMARK VINA RESULT:    -6.572      2.190      3.237
REMARK INTER + INTRA:          -8.562
REMARK INTER:                  -7.963
REMARK INTRA:                  -0.598
REMARK UNBOUND:                -0.452
REMARK  Name = 
REMARK  6 active torsions:
REMARK  status: ('A' for Active; 'I' for Inactive)
REMARK    1  A    between atoms: C_1  and  O_2
REMARK    2  A    between atoms: O_2  and  C_3
REMARK    3  A    between atoms: C_7  and  C_8
REMARK    4  A    between atoms: C_8  and  N_9
REMARK    5  A    between atoms: C_14  and  C_15
REMARK    6  A    between atoms: C_21  and  C_22
REMARK                            x       y       z     vdW  Elec       q    Type
REMARK                         _______ _______ _______ _____ _____    ______ ____
ROOT
ATOM      1  N   UNL     1      45.875   6.049  13.235  0.00  0.00    +0.000 N 
ATOM      2  C   UNL     1      46.426   5.069  14.019  0.00  0.00    +0.000 A 
ATOM      3  N   UNL     1      47.729   5.220  14.154  0.00  0.00    +0.000 NA
ATOM      4  C   UNL     1      48.036   6.345  13.427  0.00  0.00    +0.000 A 
ATOM      5  C   UNL     1      49.267   6.938  13.135  0.00  0.00    +0.000 A 
ATOM      6  C   UNL     1      49.248   8.078  12.323  0.00  0.00    +0.000 A 
ATOM      7  C   UNL     1      48.011   8.573  11.892  0.00  0.00    +0.000 A 
ATOM      8  N   UNL     1      46.789   8.021  12.137  0.00  0.00    +0.000 NA
ATOM      9  C   UNL     1      46.884   6.912  12.896  0.00  0.00    +0.000 A 
ENDROOT
BRANCH   6  10
ATOM     10  C   UNL     1      50.469   8.777  11.853  0.00  0.00    +0.000 C 
ATOM     11  N   UNL     1      51.681   8.169  12.012  0.00  0.00    +0.000 N 
ATOM     12  O   UNL     1      50.399   9.873  11.308  0.00  0.00    +0.000 OA
ATOM     13  H   UNL     1      51.834   7.259  12.417  0.00  0.00    +0.000 HD
ATOM     14  H   UNL     1      52.487   8.658  11.643  0.00  0.00    +0.000 HD
ENDBRANCH   6  10
BRANCH   1  15
ATOM     15  C   UNL     1      44.558   6.005  12.622  0.00  0.00    +0.000 C 
BRANCH  15  20
ATOM     16  C   UNL     1      44.398   3.316   9.986  0.00  0.00    +0.000 A 
ATOM     17  N   UNL     1      43.675   2.371  10.612  0.00  0.00    +0.000 NA
ATOM     18  C   UNL     1      43.304   2.667  11.856  0.00  0.00    +0.000 A 
ATOM     19  N   UNL     1      43.557   3.817  12.498  0.00  0.00    +0.000 NA
ATOM     20  C   UNL     1      44.310   4.741  11.843  0.00  0.00    +0.000 A 
ATOM     21  C   UNL     1      44.818   4.505  10.568  0.00  0.00    +0.000 A 
ATOM     22  C   UNL     1      45.728   5.430   9.819  0.00  0.00    +0.000 C 
BRANCH  16  24
ATOM     23  C   UNL     1      45.628   1.964   8.541  0.00  0.00    +0.000 C 
ATOM     24  O   UNL     1      44.759   3.089   8.670  0.00  0.00    +0.000 OA
ENDBRANCH  16  24
ENDBRANCH  15  20
ENDBRANCH   1  15
TORSDOF 4
ENDMDL
MODEL 5
REMARK VINA RESULT:    -6.527      1.936      2.575
REMARK INTER + INTRA:          -8.505
REMARK INTER:                  -7.942
REMARK INTRA:                  -0.563
REMARK UNBOUND:                -0.452
REMARK  Name = 
REMARK  6 active torsions:
REMARK  status: ('A' for Active; 'I' for Inactive)
REMARK    1  A    between atoms: C_1  and  O_2
REMARK    2  A    between atoms: O_2  and  C_3
REMARK    3  A    between atoms: C_7  and  C_8
REMARK    4  A    between atoms: C_8  and  N_9
REMARK    5  A    between atoms: C_14  and  C_15
REMARK    6  A    between atoms: C_21  and  C_22
REMARK                            x       y       z     vdW  Elec       q    Type
REMARK                         _______ _______ _______ _____ _____    ______ ____
ROOT
ATOM      1  N   UNL     1      45.332   4.967  12.770  0.00  0.00    +0.000 N 
ATOM      2  C   UNL     1      46.115   3.924  13.196  0.00  0.00    +0.000 A 
ATOM      3  N   UNL     1      47.248   4.343  13.725  0.00  0.00    +0.000 NA
ATOM      4  C   UNL     1      47.198   5.713  13.639  0.00  0.00    +0.000 A 
ATOM      5  C   UNL     1      48.149   6.686  13.960  0.00  0.00    +0.000 A 
ATOM      6  C   UNL     1      47.802   8.020  13.718  0.00  0.00    +0.000 A 
ATOM      7  C   UNL     1      46.525   8.300  13.215  0.00  0.00    +0.000 A 
ATOM      8  N   UNL     1      45.573   7.387  12.873  0.00  0.00    +0.000 NA
ATOM      9  C   UNL     1      45.984   6.125  13.102  0.00  0.00    +0.000 A 
ENDROOT
BRANCH   6  10
ATOM     10  C   UNL     1      48.724   9.163  13.924  0.00  0.00    +0.000 C 
ATOM     11  N   UNL     1      48.214  10.356  14.353  0.00  0.00    +0.000 N 
ATOM     12  O   UNL     1      49.930   9.043  13.739  0.00  0.00    +0.000 OA
ATOM     13  H   UNL     1      47.246  10.539  14.564  0.00  0.00    +0.000 HD
ATOM     14  H   UNL     1      48.880  11.100  14.522  0.00  0.00    +0.000 HD
ENDBRANCH   6  10
BRANCH   1  15
ATOM     15  C   UNL     1      44.199   4.862  11.865  0.00  0.00    +0.000 C 
BRANCH  15  20
ATOM     16  C   UNL     1      45.408   3.737   8.476  0.00  0.00    +0.000 A 
ATOM     17  N   UNL     1      44.894   2.497   8.408  0.00  0.00    +0.000 NA
ATOM     18  C   UNL     1      44.203   2.106   9.477  0.00  0.00    +0.000 A 
ATOM     19  N   UNL     1      43.957   2.847  10.567  0.00  0.00    +0.000 NA
ATOM     20  C   UNL     1      44.512   4.087  10.613  0.00  0.00    +0.000 A 
ATOM     21  C   UNL     1      45.318   4.570   9.585  0.00  0.00    +0.000 A 
ATOM     22  C   UNL     1      46.038   5.883   9.600  0.00  0.00    +0.000 C 
BRANCH  16  24
ATOM     23  C   UNL     1      47.092   3.316   6.923  0.00  0.00    +0.000 C 
ATOM     24  O   UNL     1      46.083   4.221   7.371  0.00  0.00    +0.000 OA
ENDBRANCH  16  24
ENDBRANCH  15  20
ENDBRANCH   1  15
TORSDOF 4
ENDMDL
MODEL 6
REMARK VINA RESULT:    -6.423      1.724      6.048
REMARK INTER + INTRA:          -8.378
REMARK INTER:                  -8.426
REMARK INTRA:                   0.048
REMARK UNBOUND:                -0.452
REMARK  Name = 
REMARK  6 active torsions:
REMARK  status: ('A' for Active; 'I' for Inactive)
REMARK    1  A    between atoms: C_1  and  O_2
REMARK    2  A    between atoms: O_2  and  C_3
REMARK    3  A    between atoms: C_7  and  C_8
REMARK    4  A    between atoms: C_8  and  N_9
REMARK    5  A    between atoms: C_14  and  C_15
REMARK    6  A    between atoms: C_21  and  C_22
REMARK                            x       y       z     vdW  Elec       q    Type
REMARK                         _______ _______ _______ _____ _____    ______ ____
ROOT
ATOM      1  N   UNL     1      43.968   4.557  11.351  0.00  0.00    +0.000 N 
ATOM      2  C   UNL     1      43.312   3.389  11.648  0.00  0.00    +0.000 A 
ATOM      3  N   UNL     1      43.585   2.435  10.779  0.00  0.00    +0.000 NA
ATOM      4  C   UNL     1      44.453   3.008   9.881  0.00  0.00    +0.000 A 
ATOM      5  C   UNL     1      45.011   2.507   8.701  0.00  0.00    +0.000 A 
ATOM      6  C   UNL     1      45.846   3.366   7.977  0.00  0.00    +0.000 A 
ATOM      7  C   UNL     1      46.102   4.643   8.492  0.00  0.00    +0.000 A 
ATOM      8  N   UNL     1      45.569   5.180   9.626  0.00  0.00    +0.000 NA
ATOM      9  C   UNL     1      44.753   4.312  10.254  0.00  0.00    +0.000 A 
ENDROOT
BRANCH   6  10
ATOM     10  C   UNL     1      46.449   3.020   6.668  0.00  0.00    +0.000 C 
ATOM     11  N   UNL     1      46.903   1.747   6.464  0.00  0.00    +0.000 N 
ATOM     12  O   UNL     1      46.523   3.848   5.767  0.00  0.00    +0.000 OA
ATOM     13  H   UNL     1      46.855   0.993   7.130  0.00  0.00    +0.000 HD
ATOM     14  H   UNL     1      47.272   1.538   5.544  0.00  0.00    +0.000 HD
ENDBRANCH   6  10
BRANCH   1  15
ATOM     15  C   UNL     1      43.650   5.868  11.889  0.00  0.00    +0.000 C 
BRANCH  15  20
ATOM     16  C   UNL     1      46.887   7.099  13.379  0.00  0.00    +0.000 A 
ATOM     17  N   UNL     1      46.972   8.332  12.849  0.00  0.00    +0.000 NA
ATOM     18  C   UNL     1      45.979   8.671  12.030  0.00  0.00    +0.000 A 
ATOM     19  N   UNL     1      44.913   7.913  11.732  0.00  0.00    +0.000 NA
ATOM     20  C   UNL     1      44.871   6.664  12.267  0.00  0.00    +0.000 A 
ATOM     21  C   UNL     1      45.895   6.176  13.075  0.00  0.00    +0.000 A 
ATOM     22  C   UNL     1      45.967   4.785  13.626  0.00  0.00    +0.000 C 
BRANCH  16  24
ATOM     23  C   UNL     1      49.144   7.230  13.941  0.00  0.00    +0.000 C 
ATOM     24  O   UNL     1      47.858   6.715  14.284  0.00  0.00    +0.000 OA
ENDBRANCH  16  24
ENDBRANCH  15  20
ENDBRANCH   1  15
TORSDOF 4
ENDMDL
MODEL 7
REMARK VINA RESULT:    -6.304      2.282      3.759
REMARK INTER + INTRA:          -8.231
REMARK INTER:                  -7.954
REMARK INTRA:                  -0.277
REMARK UNBOUND:                -0.452
REMARK  Name = 
REMARK  6 active torsions:
REMARK  status: ('A' for Active; 'I' for Inactive)
REMARK    1  A    between atoms: C_1  and  O_2
REMARK    2  A    between atoms: O_2  and  C_3
REMARK    3  A    between atoms: C_7  and  C_8
REMARK    4  A    between atoms: C_8  and  N_9
REMARK    5  A    between atoms: C_14  and  C_15
REMARK    6  A    between atoms: C_21  and  C_22
REMARK                            x       y       z     vdW  Elec       q    Type
REMARK                         _______ _______ _______ _____ _____    ______ ____
ROOT
ATOM      1  N   UNL     1      45.937   6.317  12.846  0.00  0.00    +0.000 N 
ATOM      2  C   UNL     1      46.736   7.405  12.600  0.00  0.00    +0.000 A 
ATOM      3  N   UNL     1      47.779   7.443  13.407  0.00  0.00    +0.000 NA
ATOM      4  C   UNL     1      47.651   6.335  14.208  0.00  0.00    +0.000 A 
ATOM      5  C   UNL     1      48.409   5.903  15.301  0.00  0.00    +0.000 A 
ATOM      6  C   UNL     1      47.993   4.730  15.941  0.00  0.00    +0.000 A 
ATOM      7  C   UNL     1      46.882   4.047  15.432  0.00  0.00    +0.000 A 
ATOM      8  N   UNL     1      46.103   4.436  14.383  0.00  0.00    +0.000 NA
ATOM      9  C   UNL     1      46.542   5.586  13.835  0.00  0.00    +0.000 A 
ENDROOT
BRANCH   6  10
ATOM     10  C   UNL     1      48.635   4.184  17.161  0.00  0.00    +0.000 C 
ATOM     11  N   UNL     1      47.847   3.802  18.209  0.00  0.00    +0.000 N 
ATOM     12  O   UNL     1      49.852   4.051  17.229  0.00  0.00    +0.000 OA
ATOM     13  H   UNL     1      46.841   3.842  18.233  0.00  0.00    +0.000 HD
ATOM     14  H   UNL     1      48.319   3.396  19.008  0.00  0.00    +0.000 HD
ENDBRANCH   6  10
BRANCH   1  15
ATOM     15  C   UNL     1      44.571   6.146  12.381  0.00  0.00    +0.000 C 
BRANCH  15  20
ATOM     16  C   UNL     1      44.454   3.292   9.923  0.00  0.00    +0.000 A 
ATOM     17  N   UNL     1      43.744   2.379  10.607  0.00  0.00    +0.000 NA
ATOM     18  C   UNL     1      43.366   2.749  11.829  0.00  0.00    +0.000 A 
ATOM     19  N   UNL     1      43.601   3.941  12.396  0.00  0.00    +0.000 NA
ATOM     20  C   UNL     1      44.342   4.832  11.685  0.00  0.00    +0.000 A 
ATOM     21  C   UNL     1      44.856   4.522  10.428  0.00  0.00    +0.000 A 
ATOM     22  C   UNL     1      45.754   5.410   9.622  0.00  0.00    +0.000 C 
BRANCH  16  24
ATOM     23  C   UNL     1      45.649   1.826   8.562  0.00  0.00    +0.000 C 
ATOM     24  O   UNL     1      44.821   2.987   8.625  0.00  0.00    +0.000 OA
ENDBRANCH  16  24
ENDBRANCH  15  20
ENDBRANCH   1  15
TORSDOF 4
ENDMDL
MODEL 8
REMARK VINA RESULT:    -6.225      2.542      3.628
REMARK INTER + INTRA:          -8.133
REMARK INTER:                  -7.636
REMARK INTRA:                  -0.497
REMARK UNBOUND:                -0.452
REMARK  Name = 
REMARK  6 active torsions:
REMARK  status: ('A' for Active; 'I' for Inactive)
REMARK    1  A    between atoms: C_1  and  O_2
REMARK    2  A    between atoms: O_2  and  C_3
REMARK    3  A    between atoms: C_7  and  C_8
REMARK    4  A    between atoms: C_8  and  N_9
REMARK    5  A    between atoms: C_14  and  C_15
REMARK    6  A    between atoms: C_21  and  C_22
REMARK                            x       y       z     vdW  Elec       q    Type
REMARK                         _______ _______ _______ _____ _____    ______ ____
ROOT
ATOM      1  N   UNL     1      46.332   6.092  13.323  0.00  0.00    +0.000 N 
ATOM      2  C   UNL     1      47.053   7.255  13.230  0.00  0.00    +0.000 A 
ATOM      3  N   UNL     1      48.012   7.314  14.133  0.00  0.00    +0.000 NA
ATOM      4  C   UNL     1      47.909   6.141  14.841  0.00  0.00    +0.000 A 
ATOM      5  C   UNL     1      48.602   5.688  15.968  0.00  0.00    +0.000 A 
ATOM      6  C   UNL     1      48.232   4.440  16.483  0.00  0.00    +0.000 A 
ATOM      7  C   UNL     1      47.234   3.712  15.824  0.00  0.00    +0.000 A 
ATOM      8  N   UNL     1      46.522   4.118  14.735  0.00  0.00    +0.000 NA
ATOM      9  C   UNL     1      46.907   5.337  14.312  0.00  0.00    +0.000 A 
ENDROOT
BRANCH   6  10
ATOM     10  C   UNL     1      48.809   3.855  17.718  0.00  0.00    +0.000 C 
ATOM     11  N   UNL     1      48.187   4.087  18.912  0.00  0.00    +0.000 N 
ATOM     12  O   UNL     1      49.812   3.152  17.675  0.00  0.00    +0.000 OA
ATOM     13  H   UNL     1      47.343   4.621  19.041  0.00  0.00    +0.000 HD
ATOM     14  H   UNL     1      48.587   3.638  19.727  0.00  0.00    +0.000 HD
ENDBRANCH   6  10
BRANCH   1  15
ATOM     15  C   UNL     1      45.032   5.849  12.720  0.00  0.00    +0.000 C 
BRANCH  15  20
ATOM     16  C   UNL     1      44.865   3.421   9.841  0.00  0.00    +0.000 A 
ATOM     17  N   UNL     1      45.448   4.131   8.860  0.00  0.00    +0.000 NA
ATOM     18  C   UNL     1      45.840   5.358   9.198  0.00  0.00    +0.000 A 
ATOM     19  N   UNL     1      45.735   5.908  10.417  0.00  0.00    +0.000 NA
ATOM     20  C   UNL     1      45.119   5.171  11.379  0.00  0.00    +0.000 A 
ATOM     21  C   UNL     1      44.600   3.905  11.116  0.00  0.00    +0.000 A 
ATOM     22  C   UNL     1      43.831   3.071  12.093  0.00  0.00    +0.000 C 
BRANCH  16  24
ATOM     23  C   UNL     1      45.393   1.486   8.656  0.00  0.00    +0.000 C 
ATOM     24  O   UNL     1      44.493   2.118   9.565  0.00  0.00    +0.000 OA
ENDBRANCH  16  24
ENDBRANCH  15  20
ENDBRANCH   1  15
TORSDOF 4
ENDMDL
MODEL 9
REMARK VINA RESULT:    -6.050      3.864      8.172
REMARK INTER + INTRA:          -7.918
REMARK INTER:                  -7.522
REMARK INTRA:                  -0.395
REMARK UNBOUND:                -0.452
REMARK  Name = 
REMARK  6 active torsions:
REMARK  status: ('A' for Active; 'I' for Inactive)
REMARK    1  A    between atoms: C_1  and  O_2
REMARK    2  A    between atoms: O_2  and  C_3
REMARK    3  A    between atoms: C_7  and  C_8
REMARK    4  A    between atoms: C_8  and  N_9
REMARK    5  A    between atoms: C_14  and  C_15
REMARK    6  A    between atoms: C_21  and  C_22
REMARK                            x       y       z     vdW  Elec       q    Type
REMARK                         _______ _______ _______ _____ _____    ______ ____
ROOT
ATOM      1  N   UNL     1      47.401   4.891  15.176  0.00  0.00    +0.000 N 
ATOM      2  C   UNL     1      48.272   5.936  15.003  0.00  0.00    +0.000 A 
ATOM      3  N   UNL     1      48.096   6.540  13.843  0.00  0.00    +0.000 NA
ATOM      4  C   UNL     1      47.068   5.857  13.239  0.00  0.00    +0.000 A 
ATOM      5  C   UNL     1      46.506   5.989  11.966  0.00  0.00    +0.000 A 
ATOM      6  C   UNL     1      45.476   5.103  11.630  0.00  0.00    +0.000 A 
ATOM      7  C   UNL     1      45.048   4.178  12.590  0.00  0.00    +0.000 A 
ATOM      8  N   UNL     1      45.574   4.001  13.834  0.00  0.00    +0.000 NA
ATOM      9  C   UNL     1      46.579   4.864  14.079  0.00  0.00    +0.000 A 
ENDROOT
BRANCH   6  10
ATOM     10  C   UNL     1      44.832   5.055  10.295  0.00  0.00    +0.000 C 
ATOM     11  N   UNL     1      45.593   5.289   9.185  0.00  0.00    +0.000 N 
ATOM     12  O   UNL     1      43.641   4.788  10.177  0.00  0.00    +0.000 OA
ATOM     13  H   UNL     1      46.581   5.482   9.180  0.00  0.00    +0.000 HD
ATOM     14  H   UNL     1      45.127   5.208   8.289  0.00  0.00    +0.000 HD
ENDBRANCH   6  10
BRANCH   1  15
ATOM     15  C   UNL     1      47.531   3.833  16.163  0.00  0.00    +0.000 C 
BRANCH  15  20
ATOM     16  C   UNL     1      49.664   5.045  19.024  0.00  0.00    +0.000 A 
ATOM     17  N   UNL     1      50.824   4.412  18.780  0.00  0.00    +0.000 NA
ATOM     18  C   UNL     1      50.827   3.620  17.709  0.00  0.00    +0.000 A 
ATOM     19  N   UNL     1      49.803   3.442  16.862  0.00  0.00    +0.000 NA
ATOM     20  C   UNL     1      48.638   4.080  17.152  0.00  0.00    +0.000 A 
ATOM     21  C   UNL     1      48.498   4.871  18.290  0.00  0.00    +0.000 A 
ATOM     22  C   UNL     1      47.226   5.530  18.728  0.00  0.00    +0.000 C 
BRANCH  16  24
ATOM     23  C   UNL     1      50.498   7.037  19.899  0.00  0.00    +0.000 C 
ATOM     24  O   UNL     1      49.620   5.928  20.088  0.00  0.00    +0.000 OA
ENDBRANCH  16  24
ENDBRANCH  15  20
ENDBRANCH   1  15
TORSDOF 4
ENDMDL
