MODEL 1
REMARK VINA RESULT:    -8.372      0.000      0.000
REMARK INTER + INTRA:         -12.674
REMARK INTER:                 -11.553
REMARK INTRA:                  -1.122
REMARK UNBOUND:                -1.122
REMARK  Name = 
REMARK  7 active torsions:
REMARK  status: ('A' for Active; 'I' for Inactive)
REMARK    1  A    between atoms: C_2  and  C_20
REMARK    2  A    between atoms: N_3  and  C_4
REMARK    3  A    between atoms: C_4  and  C_5
REMARK    4  A    between atoms: C_8  and  C_9
REMARK    5  A    between atoms: C_9  and  O_10
REMARK    6  A    between atoms: C_9  and  C_11
REMARK    7  A    between atoms: C_11  and  N_12
REMARK                            x       y       z     vdW  Elec       q    Type
REMARK                         _______ _______ _______ _____ _____    ______ ____
ROOT
ATOM      1  C   UNL     1      47.194   7.618  13.396  0.00  0.00    +0.000 C 
ENDROOT
BRANCH   1   2
ATOM      2  C   UNL     1      46.479   6.547  12.618  0.00  0.00    +0.000 A 
ATOM      3  C   UNL     1      45.920   5.446  13.277  0.00  0.00    +0.000 A 
ATOM      4  C   UNL     1      45.265   4.444  12.558  0.00  0.00    +0.000 A 
ATOM      5  C   UNL     1      45.174   4.513  11.158  0.00  0.00    +0.000 A 
ATOM      6  C   UNL     1      45.744   5.614  10.504  0.00  0.00    +0.000 A 
ATOM      7  C   UNL     1      46.399   6.615  11.223  0.00  0.00    +0.000 A 
BRANCH   5   8
ATOM      8  C   UNL     1      44.497   3.402  10.382  0.00  0.00    +0.000 C 
BRANCH   8   9
ATOM      9  O   UNL     1      43.191   3.172  10.931  0.00  0.00    +0.000 OA
ATOM     10  H   UNL     1      42.696   2.644  10.283  0.00  0.00    +0.000 HD
ENDBRANCH   8   9
BRANCH   8  11
ATOM     11  C   UNL     1      44.344   3.700   8.862  0.00  0.00    +0.000 C 
BRANCH  11  12
ATOM     12  N   UNL     1      45.149   2.893   7.920  0.00  0.00    +0.000 NA
ATOM     13  C   UNL     1      46.164   3.709   7.236  0.00  0.00    +0.000 C 
ATOM     14  C   UNL     1      47.007   2.873   6.271  0.00  0.00    +0.000 C 
ATOM     15  C   UNL     1      47.656   1.692   6.981  0.00  0.00    +0.000 C 
ATOM     16  C   UNL     1      46.598   0.881   7.717  0.00  0.00    +0.000 C 
ATOM     17  C   UNL     1      45.768   1.769   8.643  0.00  0.00    +0.000 C 
ENDBRANCH  11  12
ENDBRANCH   8  11
ENDBRANCH   5   8
ENDBRANCH   1   2
BRANCH   1  20
ATOM     18  O   UNL     1      49.847   7.010  14.146  0.00  0.00    +0.000 OA
ATOM     19  C   UNL     1      48.948   6.922  14.979  0.00  0.00    +0.000 C 
ATOM     20  N   UNL     1      47.628   7.127  14.677  0.00  0.00    +0.000 N 
ATOM     21  H   UNL     1      46.970   7.251  15.436  0.00  0.00    +0.000 HD
BRANCH  19  22
ATOM     22  C   UNL     1      49.226   6.531  16.365  0.00  0.00    +0.000 A 
ATOM     23  C   UNL     1      49.913   7.394  17.208  0.00  0.00    +0.000 A 
ATOM     24  S   UNL     1      50.152   6.762  18.775  0.00  0.00    +0.000 S 
ATOM     25  C   UNL     1      49.312   5.334  18.391  0.00  0.00    +0.000 A 
ATOM     26  N   UNL     1      49.125   4.355  19.316  0.00  0.00    +0.000 NA
ATOM     27  C   UNL     1      48.431   3.348  18.895  0.00  0.00    +0.000 A 
ATOM     28  N   UNL     1      47.919   3.224  17.630  0.00  0.00    +0.000 N 
ATOM     29  C   UNL     1      48.164   4.141  16.643  0.00  0.00    +0.000 A 
ATOM     30  O   UNL     1      47.839   3.916  15.478  0.00  0.00    +0.000 OA
ATOM     31  C   UNL     1      48.888   5.326  17.077  0.00  0.00    +0.000 A 
ATOM     32  H   UNL     1      47.426   2.393  17.356  0.00  0.00    +0.000 HD
ENDBRANCH  19  22
ENDBRANCH   1  20
TORSDOF 7
ENDMDL
MODEL 2
REMARK VINA RESULT:    -7.853      1.695      2.362
REMARK INTER + INTRA:         -11.958
REMARK INTER:                 -10.916
REMARK INTRA:                  -1.042
REMARK UNBOUND:                -1.122
REMARK  Name = 
REMARK  7 active torsions:
REMARK  status: ('A' for Active; 'I' for Inactive)
REMARK    1  A    between atoms: C_2  and  C_20
REMARK    2  A    between atoms: N_3  and  C_4
REMARK    3  A    between atoms: C_4  and  C_5
REMARK    4  A    between atoms: C_8  and  C_9
REMARK    5  A    between atoms: C_9  and  O_10
REMARK    6  A    between atoms: C_9  and  C_11
REMARK    7  A    between atoms: C_11  and  N_12
REMARK                            x       y       z     vdW  Elec       q    Type
REMARK                         _______ _______ _______ _____ _____    ______ ____
ROOT
ATOM      1  C   UNL     1      47.728   7.336  13.756  0.00  0.00    +0.000 C 
ENDROOT
BRANCH   1   2
ATOM      2  C   UNL     1      46.901   6.405  12.912  0.00  0.00    +0.000 A 
ATOM      3  C   UNL     1      46.515   6.775  11.618  0.00  0.00    +0.000 A 
ATOM      4  C   UNL     1      45.739   5.918  10.836  0.00  0.00    +0.000 A 
ATOM      5  C   UNL     1      45.312   4.679  11.340  0.00  0.00    +0.000 A 
ATOM      6  C   UNL     1      45.695   4.319  12.640  0.00  0.00    +0.000 A 
ATOM      7  C   UNL     1      46.470   5.175  13.422  0.00  0.00    +0.000 A 
BRANCH   5   8
ATOM      8  C   UNL     1      44.436   3.773  10.499  0.00  0.00    +0.000 C 
BRANCH   8   9
ATOM      9  O   UNL     1      43.085   3.850  10.976  0.00  0.00    +0.000 OA
ATOM     10  H   UNL     1      42.973   4.726  11.380  0.00  0.00    +0.000 HD
ENDBRANCH   8   9
BRANCH   8  11
ATOM     11  C   UNL     1      44.442   4.123   8.984  0.00  0.00    +0.000 C 
BRANCH  11  12
ATOM     12  N   UNL     1      45.125   3.185   8.065  0.00  0.00    +0.000 NA
ATOM     13  C   UNL     1      46.189   3.852   7.300  0.00  0.00    +0.000 C 
ATOM     14  C   UNL     1      46.905   2.881   6.360  0.00  0.00    +0.000 C 
ATOM     15  C   UNL     1      47.460   1.683   7.118  0.00  0.00    +0.000 C 
ATOM     16  C   UNL     1      46.356   1.027   7.937  0.00  0.00    +0.000 C 
ATOM     17  C   UNL     1      45.656   2.047   8.834  0.00  0.00    +0.000 C 
ENDBRANCH  11  12
ENDBRANCH   8  11
ENDBRANCH   5   8
ENDBRANCH   1   2
BRANCH   1  20
ATOM     18  O   UNL     1      50.152   6.733  15.072  0.00  0.00    +0.000 OA
ATOM     19  C   UNL     1      49.091   6.632  15.683  0.00  0.00    +0.000 C 
ATOM     20  N   UNL     1      47.870   6.834  15.096  0.00  0.00    +0.000 N 
ATOM     21  H   UNL     1      47.058   6.946  15.690  0.00  0.00    +0.000 HD
BRANCH  19  22
ATOM     22  C   UNL     1      49.056   6.228  17.092  0.00  0.00    +0.000 A 
ATOM     23  C   UNL     1      49.503   4.968  17.467  0.00  0.00    +0.000 A 
ATOM     24  S   UNL     1      49.372   4.675  19.143  0.00  0.00    +0.000 S 
ATOM     25  C   UNL     1      48.752   6.233  19.428  0.00  0.00    +0.000 A 
ATOM     26  N   UNL     1      48.444   6.651  20.685  0.00  0.00    +0.000 NA
ATOM     27  C   UNL     1      48.025   7.872  20.753  0.00  0.00    +0.000 A 
ATOM     28  N   UNL     1      47.873   8.709  19.679  0.00  0.00    +0.000 N 
ATOM     29  C   UNL     1      48.082   8.299  18.389  0.00  0.00    +0.000 A 
ATOM     30  O   UNL     1      47.771   9.017  17.440  0.00  0.00    +0.000 OA
ATOM     31  C   UNL     1      48.614   6.951  18.257  0.00  0.00    +0.000 A 
ATOM     32  H   UNL     1      47.500   9.634  19.798  0.00  0.00    +0.000 HD
ENDBRANCH  19  22
ENDBRANCH   1  20
TORSDOF 7
ENDMDL
MODEL 3
REMARK VINA RESULT:    -7.298      2.070      3.713
REMARK INTER + INTRA:         -11.192
REMARK INTER:                 -10.276
REMARK INTRA:                  -0.916
REMARK UNBOUND:                -1.122
REMARK  Name = 
REMARK  7 active torsions:
REMARK  status: ('A' for Active; 'I' for Inactive)
REMARK    1  A    between atoms: C_2  and  C_20
REMARK    2  A    between atoms: N_3  and  C_4
REMARK    3  A    between atoms: C_4  and  C_5
REMARK    4  A    between atoms: C_8  and  C_9
REMARK    5  A    between atoms: C_9  and  O_10
REMARK    6  A    between atoms: C_9  and  C_11
REMARK    7  A    between atoms: C_11  and  N_12
REMARK                            x       y       z     vdW  Elec       q    Type
REMARK                         _______ _______ _______ _____ _____    ______ ____
ROOT
ATOM      1  C   UNL     1      47.150   4.781  15.033  0.00  0.00    +0.000 C 
ENDROOT
BRANCH   1   2
ATOM      2  C   UNL     1      46.443   4.644  13.712  0.00  0.00    +0.000 A 
ATOM      3  C   UNL     1      46.190   5.772  12.923  0.00  0.00    +0.000 A 
ATOM      4  C   UNL     1      45.526   5.651  11.701  0.00  0.00    +0.000 A 
ATOM      5  C   UNL     1      45.079   4.397  11.252  0.00  0.00    +0.000 A 
ATOM      6  C   UNL     1      45.328   3.273  12.051  0.00  0.00    +0.000 A 
ATOM      7  C   UNL     1      45.992   3.394  13.272  0.00  0.00    +0.000 A 
BRANCH   5   8
ATOM      8  C   UNL     1      44.323   4.280   9.944  0.00  0.00    +0.000 C 
BRANCH   8   9
ATOM      9  O   UNL     1      43.252   5.235   9.932  0.00  0.00    +0.000 OA
ATOM     10  H   UNL     1      42.686   5.021   9.172  0.00  0.00    +0.000 HD
ENDBRANCH   8   9
BRANCH   8  11
ATOM     11  C   UNL     1      45.206   4.516   8.685  0.00  0.00    +0.000 C 
BRANCH  11  12
ATOM     12  N   UNL     1      45.559   3.339   7.862  0.00  0.00    +0.000 NA
ATOM     13  C   UNL     1      46.667   3.632   6.941  0.00  0.00    +0.000 C 
ATOM     14  C   UNL     1      47.043   2.411   6.100  0.00  0.00    +0.000 C 
ATOM     15  C   UNL     1      47.379   1.214   6.979  0.00  0.00    +0.000 C 
ATOM     16  C   UNL     1      46.240   0.948   7.954  0.00  0.00    +0.000 C 
ATOM     17  C   UNL     1      45.887   2.206   8.745  0.00  0.00    +0.000 C 
ENDBRANCH  11  12
ENDBRANCH   8  11
ENDBRANCH   5   8
ENDBRANCH   1   2
BRANCH   1  20
ATOM     18  O   UNL     1      49.475   5.329  16.537  0.00  0.00    +0.000 OA
ATOM     19  C   UNL     1      48.990   6.211  15.833  0.00  0.00    +0.000 C 
ATOM     20  N   UNL     1      47.824   6.048  15.132  0.00  0.00    +0.000 N 
ATOM     21  H   UNL     1      47.592   6.721  14.412  0.00  0.00    +0.000 HD
BRANCH  19  22
ATOM     22  C   UNL     1      49.606   7.538  15.735  0.00  0.00    +0.000 A 
ATOM     23  C   UNL     1      49.863   8.272  16.884  0.00  0.00    +0.000 A 
ATOM     24  S   UNL     1      50.569   9.795  16.571  0.00  0.00    +0.000 S 
ATOM     25  C   UNL     1      50.590   9.505  14.895  0.00  0.00    +0.000 A 
ATOM     26  N   UNL     1      51.102  10.419  14.028  0.00  0.00    +0.000 NA
ATOM     27  C   UNL     1      51.091  10.045  12.790  0.00  0.00    +0.000 A 
ATOM     28  N   UNL     1      50.604   8.847  12.339  0.00  0.00    +0.000 N 
ATOM     29  C   UNL     1      49.995   7.940  13.165  0.00  0.00    +0.000 A 
ATOM     30  O   UNL     1      49.415   6.958  12.706  0.00  0.00    +0.000 OA
ATOM     31  C   UNL     1      50.034   8.282  14.579  0.00  0.00    +0.000 A 
ATOM     32  H   UNL     1      50.586   8.638  11.356  0.00  0.00    +0.000 HD
ENDBRANCH  19  22
ENDBRANCH   1  20
TORSDOF 7
ENDMDL
MODEL 4
REMARK VINA RESULT:    -6.998      3.771      4.570
REMARK INTER + INTRA:         -10.779
REMARK INTER:                  -9.656
REMARK INTRA:                  -1.123
REMARK UNBOUND:                -1.122
REMARK  Name = 
REMARK  7 active torsions:
REMARK  status: ('A' for Active; 'I' for Inactive)
REMARK    1  A    between atoms: C_2  and  C_20
REMARK    2  A    between atoms: N_3  and  C_4
REMARK    3  A    between atoms: C_4  and  C_5
REMARK    4  A    between atoms: C_8  and  C_9
REMARK    5  A    between atoms: C_9  and  O_10
REMARK    6  A    between atoms: C_9  and  C_11
REMARK    7  A    between atoms: C_11  and  N_12
REMARK                            x       y       z     vdW  Elec       q    Type
REMARK                         _______ _______ _______ _____ _____    ______ ____
ROOT
ATOM      1  C   UNL     1      45.818   8.637  13.160  0.00  0.00    +0.000 C 
ENDROOT
BRANCH   1   2
ATOM      2  C   UNL     1      45.557   7.254  12.630  0.00  0.00    +0.000 A 
ATOM      3  C   UNL     1      46.232   6.151  13.166  0.00  0.00    +0.000 A 
ATOM      4  C   UNL     1      46.001   4.866  12.670  0.00  0.00    +0.000 A 
ATOM      5  C   UNL     1      45.102   4.660  11.610  0.00  0.00    +0.000 A 
ATOM      6  C   UNL     1      44.436   5.771  11.073  0.00  0.00    +0.000 A 
ATOM      7  C   UNL     1      44.668   7.054  11.568  0.00  0.00    +0.000 A 
BRANCH   5   8
ATOM      8  C   UNL     1      44.887   3.268  11.051  0.00  0.00    +0.000 C 
BRANCH   8   9
ATOM      9  O   UNL     1      44.118   2.499  11.988  0.00  0.00    +0.000 OA
ATOM     10  H   UNL     1      44.480   1.598  11.984  0.00  0.00    +0.000 HD
ENDBRANCH   8   9
BRANCH   8  11
ATOM     11  C   UNL     1      44.152   3.249   9.680  0.00  0.00    +0.000 C 
BRANCH  11  12
ATOM     12  N   UNL     1      44.939   2.874   8.485  0.00  0.00    +0.000 NA
ATOM     13  C   UNL     1      45.780   3.986   8.018  0.00  0.00    +0.000 C 
ATOM     14  C   UNL     1      46.605   3.595   6.790  0.00  0.00    +0.000 C 
ATOM     15  C   UNL     1      47.451   2.359   7.060  0.00  0.00    +0.000 C 
ATOM     16  C   UNL     1      46.572   1.229   7.582  0.00  0.00    +0.000 C 
ATOM     17  C   UNL     1      45.750   1.683   8.787  0.00  0.00    +0.000 C 
ENDBRANCH  11  12
ENDBRANCH   8  11
ENDBRANCH   5   8
ENDBRANCH   1   2
BRANCH   1  20
ATOM     18  O   UNL     1      47.037  10.861  11.920  0.00  0.00    +0.000 OA
ATOM     19  C   UNL     1      47.725  10.083  12.576  0.00  0.00    +0.000 C 
ATOM     20  N   UNL     1      47.223   8.943  13.146  0.00  0.00    +0.000 N 
ATOM     21  H   UNL     1      47.779   8.462  13.842  0.00  0.00    +0.000 HD
BRANCH  19  22
ATOM     22  C   UNL     1      49.165  10.296  12.752  0.00  0.00    +0.000 A 
ATOM     23  C   UNL     1      49.628  11.438  13.392  0.00  0.00    +0.000 A 
ATOM     24  S   UNL     1      51.330  11.516  13.490  0.00  0.00    +0.000 S 
ATOM     25  C   UNL     1      51.503  10.011  12.717  0.00  0.00    +0.000 A 
ATOM     26  N   UNL     1      52.729   9.464  12.504  0.00  0.00    +0.000 NA
ATOM     27  C   UNL     1      52.704   8.298  11.946  0.00  0.00    +0.000 A 
ATOM     28  N   UNL     1      51.566   7.634  11.569  0.00  0.00    +0.000 N 
ATOM     29  C   UNL     1      50.319   8.189  11.680  0.00  0.00    +0.000 A 
ATOM     30  O   UNL     1      49.339   7.643  11.176  0.00  0.00    +0.000 OA
ATOM     31  C   UNL     1      50.282   9.476  12.358  0.00  0.00    +0.000 A 
ATOM     32  H   UNL     1      51.621   6.748  11.099  0.00  0.00    +0.000 HD
ENDBRANCH  19  22
ENDBRANCH   1  20
TORSDOF 7
ENDMDL
MODEL 5
REMARK VINA RESULT:    -6.968      4.342      9.125
REMARK INTER + INTRA:         -10.737
REMARK INTER:                  -9.783
REMARK INTRA:                  -0.954
REMARK UNBOUND:                -1.122
REMARK  Name = 
REMARK  7 active torsions:
REMARK  status: ('A' for Active; 'I' for Inactive)
REMARK    1  A    between atoms: C_2  and  C_20
REMARK    2  A    between atoms: N_3  and  C_4
REMARK    3  A    between atoms: C_4  and  C_5
REMARK    4  A    between atoms: C_8  and  C_9
REMARK    5  A    between atoms: C_9  and  O_10
REMARK    6  A    between atoms: C_9  and  C_11
REMARK    7  A    between atoms: C_11  and  N_12
REMARK                            x       y       z     vdW  Elec       q    Type
REMARK                         _______ _______ _______ _____ _____    ______ ____
ROOT
ATOM      1  C   UNL     1      47.157   3.433  16.811  0.00  0.00    +0.000 C 
ENDROOT
BRANCH   1   2
ATOM      2  C   UNL     1      48.625   3.497  17.135  0.00  0.00    +0.000 A 
ATOM      3  C   UNL     1      49.218   4.712  17.498  0.00  0.00    +0.000 A 
ATOM      4  C   UNL     1      50.582   4.778  17.790  0.00  0.00    +0.000 A 
ATOM      5  C   UNL     1      51.387   3.631  17.703  0.00  0.00    +0.000 A 
ATOM      6  C   UNL     1      50.788   2.419  17.330  0.00  0.00    +0.000 A 
ATOM      7  C   UNL     1      49.426   2.354  17.038  0.00  0.00    +0.000 A 
BRANCH   5   8
ATOM      8  C   UNL     1      52.874   3.719  17.982  0.00  0.00    +0.000 C 
BRANCH   8   9
ATOM      9  O   UNL     1      53.160   4.972  18.619  0.00  0.00    +0.000 OA
ATOM     10  H   UNL     1      52.708   5.663  18.108  0.00  0.00    +0.000 HD
ENDBRANCH   8   9
BRANCH   8  11
ATOM     11  C   UNL     1      53.412   2.574  18.888  0.00  0.00    +0.000 C 
BRANCH  11  12
ATOM     12  N   UNL     1      54.316   1.578  18.272  0.00  0.00    +0.000 NA
ATOM     13  C   UNL     1      53.653   0.277  18.098  0.00  0.00    +0.000 C 
ATOM     14  C   UNL     1      54.582  -0.750  17.448  0.00  0.00    +0.000 C 
ATOM     15  C   UNL     1      55.127  -0.243  16.120  0.00  0.00    +0.000 C 
ATOM     16  C   UNL     1      55.775   1.122  16.309  0.00  0.00    +0.000 C 
ATOM     17  C   UNL     1      54.815   2.098  16.988  0.00  0.00    +0.000 C 
ENDBRANCH  11  12
ENDBRANCH   8  11
ENDBRANCH   5   8
ENDBRANCH   1   2
BRANCH   1  20
ATOM     18  O   UNL     1      47.182   3.039  14.015  0.00  0.00    +0.000 OA
ATOM     19  C   UNL     1      46.778   4.106  14.471  0.00  0.00    +0.000 C 
ATOM     20  N   UNL     1      46.804   4.403  15.808  0.00  0.00    +0.000 N 
ATOM     21  H   UNL     1      46.269   5.195  16.141  0.00  0.00    +0.000 HD
BRANCH  19  22
ATOM     22  C   UNL     1      46.284   5.174  13.597  0.00  0.00    +0.000 A 
ATOM     23  C   UNL     1      47.089   6.269  13.311  0.00  0.00    +0.000 A 
ATOM     24  S   UNL     1      46.339   7.411  12.288  0.00  0.00    +0.000 S 
ATOM     25  C   UNL     1      44.932   6.464  12.163  0.00  0.00    +0.000 A 
ATOM     26  N   UNL     1      43.880   6.860  11.397  0.00  0.00    +0.000 NA
ATOM     27  C   UNL     1      42.899   6.020  11.362  0.00  0.00    +0.000 A 
ATOM     28  N   UNL     1      42.867   4.825  12.033  0.00  0.00    +0.000 N 
ATOM     29  C   UNL     1      43.862   4.432  12.887  0.00  0.00    +0.000 A 
ATOM     30  O   UNL     1      43.724   3.443  13.604  0.00  0.00    +0.000 OA
ATOM     31  C   UNL     1      45.021   5.312  12.918  0.00  0.00    +0.000 A 
ATOM     32  H   UNL     1      42.052   4.239  11.997  0.00  0.00    +0.000 HD
ENDBRANCH  19  22
ENDBRANCH   1  20
TORSDOF 7
ENDMDL
MODEL 6
REMARK VINA RESULT:    -6.925      2.055      2.828
REMARK INTER + INTRA:         -10.678
REMARK INTER:                  -9.819
REMARK INTRA:                  -0.859
REMARK UNBOUND:                -1.122
REMARK  Name = 
REMARK  7 active torsions:
REMARK  status: ('A' for Active; 'I' for Inactive)
REMARK    1  A    between atoms: C_2  and  C_20
REMARK    2  A    between atoms: N_3  and  C_4
REMARK    3  A    between atoms: C_4  and  C_5
REMARK    4  A    between atoms: C_8  and  C_9
REMARK    5  A    between atoms: C_9  and  O_10
REMARK    6  A    between atoms: C_9  and  C_11
REMARK    7  A    between atoms: C_11  and  N_12
REMARK                            x       y       z     vdW  Elec       q    Type
REMARK                         _______ _______ _______ _____ _____    ______ ____
ROOT
ATOM      1  C   UNL     1      45.395   8.569  12.733  0.00  0.00    +0.000 C 
ENDROOT
BRANCH   1   2
ATOM      2  C   UNL     1      45.086   7.164  12.291  0.00  0.00    +0.000 A 
ATOM      3  C   UNL     1      44.038   6.917  11.397  0.00  0.00    +0.000 A 
ATOM      4  C   UNL     1      43.742   5.614  10.991  0.00  0.00    +0.000 A 
ATOM      5  C   UNL     1      44.476   4.526  11.490  0.00  0.00    +0.000 A 
ATOM      6  C   UNL     1      45.519   4.781  12.392  0.00  0.00    +0.000 A 
ATOM      7  C   UNL     1      45.815   6.082  12.797  0.00  0.00    +0.000 A 
BRANCH   5   8
ATOM      8  C   UNL     1      44.123   3.112  11.077  0.00  0.00    +0.000 C 
BRANCH   8   9
ATOM      9  O   UNL     1      42.798   2.805  11.537  0.00  0.00    +0.000 OA
ATOM     10  H   UNL     1      42.759   1.844  11.676  0.00  0.00    +0.000 HD
ENDBRANCH   8   9
BRANCH   8  11
ATOM     11  C   UNL     1      44.176   2.875   9.540  0.00  0.00    +0.000 C 
BRANCH  11  12
ATOM     12  N   UNL     1      45.498   2.613   8.930  0.00  0.00    +0.000 NA
ATOM     13  C   UNL     1      45.565   1.272   8.332  0.00  0.00    +0.000 C 
ATOM     14  C   UNL     1      46.926   1.005   7.689  0.00  0.00    +0.000 C 
ATOM     15  C   UNL     1      47.271   2.071   6.657  0.00  0.00    +0.000 C 
ATOM     16  C   UNL     1      47.158   3.456   7.281  0.00  0.00    +0.000 C 
ATOM     17  C   UNL     1      45.791   3.656   7.933  0.00  0.00    +0.000 C 
ENDBRANCH  11  12
ENDBRANCH   8  11
ENDBRANCH   5   8
ENDBRANCH   1   2
BRANCH   1  20
ATOM     18  O   UNL     1      47.930   9.731  12.290  0.00  0.00    +0.000 OA
ATOM     19  C   UNL     1      47.674   9.239  13.386  0.00  0.00    +0.000 C 
ATOM     20  N   UNL     1      46.498   8.592  13.657  0.00  0.00    +0.000 N 
ATOM     21  H   UNL     1      46.259   8.400  14.622  0.00  0.00    +0.000 HD
BRANCH  19  22
ATOM     22  C   UNL     1      48.648   9.263  14.482  0.00  0.00    +0.000 A 
ATOM     23  C   UNL     1      49.094  10.475  14.991  0.00  0.00    +0.000 A 
ATOM     24  S   UNL     1      50.233  10.302  16.251  0.00  0.00    +0.000 S 
ATOM     25  C   UNL     1      50.138   8.605  16.183  0.00  0.00    +0.000 A 
ATOM     26  N   UNL     1      50.858   7.824  17.032  0.00  0.00    +0.000 NA
ATOM     27  C   UNL     1      50.652   6.555  16.894  0.00  0.00    +0.000 A 
ATOM     28  N   UNL     1      49.802   5.995  15.977  0.00  0.00    +0.000 N 
ATOM     29  C   UNL     1      49.131   6.739  15.043  0.00  0.00    +0.000 A 
ATOM     30  O   UNL     1      48.515   6.196  14.127  0.00  0.00    +0.000 OA
ATOM     31  C   UNL     1      49.278   8.179  15.191  0.00  0.00    +0.000 A 
ATOM     32  H   UNL     1      49.722   4.997  15.894  0.00  0.00    +0.000 HD
ENDBRANCH  19  22
ENDBRANCH   1  20
TORSDOF 7
ENDMDL
MODEL 7
REMARK VINA RESULT:    -6.887      2.347      3.417
REMARK INTER + INTRA:         -10.625
REMARK INTER:                 -10.015
REMARK INTRA:                  -0.610
REMARK UNBOUND:                -1.122
REMARK  Name = 
REMARK  7 active torsions:
REMARK  status: ('A' for Active; 'I' for Inactive)
REMARK    1  A    between atoms: C_2  and  C_20
REMARK    2  A    between atoms: N_3  and  C_4
REMARK    3  A    between atoms: C_4  and  C_5
REMARK    4  A    between atoms: C_8  and  C_9
REMARK    5  A    between atoms: C_9  and  O_10
REMARK    6  A    between atoms: C_9  and  C_11
REMARK    7  A    between atoms: C_11  and  N_12
REMARK                            x       y       z     vdW  Elec       q    Type
REMARK                         _______ _______ _______ _____ _____    ______ ____
ROOT
ATOM      1  C   UNL     1      47.190   4.762  15.002  0.00  0.00    +0.000 C 
ENDROOT
BRANCH   1   2
ATOM      2  C   UNL     1      46.472   4.633  13.687  0.00  0.00    +0.000 A 
ATOM      3  C   UNL     1      46.261   5.759  12.882  0.00  0.00    +0.000 A 
ATOM      4  C   UNL     1      45.586   5.646  11.665  0.00  0.00    +0.000 A 
ATOM      5  C   UNL     1      45.088   4.405  11.236  0.00  0.00    +0.000 A 
ATOM      6  C   UNL     1      45.296   3.283  12.051  0.00  0.00    +0.000 A 
ATOM      7  C   UNL     1      45.970   3.396  13.268  0.00  0.00    +0.000 A 
BRANCH   5   8
ATOM      8  C   UNL     1      44.322   4.298   9.933  0.00  0.00    +0.000 C 
BRANCH   8   9
ATOM      9  O   UNL     1      43.248   5.249   9.939  0.00  0.00    +0.000 OA
ATOM     10  H   UNL     1      42.997   5.405   9.014  0.00  0.00    +0.000 HD
ENDBRANCH   8   9
BRANCH   8  11
ATOM     11  C   UNL     1      45.194   4.551   8.669  0.00  0.00    +0.000 C 
BRANCH  11  12
ATOM     12  N   UNL     1      45.561   3.380   7.843  0.00  0.00    +0.000 NA
ATOM     13  C   UNL     1      46.648   3.697   6.905  0.00  0.00    +0.000 C 
ATOM     14  C   UNL     1      47.039   2.483   6.059  0.00  0.00    +0.000 C 
ATOM     15  C   UNL     1      47.413   1.295   6.934  0.00  0.00    +0.000 C 
ATOM     16  C   UNL     1      46.295   1.005   7.927  0.00  0.00    +0.000 C 
ATOM     17  C   UNL     1      45.926   2.256   8.722  0.00  0.00    +0.000 C 
ENDBRANCH  11  12
ENDBRANCH   8  11
ENDBRANCH   5   8
ENDBRANCH   1   2
BRANCH   1  20
ATOM     18  O   UNL     1      49.474   5.384  16.541  0.00  0.00    +0.000 OA
ATOM     19  C   UNL     1      48.954   6.257  15.851  0.00  0.00    +0.000 C 
ATOM     20  N   UNL     1      47.804   6.056  15.135  0.00  0.00    +0.000 N 
ATOM     21  H   UNL     1      47.547   6.733  14.428  0.00  0.00    +0.000 HD
BRANCH  19  22
ATOM     22  C   UNL     1      49.508   7.613  15.787  0.00  0.00    +0.000 A 
ATOM     23  C   UNL     1      50.129   8.059  14.629  0.00  0.00    +0.000 A 
ATOM     24  S   UNL     1      50.721   9.655  14.749  0.00  0.00    +0.000 S 
ATOM     25  C   UNL     1      50.134   9.816  16.336  0.00  0.00    +0.000 A 
ATOM     26  N   UNL     1      50.286  10.976  17.031  0.00  0.00    +0.000 NA
ATOM     27  C   UNL     1      49.751  10.967  18.208  0.00  0.00    +0.000 A 
ATOM     28  N   UNL     1      49.090   9.901  18.760  0.00  0.00    +0.000 N 
ATOM     29  C   UNL     1      48.997   8.687  18.133  0.00  0.00    +0.000 A 
ATOM     30  O   UNL     1      48.551   7.705  18.724  0.00  0.00    +0.000 OA
ATOM     31  C   UNL     1      49.528   8.658  16.779  0.00  0.00    +0.000 A 
ATOM     32  H   UNL     1      48.736   9.948  19.699  0.00  0.00    +0.000 HD
ENDBRANCH  19  22
ENDBRANCH   1  20
TORSDOF 7
ENDMDL
MODEL 8
REMARK VINA RESULT:    -6.696      2.097      3.478
REMARK INTER + INTRA:         -10.361
REMARK INTER:                  -9.679
REMARK INTRA:                  -0.683
REMARK UNBOUND:                -1.122
REMARK  Name = 
REMARK  7 active torsions:
REMARK  status: ('A' for Active; 'I' for Inactive)
REMARK    1  A    between atoms: C_2  and  C_20
REMARK    2  A    between atoms: N_3  and  C_4
REMARK    3  A    between atoms: C_4  and  C_5
REMARK    4  A    between atoms: C_8  and  C_9
REMARK    5  A    between atoms: C_9  and  O_10
REMARK    6  A    between atoms: C_9  and  C_11
REMARK    7  A    between atoms: C_11  and  N_12
REMARK                            x       y       z     vdW  Elec       q    Type
REMARK                         _______ _______ _______ _____ _____    ______ ____
ROOT
ATOM      1  C   UNL     1      47.536   3.977  15.364  0.00  0.00    +0.000 C 
ENDROOT
BRANCH   1   2
ATOM      2  C   UNL     1      46.802   4.245  14.079  0.00  0.00    +0.000 A 
ATOM      3  C   UNL     1      46.180   3.200  13.387  0.00  0.00    +0.000 A 
ATOM      4  C   UNL     1      45.506   3.443  12.188  0.00  0.00    +0.000 A 
ATOM      5  C   UNL     1      45.461   4.736  11.643  0.00  0.00    +0.000 A 
ATOM      6  C   UNL     1      46.094   5.777  12.338  0.00  0.00    +0.000 A 
ATOM      7  C   UNL     1      46.767   5.534  13.535  0.00  0.00    +0.000 A 
BRANCH   5   8
ATOM      8  C   UNL     1      44.762   4.984  10.322  0.00  0.00    +0.000 C 
BRANCH   8   9
ATOM      9  O   UNL     1      45.549   5.893   9.537  0.00  0.00    +0.000 OA
ATOM     10  H   UNL     1      45.074   6.740   9.518  0.00  0.00    +0.000 HD
ENDBRANCH   8   9
BRANCH   8  11
ATOM     11  C   UNL     1      44.524   3.694   9.485  0.00  0.00    +0.000 C 
BRANCH  11  12
ATOM     12  N   UNL     1      45.661   3.163   8.703  0.00  0.00    +0.000 NA
ATOM     13  C   UNL     1      45.643   1.693   8.648  0.00  0.00    +0.000 C 
ATOM     14  C   UNL     1      46.811   1.142   7.828  0.00  0.00    +0.000 C 
ATOM     15  C   UNL     1      46.830   1.732   6.424  0.00  0.00    +0.000 C 
ATOM     16  C   UNL     1      46.807   3.253   6.497  0.00  0.00    +0.000 C 
ATOM     17  C   UNL     1      45.640   3.746   7.351  0.00  0.00    +0.000 C 
ENDBRANCH  11  12
ENDBRANCH   8  11
ENDBRANCH   5   8
ENDBRANCH   1   2
BRANCH   1  20
ATOM     18  O   UNL     1      49.740   5.254  16.582  0.00  0.00    +0.000 OA
ATOM     19  C   UNL     1      48.612   5.719  16.734  0.00  0.00    +0.000 C 
ATOM     20  N   UNL     1      47.485   5.118  16.239  0.00  0.00    +0.000 N 
ATOM     21  H   UNL     1      46.624   5.650  16.210  0.00  0.00    +0.000 HD
BRANCH  19  22
ATOM     22  C   UNL     1      48.387   6.939  17.514  0.00  0.00    +0.000 A 
ATOM     23  C   UNL     1      48.122   6.857  18.875  0.00  0.00    +0.000 A 
ATOM     24  S   UNL     1      47.875   8.378  19.610  0.00  0.00    +0.000 S 
ATOM     25  C   UNL     1      48.151   9.196  18.145  0.00  0.00    +0.000 A 
ATOM     26  N   UNL     1      48.115  10.555  18.077  0.00  0.00    +0.000 NA
ATOM     27  C   UNL     1      48.388  11.038  16.910  0.00  0.00    +0.000 A 
ATOM     28  N   UNL     1      48.679  10.289  15.800  0.00  0.00    +0.000 N 
ATOM     29  C   UNL     1      48.634   8.920  15.802  0.00  0.00    +0.000 A 
ATOM     30  O   UNL     1      48.729   8.285  14.754  0.00  0.00    +0.000 OA
ATOM     31  C   UNL     1      48.393   8.320  17.105  0.00  0.00    +0.000 A 
ATOM     32  H   UNL     1      48.838  10.730  14.911  0.00  0.00    +0.000 HD
ENDBRANCH  19  22
ENDBRANCH   1  20
TORSDOF 7
ENDMDL
MODEL 9
REMARK VINA RESULT:    -6.647      3.810      8.817
REMARK INTER + INTRA:         -10.294
REMARK INTER:                  -9.305
REMARK INTRA:                  -0.989
REMARK UNBOUND:                -1.122
REMARK  Name = 
REMARK  7 active torsions:
REMARK  status: ('A' for Active; 'I' for Inactive)
REMARK    1  A    between atoms: C_2  and  C_20
REMARK    2  A    between atoms: N_3  and  C_4
REMARK    3  A    between atoms: C_4  and  C_5
REMARK    4  A    between atoms: C_8  and  C_9
REMARK    5  A    between atoms: C_9  and  O_10
REMARK    6  A    between atoms: C_9  and  C_11
REMARK    7  A    between atoms: C_11  and  N_12
REMARK                            x       y       z     vdW  Elec       q    Type
REMARK                         _______ _______ _______ _____ _____    ______ ____
ROOT
ATOM      1  C   UNL     1      47.122   3.434  16.848  0.00  0.00    +0.000 C 
ENDROOT
BRANCH   1   2
ATOM      2  C   UNL     1      48.572   3.494  17.244  0.00  0.00    +0.000 A 
ATOM      3  C   UNL     1      49.441   2.448  16.911  0.00  0.00    +0.000 A 
ATOM      4  C   UNL     1      50.785   2.495  17.286  0.00  0.00    +0.000 A 
ATOM      5  C   UNL     1      51.284   3.582  18.022  0.00  0.00    +0.000 A 
ATOM      6  C   UNL     1      50.406   4.621  18.359  0.00  0.00    +0.000 A 
ATOM      7  C   UNL     1      49.063   4.575  17.985  0.00  0.00    +0.000 A 
BRANCH   5   8
ATOM      8  C   UNL     1      52.735   3.606  18.459  0.00  0.00    +0.000 C 
BRANCH   8   9
ATOM      9  O   UNL     1      53.463   2.608  17.728  0.00  0.00    +0.000 OA
ATOM     10  H   UNL     1      54.209   3.057  17.296  0.00  0.00    +0.000 HD
ENDBRANCH   8   9
BRANCH   8  11
ATOM     11  C   UNL     1      53.434   4.979  18.244  0.00  0.00    +0.000 C 
BRANCH  11  12
ATOM     12  N   UNL     1      53.461   5.529  16.870  0.00  0.00    +0.000 NA
ATOM     13  C   UNL     1      52.838   6.859  16.805  0.00  0.00    +0.000 C 
ATOM     14  C   UNL     1      52.878   7.435  15.388  0.00  0.00    +0.000 C 
ATOM     15  C   UNL     1      54.301   7.480  14.848  0.00  0.00    +0.000 C 
ATOM     16  C   UNL     1      54.946   6.105  14.960  0.00  0.00    +0.000 C 
ATOM     17  C   UNL     1      54.851   5.567  16.387  0.00  0.00    +0.000 C 
ENDBRANCH  11  12
ENDBRANCH   8  11
ENDBRANCH   5   8
ENDBRANCH   1   2
BRANCH   1  20
ATOM     18  O   UNL     1      47.256   3.111  14.046  0.00  0.00    +0.000 OA
ATOM     19  C   UNL     1      46.839   4.169  14.513  0.00  0.00    +0.000 C 
ATOM     20  N   UNL     1      46.812   4.431  15.857  0.00  0.00    +0.000 N 
ATOM     21  H   UNL     1      46.268   5.217  16.188  0.00  0.00    +0.000 HD
BRANCH  19  22
ATOM     22  C   UNL     1      46.385   5.261  13.647  0.00  0.00    +0.000 A 
ATOM     23  C   UNL     1      47.204   6.359  13.423  0.00  0.00    +0.000 A 
ATOM     24  S   UNL     1      46.500   7.531  12.401  0.00  0.00    +0.000 S 
ATOM     25  C   UNL     1      45.097   6.593  12.194  0.00  0.00    +0.000 A 
ATOM     26  N   UNL     1      44.078   7.014  11.396  0.00  0.00    +0.000 NA
ATOM     27  C   UNL     1      43.097   6.179  11.299  0.00  0.00    +0.000 A 
ATOM     28  N   UNL     1      43.033   4.967  11.937  0.00  0.00    +0.000 N 
ATOM     29  C   UNL     1      43.992   4.548  12.820  0.00  0.00    +0.000 A 
ATOM     30  O   UNL     1      43.821   3.541  13.505  0.00  0.00    +0.000 OA
ATOM     31  C   UNL     1      45.151   5.422  12.922  0.00  0.00    +0.000 A 
ATOM     32  H   UNL     1      42.218   4.385  11.852  0.00  0.00    +0.000 HD
ENDBRANCH  19  22
ENDBRANCH   1  20
TORSDOF 7
ENDMDL
