MODEL 1
REMARK VINA RESULT:    -8.485      0.000      0.000
REMARK INTER + INTRA:         -11.095
REMARK INTER:                 -10.965
REMARK INTRA:                  -0.130
REMARK UNBOUND:                -0.130
REMARK  Name = 
REMARK  5 active torsions:
REMARK  status: ('A' for Active; 'I' for Inactive)
REMARK    1  A    between atoms: C_7  and  C_8
REMARK    2  A    between atoms: N_10  and  C_11
REMARK    3  A    between atoms: C_11  and  C_12
REMARK    4  A    between atoms: C_15  and  C_16
REMARK    5  A    between atoms: C_16  and  N_17
REMARK                            x       y       z     vdW  Elec       q    Type
REMARK                         _______ _______ _______ _____ _____    ______ ____
ROOT
ATOM      1  C   UNL     1      48.503   6.663  14.298  0.00  0.00    +0.000 C 
ATOM      2  O   UNL     1      49.240   6.882  13.338  0.00  0.00    +0.000 OA
ATOM      3  N   UNL     1      47.137   6.799  14.202  0.00  0.00    +0.000 N 
ATOM      4  H   UNL     1      46.541   6.568  14.993  0.00  0.00    +0.000 HD
ENDROOT
BRANCH   1  11
ATOM      5  N   UNL     1      48.291   2.946  19.896  0.00  0.00    +0.000 N 
ATOM      6  C   UNL     1      48.461   3.742  18.807  0.00  0.00    +0.000 A 
ATOM      7  N   UNL     1      49.427   4.616  18.778  0.00  0.00    +0.000 NA
ATOM      8  C   UNL     1      49.470   5.342  17.639  0.00  0.00    +0.000 A 
ATOM      9  N   UNL     1      50.396   6.312  17.403  0.00  0.00    +0.000 N 
ATOM     10  C   UNL     1      50.153   6.874  16.175  0.00  0.00    +0.000 A 
ATOM     11  C   UNL     1      49.040   6.261  15.600  0.00  0.00    +0.000 A 
ATOM     12  C   UNL     1      48.633   5.269  16.544  0.00  0.00    +0.000 A 
ATOM     13  C   UNL     1      47.592   4.275  16.592  0.00  0.00    +0.000 A 
ATOM     14  O   UNL     1      46.809   4.060  15.672  0.00  0.00    +0.000 OA
ATOM     15  N   UNL     1      47.563   3.566  17.778  0.00  0.00    +0.000 N 
ATOM     16  H   UNL     1      48.822   3.275  20.697  0.00  0.00    +0.000 HD
ATOM     17  H   UNL     1      47.346   2.677  20.132  0.00  0.00    +0.000 HD
ATOM     18  H   UNL     1      51.135   6.568  18.045  0.00  0.00    +0.000 HD
ATOM     19  H   UNL     1      46.871   2.838  17.835  0.00  0.00    +0.000 HD
ENDBRANCH   1  11
BRANCH   3  20
ATOM     20  C   UNL     1      46.524   7.219  12.965  0.00  0.00    +0.000 C 
BRANCH  20  21
ATOM     21  C   UNL     1      45.925   6.078  12.197  0.00  0.00    +0.000 A 
ATOM     22  C   UNL     1      46.082   4.759  12.628  0.00  0.00    +0.000 A 
ATOM     23  C   UNL     1      45.536   3.715  11.886  0.00  0.00    +0.000 A 
ATOM     24  C   UNL     1      44.819   4.011  10.729  0.00  0.00    +0.000 A 
ATOM     25  N   UNL     1      44.641   5.283  10.292  0.00  0.00    +0.000 NA
ATOM     26  C   UNL     1      45.192   6.279  11.034  0.00  0.00    +0.000 A 
BRANCH  24  27
ATOM     27  C   UNL     1      44.222   2.876   9.908  0.00  0.00    +0.000 C 
BRANCH  27  28
ATOM     28  N   UNL     1      44.875   2.649   8.587  0.00  0.00    +0.000 NA
ATOM     29  C   UNL     1      45.540   3.888   8.146  0.00  0.00    +0.000 C 
ATOM     30  C   UNL     1      46.420   3.702   6.909  0.00  0.00    +0.000 C 
ATOM     31  C   UNL     1      47.429   2.585   7.117  0.00  0.00    +0.000 C 
ATOM     32  C   UNL     1      46.688   1.306   7.471  0.00  0.00    +0.000 C 
ATOM     33  C   UNL     1      45.797   1.506   8.698  0.00  0.00    +0.000 C 
ENDBRANCH  27  28
ENDBRANCH  24  27
ENDBRANCH  20  21
ENDBRANCH   3  20
TORSDOF 5
ENDMDL
MODEL 2
REMARK VINA RESULT:    -7.860      3.264      9.179
REMARK INTER + INTRA:         -10.288
REMARK INTER:                  -9.593
REMARK INTRA:                  -0.694
REMARK UNBOUND:                -0.130
REMARK  Name = 
REMARK  5 active torsions:
REMARK  status: ('A' for Active; 'I' for Inactive)
REMARK    1  A    between atoms: C_7  and  C_8
REMARK    2  A    between atoms: N_10  and  C_11
REMARK    3  A    between atoms: C_11  and  C_12
REMARK    4  A    between atoms: C_15  and  C_16
REMARK    5  A    between atoms: C_16  and  N_17
REMARK                            x       y       z     vdW  Elec       q    Type
REMARK                         _______ _______ _______ _____ _____    ______ ____
ROOT
ATOM      1  C   UNL     1      44.077   4.094  10.369  0.00  0.00    +0.000 C 
ATOM      2  O   UNL     1      42.983   3.880  10.887  0.00  0.00    +0.000 OA
ATOM      3  N   UNL     1      44.734   5.290  10.543  0.00  0.00    +0.000 N 
ATOM      4  H   UNL     1      45.659   5.431  10.144  0.00  0.00    +0.000 HD
ENDROOT
BRANCH   1  11
ATOM      5  N   UNL     1      48.338   2.366   5.465  0.00  0.00    +0.000 N 
ATOM      6  C   UNL     1      47.464   2.578   6.483  0.00  0.00    +0.000 A 
ATOM      7  N   UNL     1      46.798   1.581   6.993  0.00  0.00    +0.000 NA
ATOM      8  C   UNL     1      45.961   1.939   7.992  0.00  0.00    +0.000 A 
ATOM      9  N   UNL     1      45.168   1.055   8.659  0.00  0.00    +0.000 N 
ATOM     10  C   UNL     1      44.423   1.735   9.589  0.00  0.00    +0.000 A 
ATOM     11  C   UNL     1      44.732   3.094   9.523  0.00  0.00    +0.000 A 
ATOM     12  C   UNL     1      45.733   3.198   8.509  0.00  0.00    +0.000 A 
ATOM     13  C   UNL     1      46.504   4.276   7.945  0.00  0.00    +0.000 A 
ATOM     14  O   UNL     1      46.447   5.437   8.341  0.00  0.00    +0.000 OA
ATOM     15  N   UNL     1      47.334   3.879   6.914  0.00  0.00    +0.000 N 
ATOM     16  H   UNL     1      48.220   1.450   5.043  0.00  0.00    +0.000 HD
ATOM     17  H   UNL     1      48.445   3.104   4.782  0.00  0.00    +0.000 HD
ATOM     18  H   UNL     1      45.143   0.059   8.480  0.00  0.00    +0.000 HD
ATOM     19  H   UNL     1      47.913   4.599   6.518  0.00  0.00    +0.000 HD
ENDBRANCH   1  11
BRANCH   3  20
ATOM     20  C   UNL     1      44.149   6.343  11.337  0.00  0.00    +0.000 C 
BRANCH  20  21
ATOM     21  C   UNL     1      45.170   7.131  12.102  0.00  0.00    +0.000 A 
ATOM     22  C   UNL     1      45.162   8.527  12.085  0.00  0.00    +0.000 A 
ATOM     23  C   UNL     1      46.135   9.236  12.785  0.00  0.00    +0.000 A 
ATOM     24  C   UNL     1      47.094   8.534  13.511  0.00  0.00    +0.000 A 
ATOM     25  N   UNL     1      47.119   7.178  13.554  0.00  0.00    +0.000 NA
ATOM     26  C   UNL     1      46.162   6.514  12.856  0.00  0.00    +0.000 A 
BRANCH  24  27
ATOM     27  C   UNL     1      48.164   9.301  14.276  0.00  0.00    +0.000 C 
BRANCH  27  28
ATOM     28  N   UNL     1      48.734   8.576  15.448  0.00  0.00    +0.000 NA
ATOM     29  C   UNL     1      50.206   8.648  15.405  0.00  0.00    +0.000 C 
ATOM     30  C   UNL     1      50.881   8.123  16.673  0.00  0.00    +0.000 C 
ATOM     31  C   UNL     1      50.334   8.814  17.911  0.00  0.00    +0.000 C 
ATOM     32  C   UNL     1      48.827   8.624  17.963  0.00  0.00    +0.000 C 
ATOM     33  C   UNL     1      48.163   9.136  16.683  0.00  0.00    +0.000 C 
ENDBRANCH  27  28
ENDBRANCH  24  27
ENDBRANCH  20  21
ENDBRANCH   3  20
TORSDOF 5
ENDMDL
MODEL 3
REMARK VINA RESULT:    -7.830      2.768      8.282
REMARK INTER + INTRA:         -10.249
REMARK INTER:                  -9.352
REMARK INTRA:                  -0.897
REMARK UNBOUND:                -0.130
REMARK  Name = 
REMARK  5 active torsions:
REMARK  status: ('A' for Active; 'I' for Inactive)
REMARK    1  A    between atoms: C_7  and  C_8
REMARK    2  A    between atoms: N_10  and  C_11
REMARK    3  A    between atoms: C_11  and  C_12
REMARK    4  A    between atoms: C_15  and  C_16
REMARK    5  A    between atoms: C_16  and  N_17
REMARK                            x       y       z     vdW  Elec       q    Type
REMARK                         _______ _______ _______ _____ _____    ______ ____
ROOT
ATOM      1  C   UNL     1      47.301   7.092  12.709  0.00  0.00    +0.000 C 
ATOM      2  O   UNL     1      48.162   7.582  11.982  0.00  0.00    +0.000 OA
ATOM      3  N   UNL     1      47.444   7.068  14.078  0.00  0.00    +0.000 N 
ATOM      4  H   UNL     1      46.700   6.700  14.665  0.00  0.00    +0.000 HD
ENDROOT
BRANCH   1  11
ATOM      5  N   UNL     1      43.250   1.829  11.670  0.00  0.00    +0.000 N 
ATOM      6  C   UNL     1      43.966   2.973  11.825  0.00  0.00    +0.000 A 
ATOM      7  N   UNL     1      43.574   4.075  11.253  0.00  0.00    +0.000 NA
ATOM      8  C   UNL     1      44.386   5.130  11.487  0.00  0.00    +0.000 A 
ATOM      9  N   UNL     1      44.164   6.374  10.980  0.00  0.00    +0.000 N 
ATOM     10  C   UNL     1      45.178   7.208  11.379  0.00  0.00    +0.000 A 
ATOM     11  C   UNL     1      46.085   6.489  12.158  0.00  0.00    +0.000 A 
ATOM     12  C   UNL     1      45.547   5.169  12.232  0.00  0.00    +0.000 A 
ATOM     13  C   UNL     1      45.942   3.942  12.876  0.00  0.00    +0.000 A 
ATOM     14  O   UNL     1      46.919   3.840  13.611  0.00  0.00    +0.000 OA
ATOM     15  N   UNL     1      45.102   2.880  12.599  0.00  0.00    +0.000 N 
ATOM     16  H   UNL     1      42.572   1.901  10.917  0.00  0.00    +0.000 HD
ATOM     17  H   UNL     1      43.762   0.957  11.657  0.00  0.00    +0.000 HD
ATOM     18  H   UNL     1      43.373   6.625  10.400  0.00  0.00    +0.000 HD
ATOM     19  H   UNL     1      45.326   2.015  13.060  0.00  0.00    +0.000 HD
ENDBRANCH   1  11
BRANCH   3  20
ATOM     20  C   UNL     1      48.623   7.613  14.705  0.00  0.00    +0.000 C 
BRANCH  20  21
ATOM     21  C   UNL     1      49.265   6.657  15.666  0.00  0.00    +0.000 A 
ATOM     22  C   UNL     1      50.587   6.833  16.081  0.00  0.00    +0.000 A 
ATOM     23  C   UNL     1      51.167   5.919  16.957  0.00  0.00    +0.000 A 
ATOM     24  C   UNL     1      50.406   4.850  17.422  0.00  0.00    +0.000 A 
ATOM     25  N   UNL     1      49.117   4.660  17.044  0.00  0.00    +0.000 NA
ATOM     26  C   UNL     1      48.580   5.564  16.184  0.00  0.00    +0.000 A 
BRANCH  24  27
ATOM     27  C   UNL     1      51.034   3.843  18.376  0.00  0.00    +0.000 C 
BRANCH  27  28
ATOM     28  N   UNL     1      52.182   3.078  17.809  0.00  0.00    +0.000 NA
ATOM     29  C   UNL     1      53.371   3.272  18.657  0.00  0.00    +0.000 C 
ATOM     30  C   UNL     1      54.542   2.360  18.286  0.00  0.00    +0.000 C 
ATOM     31  C   UNL     1      54.116   0.902  18.267  0.00  0.00    +0.000 C 
ATOM     32  C   UNL     1      52.953   0.736  17.302  0.00  0.00    +0.000 C 
ATOM     33  C   UNL     1      51.794   1.664  17.671  0.00  0.00    +0.000 C 
ENDBRANCH  27  28
ENDBRANCH  24  27
ENDBRANCH  20  21
ENDBRANCH   3  20
TORSDOF 5
ENDMDL
MODEL 4
REMARK VINA RESULT:    -7.648      2.729      7.813
REMARK INTER + INTRA:         -10.013
REMARK INTER:                  -9.454
REMARK INTRA:                  -0.559
REMARK UNBOUND:                -0.130
REMARK  Name = 
REMARK  5 active torsions:
REMARK  status: ('A' for Active; 'I' for Inactive)
REMARK    1  A    between atoms: C_7  and  C_8
REMARK    2  A    between atoms: N_10  and  C_11
REMARK    3  A    between atoms: C_11  and  C_12
REMARK    4  A    between atoms: C_15  and  C_16
REMARK    5  A    between atoms: C_16  and  N_17
REMARK                            x       y       z     vdW  Elec       q    Type
REMARK                         _______ _______ _______ _____ _____    ______ ____
ROOT
ATOM      1  C   UNL     1      46.872   7.795  12.608  0.00  0.00    +0.000 C 
ATOM      2  O   UNL     1      47.884   7.901  11.917  0.00  0.00    +0.000 OA
ATOM      3  N   UNL     1      46.801   8.339  13.870  0.00  0.00    +0.000 N 
ATOM      4  H   UNL     1      45.940   8.281  14.406  0.00  0.00    +0.000 HD
ENDROOT
BRANCH   1  11
ATOM      5  N   UNL     1      43.334   2.138  11.789  0.00  0.00    +0.000 N 
ATOM      6  C   UNL     1      43.936   3.350  11.907  0.00  0.00    +0.000 A 
ATOM      7  N   UNL     1      43.394   4.406  11.369  0.00  0.00    +0.000 NA
ATOM      8  C   UNL     1      44.105   5.540  11.559  0.00  0.00    +0.000 A 
ATOM      9  N   UNL     1      43.722   6.754  11.077  0.00  0.00    +0.000 N 
ATOM     10  C   UNL     1      44.667   7.690  11.417  0.00  0.00    +0.000 A 
ATOM     11  C   UNL     1      45.692   7.070  12.131  0.00  0.00    +0.000 A 
ATOM     12  C   UNL     1      45.301   5.700  12.228  0.00  0.00    +0.000 A 
ATOM     13  C   UNL     1      45.862   4.521  12.836  0.00  0.00    +0.000 A 
ATOM     14  O   UNL     1      46.891   4.521  13.507  0.00  0.00    +0.000 OA
ATOM     15  N   UNL     1      45.122   3.377  12.606  0.00  0.00    +0.000 N 
ATOM     16  H   UNL     1      42.605   2.139  11.082  0.00  0.00    +0.000 HD
ATOM     17  H   UNL     1      43.933   1.325  11.737  0.00  0.00    +0.000 HD
ATOM     18  H   UNL     1      42.874   6.922  10.550  0.00  0.00    +0.000 HD
ATOM     19  H   UNL     1      45.465   2.539  13.044  0.00  0.00    +0.000 HD
ENDBRANCH   1  11
BRANCH   3  20
ATOM     20  C   UNL     1      47.927   9.046  14.430  0.00  0.00    +0.000 C 
BRANCH  20  21
ATOM     21  C   UNL     1      48.682   8.231  15.437  0.00  0.00    +0.000 A 
ATOM     22  C   UNL     1      48.571   8.492  16.804  0.00  0.00    +0.000 A 
ATOM     23  C   UNL     1      49.300   7.736  17.718  0.00  0.00    +0.000 A 
ATOM     24  C   UNL     1      50.117   6.711  17.249  0.00  0.00    +0.000 A 
ATOM     25  N   UNL     1      50.236   6.427  15.927  0.00  0.00    +0.000 NA
ATOM     26  C   UNL     1      49.518   7.186  15.060  0.00  0.00    +0.000 A 
BRANCH  24  27
ATOM     27  C   UNL     1      50.921   5.881  18.241  0.00  0.00    +0.000 C 
BRANCH  27  28
ATOM     28  N   UNL     1      50.476   4.464  18.374  0.00  0.00    +0.000 NA
ATOM     29  C   UNL     1      49.041   4.364  18.055  0.00  0.00    +0.000 C 
ATOM     30  C   UNL     1      48.535   2.925  17.953  0.00  0.00    +0.000 C 
ATOM     31  C   UNL     1      49.371   2.119  16.972  0.00  0.00    +0.000 C 
ATOM     32  C   UNL     1      50.828   2.169  17.402  0.00  0.00    +0.000 C 
ATOM     33  C   UNL     1      51.319   3.613  17.518  0.00  0.00    +0.000 C 
ENDBRANCH  27  28
ENDBRANCH  24  27
ENDBRANCH  20  21
ENDBRANCH   3  20
TORSDOF 5
ENDMDL
MODEL 5
REMARK VINA RESULT:    -7.261      1.421      1.894
REMARK INTER + INTRA:          -9.514
REMARK INTER:                  -8.742
REMARK INTRA:                  -0.772
REMARK UNBOUND:                -0.130
REMARK  Name = 
REMARK  5 active torsions:
REMARK  status: ('A' for Active; 'I' for Inactive)
REMARK    1  A    between atoms: C_7  and  C_8
REMARK    2  A    between atoms: N_10  and  C_11
REMARK    3  A    between atoms: C_11  and  C_12
REMARK    4  A    between atoms: C_15  and  C_16
REMARK    5  A    between atoms: C_16  and  N_17
REMARK                            x       y       z     vdW  Elec       q    Type
REMARK                         _______ _______ _______ _____ _____    ______ ____
ROOT
ATOM      1  C   UNL     1      47.902   7.956  14.348  0.00  0.00    +0.000 C 
ATOM      2  O   UNL     1      47.659   9.154  14.220  0.00  0.00    +0.000 OA
ATOM      3  N   UNL     1      47.068   6.993  13.827  0.00  0.00    +0.000 N 
ATOM      4  H   UNL     1      47.311   6.008  13.904  0.00  0.00    +0.000 HD
ENDROOT
BRANCH   1  11
ATOM      5  N   UNL     1      50.938   3.752  18.626  0.00  0.00    +0.000 N 
ATOM      6  C   UNL     1      50.453   4.653  17.733  0.00  0.00    +0.000 A 
ATOM      7  N   UNL     1      51.217   5.606  17.281  0.00  0.00    +0.000 NA
ATOM      8  C   UNL     1      50.601   6.432  16.406  0.00  0.00    +0.000 A 
ATOM      9  N   UNL     1      51.215   7.495  15.819  0.00  0.00    +0.000 N 
ATOM     10  C   UNL     1      50.315   8.141  15.009  0.00  0.00    +0.000 A 
ATOM     11  C   UNL     1      49.084   7.487  15.076  0.00  0.00    +0.000 A 
ATOM     12  C   UNL     1      49.296   6.385  15.958  0.00  0.00    +0.000 A 
ATOM     13  C   UNL     1      48.483   5.304  16.452  0.00  0.00    +0.000 A 
ATOM     14  O   UNL     1      47.324   5.105  16.100  0.00  0.00    +0.000 OA
ATOM     15  N   UNL     1      49.137   4.492  17.359  0.00  0.00    +0.000 N 
ATOM     16  H   UNL     1      51.818   4.053  19.034  0.00  0.00    +0.000 HD
ATOM     17  H   UNL     1      50.293   3.383  19.311  0.00  0.00    +0.000 HD
ATOM     18  H   UNL     1      52.181   7.756  15.971  0.00  0.00    +0.000 HD
ATOM     19  H   UNL     1      48.611   3.706  17.699  0.00  0.00    +0.000 HD
ENDBRANCH   1  11
BRANCH   3  20
ATOM     20  C   UNL     1      45.867   7.363  13.120  0.00  0.00    +0.000 C 
BRANCH  20  21
ATOM     21  C   UNL     1      45.539   6.423  11.999  0.00  0.00    +0.000 A 
ATOM     22  C   UNL     1      44.425   5.583  12.066  0.00  0.00    +0.000 A 
ATOM     23  C   UNL     1      44.155   4.702  11.022  0.00  0.00    +0.000 A 
ATOM     24  C   UNL     1      44.995   4.690   9.912  0.00  0.00    +0.000 A 
ATOM     25  N   UNL     1      46.078   5.502   9.814  0.00  0.00    +0.000 NA
ATOM     26  C   UNL     1      46.320   6.345  10.852  0.00  0.00    +0.000 A 
BRANCH  24  27
ATOM     27  C   UNL     1      44.710   3.727   8.767  0.00  0.00    +0.000 C 
BRANCH  27  28
ATOM     28  N   UNL     1      45.908   3.016   8.236  0.00  0.00    +0.000 NA
ATOM     29  C   UNL     1      45.732   1.562   8.399  0.00  0.00    +0.000 C 
ATOM     30  C   UNL     1      46.806   0.733   7.693  0.00  0.00    +0.000 C 
ATOM     31  C   UNL     1      46.911   1.110   6.225  0.00  0.00    +0.000 C 
ATOM     32  C   UNL     1      47.193   2.599   6.112  0.00  0.00    +0.000 C 
ATOM     33  C   UNL     1      46.123   3.419   6.836  0.00  0.00    +0.000 C 
ENDBRANCH  27  28
ENDBRANCH  24  27
ENDBRANCH  20  21
ENDBRANCH   3  20
TORSDOF 5
ENDMDL
MODEL 6
REMARK VINA RESULT:    -6.979      2.912      4.718
REMARK INTER + INTRA:          -9.149
REMARK INTER:                  -8.417
REMARK INTRA:                  -0.732
REMARK UNBOUND:                -0.130
REMARK  Name = 
REMARK  5 active torsions:
REMARK  status: ('A' for Active; 'I' for Inactive)
REMARK    1  A    between atoms: C_7  and  C_8
REMARK    2  A    between atoms: N_10  and  C_11
REMARK    3  A    between atoms: C_11  and  C_12
REMARK    4  A    between atoms: C_15  and  C_16
REMARK    5  A    between atoms: C_16  and  N_17
REMARK                            x       y       z     vdW  Elec       q    Type
REMARK                         _______ _______ _______ _____ _____    ______ ____
ROOT
ATOM      1  C   UNL     1      50.246   6.107  18.096  0.00  0.00    +0.000 C 
ATOM      2  O   UNL     1      49.263   6.204  18.828  0.00  0.00    +0.000 OA
ATOM      3  N   UNL     1      50.395   6.902  16.983  0.00  0.00    +0.000 N 
ATOM      4  H   UNL     1      51.237   6.839  16.417  0.00  0.00    +0.000 HD
ENDROOT
BRANCH   1  11
ATOM      5  N   UNL     1      52.696  -0.151  17.938  0.00  0.00    +0.000 N 
ATOM      6  C   UNL     1      52.329   1.155  18.011  0.00  0.00    +0.000 A 
ATOM      7  N   UNL     1      53.111   2.025  18.585  0.00  0.00    +0.000 NA
ATOM      8  C   UNL     1      52.616   3.282  18.592  0.00  0.00    +0.000 A 
ATOM      9  N   UNL     1      53.268   4.341  19.145  0.00  0.00    +0.000 N 
ATOM     10  C   UNL     1      52.492   5.465  19.010  0.00  0.00    +0.000 A 
ATOM     11  C   UNL     1      51.304   5.129  18.361  0.00  0.00    +0.000 A 
ATOM     12  C   UNL     1      51.415   3.733  18.083  0.00  0.00    +0.000 A 
ATOM     13  C   UNL     1      50.584   2.756  17.429  0.00  0.00    +0.000 A 
ATOM     14  O   UNL     1      49.516   3.021  16.884  0.00  0.00    +0.000 OA
ATOM     15  N   UNL     1      51.110   1.478  17.458  0.00  0.00    +0.000 N 
ATOM     16  H   UNL     1      53.474  -0.365  18.553  0.00  0.00    +0.000 HD
ATOM     17  H   UNL     1      51.960  -0.843  17.976  0.00  0.00    +0.000 HD
ATOM     18  H   UNL     1      54.178   4.289  19.585  0.00  0.00    +0.000 HD
ATOM     19  H   UNL     1      50.573   0.774  16.980  0.00  0.00    +0.000 HD
ENDBRANCH   1  11
BRANCH   3  20
ATOM     20  C   UNL     1      49.388   7.872  16.631  0.00  0.00    +0.000 C 
BRANCH  20  21
ATOM     21  C   UNL     1      48.680   7.537  15.352  0.00  0.00    +0.000 A 
ATOM     22  C   UNL     1      48.072   8.533  14.583  0.00  0.00    +0.000 A 
ATOM     23  C   UNL     1      47.402   8.194  13.411  0.00  0.00    +0.000 A 
ATOM     24  C   UNL     1      47.367   6.860  13.013  0.00  0.00    +0.000 A 
ATOM     25  N   UNL     1      47.958   5.873  13.733  0.00  0.00    +0.000 NA
ATOM     26  C   UNL     1      48.598   6.234  14.876  0.00  0.00    +0.000 A 
BRANCH  24  27
ATOM     27  C   UNL     1      46.633   6.479  11.734  0.00  0.00    +0.000 C 
BRANCH  27  28
ATOM     28  N   UNL     1      45.537   5.484  11.917  0.00  0.00    +0.000 NA
ATOM     29  C   UNL     1      44.528   6.025  12.844  0.00  0.00    +0.000 C 
ATOM     30  C   UNL     1      43.259   5.175  12.931  0.00  0.00    +0.000 C 
ATOM     31  C   UNL     1      42.664   4.937  11.553  0.00  0.00    +0.000 C 
ATOM     32  C   UNL     1      43.712   4.285  10.665  0.00  0.00    +0.000 C 
ATOM     33  C   UNL     1      44.982   5.134  10.599  0.00  0.00    +0.000 C 
ENDBRANCH  27  28
ENDBRANCH  24  27
ENDBRANCH  20  21
ENDBRANCH   3  20
TORSDOF 5
ENDMDL
MODEL 7
REMARK VINA RESULT:    -6.898      3.047      4.057
REMARK INTER + INTRA:          -9.045
REMARK INTER:                  -8.457
REMARK INTRA:                  -0.588
REMARK UNBOUND:                -0.130
REMARK  Name = 
REMARK  5 active torsions:
REMARK  status: ('A' for Active; 'I' for Inactive)
REMARK    1  A    between atoms: C_7  and  C_8
REMARK    2  A    between atoms: N_10  and  C_11
REMARK    3  A    between atoms: C_11  and  C_12
REMARK    4  A    between atoms: C_15  and  C_16
REMARK    5  A    between atoms: C_16  and  N_17
REMARK                            x       y       z     vdW  Elec       q    Type
REMARK                         _______ _______ _______ _____ _____    ______ ____
ROOT
ATOM      1  C   UNL     1      47.172   8.507  13.568  0.00  0.00    +0.000 C 
ATOM      2  O   UNL     1      46.769   9.560  13.078  0.00  0.00    +0.000 OA
ATOM      3  N   UNL     1      46.417   7.358  13.526  0.00  0.00    +0.000 N 
ATOM      4  H   UNL     1      46.788   6.486  13.897  0.00  0.00    +0.000 HD
ENDROOT
BRANCH   1  11
ATOM      5  N   UNL     1      53.850   7.739  13.467  0.00  0.00    +0.000 N 
ATOM      6  C   UNL     1      52.513   7.926  13.624  0.00  0.00    +0.000 A 
ATOM      7  N   UNL     1      52.002   8.031  14.818  0.00  0.00    +0.000 NA
ATOM      8  C   UNL     1      50.662   8.206  14.823  0.00  0.00    +0.000 A 
ATOM      9  N   UNL     1      49.927   8.334  15.962  0.00  0.00    +0.000 N 
ATOM     10  C   UNL     1      48.603   8.471  15.628  0.00  0.00    +0.000 A 
ATOM     11  C   UNL     1      48.471   8.424  14.240  0.00  0.00    +0.000 A 
ATOM     12  C   UNL     1      49.802   8.276  13.745  0.00  0.00    +0.000 A 
ATOM     13  C   UNL     1      50.399   8.184  12.438  0.00  0.00    +0.000 A 
ATOM     14  O   UNL     1      49.767   8.284  11.390  0.00  0.00    +0.000 OA
ATOM     15  N   UNL     1      51.766   7.986  12.469  0.00  0.00    +0.000 N 
ATOM     16  H   UNL     1      54.304   7.473  14.335  0.00  0.00    +0.000 HD
ATOM     17  H   UNL     1      54.152   7.183  12.678  0.00  0.00    +0.000 HD
ATOM     18  H   UNL     1      50.313   8.323  16.898  0.00  0.00    +0.000 HD
ATOM     19  H   UNL     1      52.223   7.951  11.573  0.00  0.00    +0.000 HD
ENDBRANCH   1  11
BRANCH   3  20
ATOM     20  C   UNL     1      45.113   7.356  12.909  0.00  0.00    +0.000 C 
BRANCH  20  21
ATOM     21  C   UNL     1      44.949   6.258  11.901  0.00  0.00    +0.000 A 
ATOM     22  C   UNL     1      44.007   5.244  12.088  0.00  0.00    +0.000 A 
ATOM     23  C   UNL     1      43.889   4.223  11.149  0.00  0.00    +0.000 A 
ATOM     24  C   UNL     1      44.704   4.243  10.021  0.00  0.00    +0.000 A 
ATOM     25  N   UNL     1      45.620   5.221   9.807  0.00  0.00    +0.000 NA
ATOM     26  C   UNL     1      45.717   6.200  10.744  0.00  0.00    +0.000 A 
BRANCH  24  27
ATOM     27  C   UNL     1      44.585   3.129   8.990  0.00  0.00    +0.000 C 
BRANCH  27  28
ATOM     28  N   UNL     1      45.870   2.738   8.342  0.00  0.00    +0.000 NA
ATOM     29  C   UNL     1      45.963   1.269   8.275  0.00  0.00    +0.000 C 
ATOM     30  C   UNL     1      47.139   0.768   7.436  0.00  0.00    +0.000 C 
ATOM     31  C   UNL     1      47.119   1.379   6.045  0.00  0.00    +0.000 C 
ATOM     32  C   UNL     1      47.127   2.894   6.166  0.00  0.00    +0.000 C 
ATOM     33  C   UNL     1      45.956   3.383   7.021  0.00  0.00    +0.000 C 
ENDBRANCH  27  28
ENDBRANCH  24  27
ENDBRANCH  20  21
ENDBRANCH   3  20
TORSDOF 5
ENDMDL
MODEL 8
REMARK VINA RESULT:    -6.803      3.327      8.574
REMARK INTER + INTRA:          -8.922
REMARK INTER:                  -7.975
REMARK INTRA:                  -0.947
REMARK UNBOUND:                -0.130
REMARK  Name = 
REMARK  5 active torsions:
REMARK  status: ('A' for Active; 'I' for Inactive)
REMARK    1  A    between atoms: C_7  and  C_8
REMARK    2  A    between atoms: N_10  and  C_11
REMARK    3  A    between atoms: C_11  and  C_12
REMARK    4  A    between atoms: C_15  and  C_16
REMARK    5  A    between atoms: C_16  and  N_17
REMARK                            x       y       z     vdW  Elec       q    Type
REMARK                         _______ _______ _______ _____ _____    ______ ____
ROOT
ATOM      1  C   UNL     1      46.990   8.393  13.030  0.00  0.00    +0.000 C 
ATOM      2  O   UNL     1      47.764   8.953  12.256  0.00  0.00    +0.000 OA
ATOM      3  N   UNL     1      47.139   8.492  14.394  0.00  0.00    +0.000 N 
ATOM      4  H   UNL     1      46.462   8.060  15.017  0.00  0.00    +0.000 HD
ENDROOT
BRANCH   1  11
ATOM      5  N   UNL     1      43.738   2.534  12.490  0.00  0.00    +0.000 N 
ATOM      6  C   UNL     1      44.283   3.778  12.537  0.00  0.00    +0.000 A 
ATOM      7  N   UNL     1      43.742   4.757  11.870  0.00  0.00    +0.000 NA
ATOM      8  C   UNL     1      44.394   5.934  12.003  0.00  0.00    +0.000 A 
ATOM      9  N   UNL     1      44.001   7.082  11.387  0.00  0.00    +0.000 N 
ATOM     10  C   UNL     1      44.883   8.085  11.705  0.00  0.00    +0.000 A 
ATOM     11  C   UNL     1      45.876   7.576  12.541  0.00  0.00    +0.000 A 
ATOM     12  C   UNL     1      45.532   6.204  12.736  0.00  0.00    +0.000 A 
ATOM     13  C   UNL     1      46.092   5.110  13.486  0.00  0.00    +0.000 A 
ATOM     14  O   UNL     1      47.068   5.215  14.224  0.00  0.00    +0.000 OA
ATOM     15  N   UNL     1      45.414   3.919  13.311  0.00  0.00    +0.000 N 
ATOM     16  H   UNL     1      43.063   2.440  11.737  0.00  0.00    +0.000 HD
ATOM     17  H   UNL     1      44.369   1.747  12.554  0.00  0.00    +0.000 HD
ATOM     18  H   UNL     1      43.188   7.164  10.790  0.00  0.00    +0.000 HD
ATOM     19  H   UNL     1      45.756   3.139  13.847  0.00  0.00    +0.000 HD
ENDBRANCH   1  11
BRANCH   3  20
ATOM     20  C   UNL     1      48.225   9.252  14.963  0.00  0.00    +0.000 C 
BRANCH  20  21
ATOM     21  C   UNL     1      49.361   8.388  15.423  0.00  0.00    +0.000 A 
ATOM     22  C   UNL     1      49.126   7.137  15.999  0.00  0.00    +0.000 A 
ATOM     23  C   UNL     1      50.197   6.363  16.439  0.00  0.00    +0.000 A 
ATOM     24  C   UNL     1      51.493   6.845  16.276  0.00  0.00    +0.000 A 
ATOM     25  N   UNL     1      51.751   8.051  15.711  0.00  0.00    +0.000 NA
ATOM     26  C   UNL     1      50.687   8.786  15.297  0.00  0.00    +0.000 A 
BRANCH  24  27
ATOM     27  C   UNL     1      52.669   6.007  16.759  0.00  0.00    +0.000 C 
BRANCH  27  28
ATOM     28  N   UNL     1      52.357   5.084  17.887  0.00  0.00    +0.000 NA
ATOM     29  C   UNL     1      53.199   3.879  17.787  0.00  0.00    +0.000 C 
ATOM     30  C   UNL     1      53.111   2.968  19.013  0.00  0.00    +0.000 C 
ATOM     31  C   UNL     1      53.407   3.738  20.289  0.00  0.00    +0.000 C 
ATOM     32  C   UNL     1      52.446   4.910  20.397  0.00  0.00    +0.000 C 
ATOM     33  C   UNL     1      52.529   5.806  19.159  0.00  0.00    +0.000 C 
ENDBRANCH  27  28
ENDBRANCH  24  27
ENDBRANCH  20  21
ENDBRANCH   3  20
TORSDOF 5
ENDMDL
MODEL 9
REMARK VINA RESULT:    -6.595      4.397      7.313
REMARK INTER + INTRA:          -8.653
REMARK INTER:                  -8.375
REMARK INTRA:                  -0.278
REMARK UNBOUND:                -0.130
REMARK  Name = 
REMARK  5 active torsions:
REMARK  status: ('A' for Active; 'I' for Inactive)
REMARK    1  A    between atoms: C_7  and  C_8
REMARK    2  A    between atoms: N_10  and  C_11
REMARK    3  A    between atoms: C_11  and  C_12
REMARK    4  A    between atoms: C_15  and  C_16
REMARK    5  A    between atoms: C_16  and  N_17
REMARK                            x       y       z     vdW  Elec       q    Type
REMARK                         _______ _______ _______ _____ _____    ______ ____
ROOT
ATOM      1  C   UNL     1      47.896   6.769  13.131  0.00  0.00    +0.000 C 
ATOM      2  O   UNL     1      48.866   6.020  13.233  0.00  0.00    +0.000 OA
ATOM      3  N   UNL     1      47.919   8.049  13.636  0.00  0.00    +0.000 N 
ATOM      4  H   UNL     1      47.124   8.668  13.500  0.00  0.00    +0.000 HD
ENDROOT
BRANCH   1  11
ATOM      5  N   UNL     1      43.329   2.067  11.641  0.00  0.00    +0.000 N 
ATOM      6  C   UNL     1      44.164   3.111  11.883  0.00  0.00    +0.000 A 
ATOM      7  N   UNL     1      43.946   4.268  11.326  0.00  0.00    +0.000 NA
ATOM      8  C   UNL     1      44.859   5.210  11.651  0.00  0.00    +0.000 A 
ATOM      9  N   UNL     1      44.823   6.485  11.175  0.00  0.00    +0.000 N 
ATOM     10  C   UNL     1      45.899   7.179  11.670  0.00  0.00    +0.000 A 
ATOM     11  C   UNL     1      46.658   6.334  12.480  0.00  0.00    +0.000 A 
ATOM     12  C   UNL     1      45.963   5.087  12.471  0.00  0.00    +0.000 A 
ATOM     13  C   UNL     1      46.163   3.805  13.095  0.00  0.00    +0.000 A 
ATOM     14  O   UNL     1      47.068   3.564  13.889  0.00  0.00    +0.000 OA
ATOM     15  N   UNL     1      45.224   2.860  12.726  0.00  0.00    +0.000 N 
ATOM     16  H   UNL     1      42.718   2.241  10.848  0.00  0.00    +0.000 HD
ATOM     17  H   UNL     1      43.733   1.140  11.631  0.00  0.00    +0.000 HD
ATOM     18  H   UNL     1      44.110   6.846  10.554  0.00  0.00    +0.000 HD
ATOM     19  H   UNL     1      45.311   1.961  13.169  0.00  0.00    +0.000 HD
ENDBRANCH   1  11
BRANCH   3  20
ATOM     20  C   UNL     1      49.087   8.550  14.318  0.00  0.00    +0.000 C 
BRANCH  20  21
ATOM     21  C   UNL     1      50.202   8.901  13.378  0.00  0.00    +0.000 A 
ATOM     22  C   UNL     1      49.948   9.562  12.175  0.00  0.00    +0.000 A 
ATOM     23  C   UNL     1      50.998   9.857  11.309  0.00  0.00    +0.000 A 
ATOM     24  C   UNL     1      52.295   9.502  11.672  0.00  0.00    +0.000 A 
ATOM     25  N   UNL     1      52.572   8.868  12.839  0.00  0.00    +0.000 NA
ATOM     26  C   UNL     1      51.527   8.589  13.660  0.00  0.00    +0.000 A 
BRANCH  24  27
ATOM     27  C   UNL     1      53.448   9.816  10.729  0.00  0.00    +0.000 C 
BRANCH  27  28
ATOM     28  N   UNL     1      53.687   8.791   9.672  0.00  0.00    +0.000 NA
ATOM     29  C   UNL     1      53.277   7.465  10.167  0.00  0.00    +0.000 C 
ATOM     30  C   UNL     1      53.279   6.382   9.088  0.00  0.00    +0.000 C 
ATOM     31  C   UNL     1      52.444   6.801   7.889  0.00  0.00    +0.000 C 
ATOM     32  C   UNL     1      52.971   8.122   7.353  0.00  0.00    +0.000 C 
ATOM     33  C   UNL     1      52.981   9.194   8.445  0.00  0.00    +0.000 C 
ENDBRANCH  27  28
ENDBRANCH  24  27
ENDBRANCH  20  21
ENDBRANCH   3  20
TORSDOF 5
ENDMDL
