MODEL 1
REMARK VINA RESULT:    -7.639      0.000      0.000
REMARK INTER + INTRA:         -11.371
REMARK INTER:                 -10.542
REMARK INTRA:                  -0.830
REMARK UNBOUND:                -0.830
REMARK  Name = 
REMARK  7 active torsions:
REMARK  status: ('A' for Active; 'I' for Inactive)
REMARK    1  A    between atoms: N_1  and  C_2
REMARK    2  A    between atoms: C_2  and  C_3
REMARK    3  A    between atoms: C_3  and  C_4
REMARK    4  A    between atoms: C_7  and  C_8
REMARK    5  A    between atoms: C_8  and  O_9
REMARK    6  A    between atoms: O_9  and  C_10
REMARK    7  A    between atoms: C_13  and  C_14
REMARK                            x       y       z     vdW  Elec       q    Type
REMARK                         _______ _______ _______ _____ _____    ______ ____
ROOT
ATOM      1  C   UNL     1      43.610   3.260  11.953  0.00  0.00    +0.000 C 
ENDROOT
BRANCH   1   5
ATOM      2  C   UNL     1      46.724   5.555  13.604  0.00  0.00    +0.000 A 
ATOM      3  C   UNL     1      46.791   4.165  13.573  0.00  0.00    +0.000 A 
ATOM      4  N   UNL     1      45.806   3.392  13.051  0.00  0.00    +0.000 NA
ATOM      5  C   UNL     1      44.732   4.058  12.558  0.00  0.00    +0.000 A 
ATOM      6  C   UNL     1      44.664   5.446  12.599  0.00  0.00    +0.000 A 
ATOM      7  N   UNL     1      45.648   6.219  13.118  0.00  0.00    +0.000 NA
BRANCH   2   8
ATOM      8  C   UNL     1      47.850   6.364  14.187  0.00  0.00    +0.000 C 
BRANCH   8   9
ATOM      9  C   UNL     1      47.892   7.781  13.610  0.00  0.00    +0.000 C 
BRANCH   9  10
ATOM     10  N   UNL     1      47.047   8.686  14.391  0.00  0.00    +0.000 NA
ATOM     11  H   UNL     1      46.957   9.573  13.894  0.00  0.00    +0.000 HD
ATOM     12  H   UNL     1      47.514   8.909  15.271  0.00  0.00    +0.000 HD
ENDBRANCH   9  10
ENDBRANCH   8   9
ENDBRANCH   2   8
ENDBRANCH   1   5
BRANCH   1  13
ATOM     13  O   UNL     1      43.359   3.710  10.620  0.00  0.00    +0.000 OA
BRANCH  13  14
ATOM     14  C   UNL     1      44.272   3.324   9.680  0.00  0.00    +0.000 A 
ATOM     15  C   UNL     1      44.761   2.035   9.497  0.00  0.00    +0.000 A 
ATOM     16  C   UNL     1      45.688   1.781   8.486  0.00  0.00    +0.000 A 
ATOM     17  C   UNL     1      46.117   2.827   7.667  0.00  0.00    +0.000 A 
ATOM     18  N   UNL     1      45.656   4.099   7.842  0.00  0.00    +0.000 NA
ATOM     19  C   UNL     1      44.752   4.312   8.833  0.00  0.00    +0.000 A 
BRANCH  17  20
ATOM     20  C   UNL     1      47.102   2.544   6.539  0.00  0.00    +0.000 C 
ATOM     21  F   UNL     1      47.129   1.227   6.170  0.00  0.00    +0.000 F 
ATOM     22  F   UNL     1      46.819   3.232   5.396  0.00  0.00    +0.000 F 
ATOM     23  F   UNL     1      48.391   2.853   6.861  0.00  0.00    +0.000 F 
ENDBRANCH  17  20
ENDBRANCH  13  14
ENDBRANCH   1  13
TORSDOF 7
ENDMDL
MODEL 2
REMARK VINA RESULT:    -7.432      1.537      2.420
REMARK INTER + INTRA:         -11.086
REMARK INTER:                 -10.366
REMARK INTRA:                  -0.721
REMARK UNBOUND:                -0.830
REMARK  Name = 
REMARK  7 active torsions:
REMARK  status: ('A' for Active; 'I' for Inactive)
REMARK    1  A    between atoms: N_1  and  C_2
REMARK    2  A    between atoms: C_2  and  C_3
REMARK    3  A    between atoms: C_3  and  C_4
REMARK    4  A    between atoms: C_7  and  C_8
REMARK    5  A    between atoms: C_8  and  O_9
REMARK    6  A    between atoms: O_9  and  C_10
REMARK    7  A    between atoms: C_13  and  C_14
REMARK                            x       y       z     vdW  Elec       q    Type
REMARK                         _______ _______ _______ _____ _____    ______ ____
ROOT
ATOM      1  C   UNL     1      44.797   5.835  11.131  0.00  0.00    +0.000 C 
ENDROOT
BRANCH   1   5
ATOM      2  C   UNL     1      47.047   5.009  14.588  0.00  0.00    +0.000 A 
ATOM      3  C   UNL     1      47.473   5.954  13.660  0.00  0.00    +0.000 A 
ATOM      4  N   UNL     1      46.775   6.246  12.533  0.00  0.00    +0.000 NA
ATOM      5  C   UNL     1      45.624   5.551  12.355  0.00  0.00    +0.000 A 
ATOM      6  C   UNL     1      45.206   4.601  13.280  0.00  0.00    +0.000 A 
ATOM      7  N   UNL     1      45.900   4.311  14.407  0.00  0.00    +0.000 NA
BRANCH   2   8
ATOM      8  C   UNL     1      47.854   4.731  15.826  0.00  0.00    +0.000 C 
BRANCH   8   9
ATOM      9  C   UNL     1      47.667   3.295  16.320  0.00  0.00    +0.000 C 
BRANCH   9  10
ATOM     10  N   UNL     1      46.683   3.243  17.403  0.00  0.00    +0.000 NA
ATOM     11  H   UNL     1      47.095   3.635  18.250  0.00  0.00    +0.000 HD
ATOM     12  H   UNL     1      46.475   2.268  17.624  0.00  0.00    +0.000 HD
ENDBRANCH   9  10
ENDBRANCH   8   9
ENDBRANCH   2   8
ENDBRANCH   1   5
BRANCH   1  13
ATOM     13  O   UNL     1      44.201   4.625  10.657  0.00  0.00    +0.000 OA
BRANCH  13  14
ATOM     14  C   UNL     1      44.896   3.961   9.687  0.00  0.00    +0.000 A 
ATOM     15  C   UNL     1      44.981   2.580   9.543  0.00  0.00    +0.000 A 
ATOM     16  C   UNL     1      45.721   2.036   8.493  0.00  0.00    +0.000 A 
ATOM     17  C   UNL     1      46.372   2.885   7.596  0.00  0.00    +0.000 A 
ATOM     18  N   UNL     1      46.309   4.241   7.732  0.00  0.00    +0.000 NA
ATOM     19  C   UNL     1      45.577   4.739   8.762  0.00  0.00    +0.000 A 
BRANCH  17  20
ATOM     20  C   UNL     1      47.151   2.292   6.429  0.00  0.00    +0.000 C 
ATOM     21  F   UNL     1      46.772   2.804   5.217  0.00  0.00    +0.000 F 
ATOM     22  F   UNL     1      48.493   2.519   6.511  0.00  0.00    +0.000 F 
ATOM     23  F   UNL     1      46.998   0.942   6.311  0.00  0.00    +0.000 F 
ENDBRANCH  17  20
ENDBRANCH  13  14
ENDBRANCH   1  13
TORSDOF 7
ENDMDL
MODEL 3
REMARK VINA RESULT:    -7.123      3.959      7.069
REMARK INTER + INTRA:         -10.660
REMARK INTER:                 -10.207
REMARK INTRA:                  -0.453
REMARK UNBOUND:                -0.830
REMARK  Name = 
REMARK  7 active torsions:
REMARK  status: ('A' for Active; 'I' for Inactive)
REMARK    1  A    between atoms: N_1  and  C_2
REMARK    2  A    between atoms: C_2  and  C_3
REMARK    3  A    between atoms: C_3  and  C_4
REMARK    4  A    between atoms: C_7  and  C_8
REMARK    5  A    between atoms: C_8  and  O_9
REMARK    6  A    between atoms: O_9  and  C_10
REMARK    7  A    between atoms: C_13  and  C_14
REMARK                            x       y       z     vdW  Elec       q    Type
REMARK                         _______ _______ _______ _____ _____    ______ ____
ROOT
ATOM      1  C   UNL     1      43.900   4.983  10.478  0.00  0.00    +0.000 C 
ENDROOT
BRANCH   1   5
ATOM      2  C   UNL     1      46.106   2.436   7.960  0.00  0.00    +0.000 A 
ATOM      3  C   UNL     1      46.196   3.821   7.844  0.00  0.00    +0.000 A 
ATOM      4  N   UNL     1      45.499   4.673   8.636  0.00  0.00    +0.000 NA
ATOM      5  C   UNL     1      44.692   4.093   9.559  0.00  0.00    +0.000 A 
ATOM      6  C   UNL     1      44.597   2.710   9.667  0.00  0.00    +0.000 A 
ATOM      7  N   UNL     1      45.295   1.858   8.878  0.00  0.00    +0.000 NA
BRANCH   2   8
ATOM      8  C   UNL     1      46.910   1.538   7.061  0.00  0.00    +0.000 C 
BRANCH   8   9
ATOM      9  C   UNL     1      48.228   2.188   6.635  0.00  0.00    +0.000 C 
BRANCH   9  10
ATOM     10  N   UNL     1      48.356   2.196   5.176  0.00  0.00    +0.000 NA
ATOM     11  H   UNL     1      48.224   1.248   4.823  0.00  0.00    +0.000 HD
ATOM     12  H   UNL     1      49.310   2.454   4.922  0.00  0.00    +0.000 HD
ENDBRANCH   9  10
ENDBRANCH   8   9
ENDBRANCH   2   8
ENDBRANCH   1   5
BRANCH   1  13
ATOM     13  O   UNL     1      44.749   5.996  11.022  0.00  0.00    +0.000 OA
BRANCH  13  14
ATOM     14  C   UNL     1      45.477   5.637  12.121  0.00  0.00    +0.000 A 
ATOM     15  C   UNL     1      46.660   6.230  12.547  0.00  0.00    +0.000 A 
ATOM     16  C   UNL     1      47.295   5.765  13.699  0.00  0.00    +0.000 A 
ATOM     17  C   UNL     1      46.733   4.705  14.414  0.00  0.00    +0.000 A 
ATOM     18  N   UNL     1      45.580   4.104  14.001  0.00  0.00    +0.000 NA
ATOM     19  C   UNL     1      44.986   4.583  12.878  0.00  0.00    +0.000 A 
BRANCH  17  20
ATOM     20  C   UNL     1      47.405   4.220  15.692  0.00  0.00    +0.000 C 
ATOM     21  F   UNL     1      47.875   2.939  15.597  0.00  0.00    +0.000 F 
ATOM     22  F   UNL     1      48.485   4.973  16.048  0.00  0.00    +0.000 F 
ATOM     23  F   UNL     1      46.570   4.217  16.771  0.00  0.00    +0.000 F 
ENDBRANCH  17  20
ENDBRANCH  13  14
ENDBRANCH   1  13
TORSDOF 7
ENDMDL
MODEL 4
REMARK VINA RESULT:    -7.076      3.545      6.723
REMARK INTER + INTRA:         -10.594
REMARK INTER:                 -10.060
REMARK INTRA:                  -0.534
REMARK UNBOUND:                -0.830
REMARK  Name = 
REMARK  7 active torsions:
REMARK  status: ('A' for Active; 'I' for Inactive)
REMARK    1  A    between atoms: N_1  and  C_2
REMARK    2  A    between atoms: C_2  and  C_3
REMARK    3  A    between atoms: C_3  and  C_4
REMARK    4  A    between atoms: C_7  and  C_8
REMARK    5  A    between atoms: C_8  and  O_9
REMARK    6  A    between atoms: O_9  and  C_10
REMARK    7  A    between atoms: C_13  and  C_14
REMARK                            x       y       z     vdW  Elec       q    Type
REMARK                         _______ _______ _______ _____ _____    ______ ____
ROOT
ATOM      1  C   UNL     1      43.392   3.658  11.391  0.00  0.00    +0.000 C 
ENDROOT
BRANCH   1   5
ATOM      2  C   UNL     1      45.734   3.125   7.937  0.00  0.00    +0.000 A 
ATOM      3  C   UNL     1      45.423   2.054   8.770  0.00  0.00    +0.000 A 
ATOM      4  N   UNL     1      44.672   2.188   9.893  0.00  0.00    +0.000 NA
ATOM      5  C   UNL     1      44.239   3.444  10.166  0.00  0.00    +0.000 A 
ATOM      6  C   UNL     1      44.559   4.513   9.338  0.00  0.00    +0.000 A 
ATOM      7  N   UNL     1      45.306   4.380   8.215  0.00  0.00    +0.000 NA
BRANCH   2   8
ATOM      8  C   UNL     1      46.562   2.919   6.699  0.00  0.00    +0.000 C 
BRANCH   8   9
ATOM      9  C   UNL     1      47.618   1.829   6.895  0.00  0.00    +0.000 C 
BRANCH   9  10
ATOM     10  N   UNL     1      48.558   1.809   5.773  0.00  0.00    +0.000 NA
ATOM     11  H   UNL     1      49.444   1.409   6.084  0.00  0.00    +0.000 HD
ATOM     12  H   UNL     1      48.773   2.768   5.495  0.00  0.00    +0.000 HD
ENDBRANCH   9  10
ENDBRANCH   8   9
ENDBRANCH   2   8
ENDBRANCH   1   5
BRANCH   1  13
ATOM     13  O   UNL     1      44.159   3.381  12.565  0.00  0.00    +0.000 OA
BRANCH  13  14
ATOM     14  C   UNL     1      45.118   4.300  12.881  0.00  0.00    +0.000 A 
ATOM     15  C   UNL     1      44.971   5.683  12.835  0.00  0.00    +0.000 A 
ATOM     16  C   UNL     1      46.037   6.507  13.196  0.00  0.00    +0.000 A 
ATOM     17  C   UNL     1      47.244   5.933  13.601  0.00  0.00    +0.000 A 
ATOM     18  N   UNL     1      47.408   4.579  13.638  0.00  0.00    +0.000 NA
ATOM     19  C   UNL     1      46.350   3.806  13.284  0.00  0.00    +0.000 A 
BRANCH  17  20
ATOM     20  C   UNL     1      48.397   6.832  14.030  0.00  0.00    +0.000 C 
ATOM     21  F   UNL     1      48.040   8.148  14.134  0.00  0.00    +0.000 F 
ATOM     22  F   UNL     1      48.908   6.501  15.250  0.00  0.00    +0.000 F 
ATOM     23  F   UNL     1      49.447   6.813  13.159  0.00  0.00    +0.000 F 
ENDBRANCH  17  20
ENDBRANCH  13  14
ENDBRANCH   1  13
TORSDOF 7
ENDMDL
MODEL 5
REMARK VINA RESULT:    -7.062      1.552      1.963
REMARK INTER + INTRA:         -10.575
REMARK INTER:                  -9.916
REMARK INTRA:                  -0.659
REMARK UNBOUND:                -0.830
REMARK  Name = 
REMARK  7 active torsions:
REMARK  status: ('A' for Active; 'I' for Inactive)
REMARK    1  A    between atoms: N_1  and  C_2
REMARK    2  A    between atoms: C_2  and  C_3
REMARK    3  A    between atoms: C_3  and  C_4
REMARK    4  A    between atoms: C_7  and  C_8
REMARK    5  A    between atoms: C_8  and  O_9
REMARK    6  A    between atoms: O_9  and  C_10
REMARK    7  A    between atoms: C_13  and  C_14
REMARK                            x       y       z     vdW  Elec       q    Type
REMARK                         _______ _______ _______ _____ _____    ______ ____
ROOT
ATOM      1  C   UNL     1      43.946   3.850  11.789  0.00  0.00    +0.000 C 
ENDROOT
BRANCH   1   5
ATOM      2  C   UNL     1      45.667   7.639  12.403  0.00  0.00    +0.000 A 
ATOM      3  C   UNL     1      46.211   6.497  12.984  0.00  0.00    +0.000 A 
ATOM      4  N   UNL     1      45.684   5.259  12.810  0.00  0.00    +0.000 NA
ATOM      5  C   UNL     1      44.575   5.195  12.032  0.00  0.00    +0.000 A 
ATOM      6  C   UNL     1      44.028   6.339  11.461  0.00  0.00    +0.000 A 
ATOM      7  N   UNL     1      44.556   7.574  11.631  0.00  0.00    +0.000 NA
BRANCH   2   8
ATOM      8  C   UNL     1      46.299   8.985  12.621  0.00  0.00    +0.000 C 
BRANCH   8   9
ATOM      9  C   UNL     1      45.548  10.095  11.882  0.00  0.00    +0.000 C 
BRANCH   9  10
ATOM     10  N   UNL     1      44.234  10.325  12.486  0.00  0.00    +0.000 NA
ATOM     11  H   UNL     1      44.306  11.084  13.164  0.00  0.00    +0.000 HD
ATOM     12  H   UNL     1      43.961   9.501  13.023  0.00  0.00    +0.000 HD
ENDBRANCH   9  10
ENDBRANCH   8   9
ENDBRANCH   2   8
ENDBRANCH   1   5
BRANCH   1  13
ATOM     13  O   UNL     1      43.487   3.766  10.438  0.00  0.00    +0.000 OA
BRANCH  13  14
ATOM     14  C   UNL     1      44.409   3.347   9.521  0.00  0.00    +0.000 A 
ATOM     15  C   UNL     1      44.971   2.077   9.450  0.00  0.00    +0.000 A 
ATOM     16  C   UNL     1      45.898   1.782   8.449  0.00  0.00    +0.000 A 
ATOM     17  C   UNL     1      46.253   2.770   7.529  0.00  0.00    +0.000 A 
ATOM     18  N   UNL     1      45.721   4.024   7.594  0.00  0.00    +0.000 NA
ATOM     19  C   UNL     1      44.819   4.277   8.577  0.00  0.00    +0.000 A 
BRANCH  17  20
ATOM     20  C   UNL     1      47.238   2.439   6.414  0.00  0.00    +0.000 C 
ATOM     21  F   UNL     1      48.534   2.739   6.738  0.00  0.00    +0.000 F 
ATOM     22  F   UNL     1      47.248   1.117   6.083  0.00  0.00    +0.000 F 
ATOM     23  F   UNL     1      46.991   3.121   5.258  0.00  0.00    +0.000 F 
ENDBRANCH  17  20
ENDBRANCH  13  14
ENDBRANCH   1  13
TORSDOF 7
ENDMDL
MODEL 6
REMARK VINA RESULT:    -6.260      2.941      4.220
REMARK INTER + INTRA:          -9.469
REMARK INTER:                  -9.013
REMARK INTRA:                  -0.456
REMARK UNBOUND:                -0.830
REMARK  Name = 
REMARK  7 active torsions:
REMARK  status: ('A' for Active; 'I' for Inactive)
REMARK    1  A    between atoms: N_1  and  C_2
REMARK    2  A    between atoms: C_2  and  C_3
REMARK    3  A    between atoms: C_3  and  C_4
REMARK    4  A    between atoms: C_7  and  C_8
REMARK    5  A    between atoms: C_8  and  O_9
REMARK    6  A    between atoms: O_9  and  C_10
REMARK    7  A    between atoms: C_13  and  C_14
REMARK                            x       y       z     vdW  Elec       q    Type
REMARK                         _______ _______ _______ _____ _____    ______ ____
ROOT
ATOM      1  C   UNL     1      46.960   6.448  13.410  0.00  0.00    +0.000 C 
ENDROOT
BRANCH   1   5
ATOM      2  C   UNL     1      48.292   4.082  16.623  0.00  0.00    +0.000 A 
ATOM      3  C   UNL     1      48.865   5.322  16.354  0.00  0.00    +0.000 A 
ATOM      4  N   UNL     1      48.464   6.111  15.326  0.00  0.00    +0.000 NA
ATOM      5  C   UNL     1      47.461   5.616  14.559  0.00  0.00    +0.000 A 
ATOM      6  C   UNL     1      46.896   4.374  14.825  0.00  0.00    +0.000 A 
ATOM      7  N   UNL     1      47.294   3.586  15.853  0.00  0.00    +0.000 NA
BRANCH   2   8
ATOM      8  C   UNL     1      48.770   3.252  17.782  0.00  0.00    +0.000 C 
BRANCH   8   9
ATOM      9  C   UNL     1      49.954   2.363  17.397  0.00  0.00    +0.000 C 
BRANCH   9  10
ATOM     10  N   UNL     1      49.706   1.691  16.120  0.00  0.00    +0.000 NA
ATOM     11  H   UNL     1      49.620   2.392  15.384  0.00  0.00    +0.000 HD
ATOM     12  H   UNL     1      48.802   1.219  16.157  0.00  0.00    +0.000 HD
ENDBRANCH   9  10
ENDBRANCH   8   9
ENDBRANCH   2   8
ENDBRANCH   1   5
BRANCH   1  13
ATOM     13  O   UNL     1      45.632   6.047  13.064  0.00  0.00    +0.000 OA
BRANCH  13  14
ATOM     14  C   UNL     1      45.505   5.357  11.893  0.00  0.00    +0.000 A 
ATOM     15  C   UNL     1      45.738   5.860  10.618  0.00  0.00    +0.000 A 
ATOM     16  C   UNL     1      45.578   5.035   9.504  0.00  0.00    +0.000 A 
ATOM     17  C   UNL     1      45.183   3.708   9.683  0.00  0.00    +0.000 A 
ATOM     18  N   UNL     1      44.936   3.203  10.926  0.00  0.00    +0.000 NA
ATOM     19  C   UNL     1      45.105   4.032  11.988  0.00  0.00    +0.000 A 
BRANCH  17  20
ATOM     20  C   UNL     1      45.042   2.796   8.470  0.00  0.00    +0.000 C 
ATOM     21  F   UNL     1      46.234   2.267   8.057  0.00  0.00    +0.000 F 
ATOM     22  F   UNL     1      44.233   1.723   8.699  0.00  0.00    +0.000 F 
ATOM     23  F   UNL     1      44.533   3.432   7.375  0.00  0.00    +0.000 F 
ENDBRANCH  17  20
ENDBRANCH  13  14
ENDBRANCH   1  13
TORSDOF 7
ENDMDL
MODEL 7
REMARK VINA RESULT:    -6.069      5.524      8.076
REMARK INTER + INTRA:          -9.204
REMARK INTER:                  -8.507
REMARK INTRA:                  -0.698
REMARK UNBOUND:                -0.830
REMARK  Name = 
REMARK  7 active torsions:
REMARK  status: ('A' for Active; 'I' for Inactive)
REMARK    1  A    between atoms: N_1  and  C_2
REMARK    2  A    between atoms: C_2  and  C_3
REMARK    3  A    between atoms: C_3  and  C_4
REMARK    4  A    between atoms: C_7  and  C_8
REMARK    5  A    between atoms: C_8  and  O_9
REMARK    6  A    between atoms: O_9  and  C_10
REMARK    7  A    between atoms: C_13  and  C_14
REMARK                            x       y       z     vdW  Elec       q    Type
REMARK                         _______ _______ _______ _____ _____    ______ ____
ROOT
ATOM      1  C   UNL     1      47.179   5.097  14.937  0.00  0.00    +0.000 C 
ENDROOT
BRANCH   1   5
ATOM      2  C   UNL     1      44.697   4.285  11.639  0.00  0.00    +0.000 A 
ATOM      3  C   UNL     1      45.404   3.269  12.278  0.00  0.00    +0.000 A 
ATOM      4  N   UNL     1      46.215   3.493  13.342  0.00  0.00    +0.000 NA
ATOM      5  C   UNL     1      46.305   4.782  13.753  0.00  0.00    +0.000 A 
ATOM      6  C   UNL     1      45.605   5.796  13.108  0.00  0.00    +0.000 A 
ATOM      7  N   UNL     1      44.793   5.573  12.047  0.00  0.00    +0.000 NA
BRANCH   2   8
ATOM      8  C   UNL     1      43.804   3.978  10.469  0.00  0.00    +0.000 C 
BRANCH   8   9
ATOM      9  C   UNL     1      44.574   3.982   9.147  0.00  0.00    +0.000 C 
BRANCH   9  10
ATOM     10  N   UNL     1      45.350   5.215   9.001  0.00  0.00    +0.000 NA
ATOM     11  H   UNL     1      44.731   5.966   8.694  0.00  0.00    +0.000 HD
ATOM     12  H   UNL     1      46.033   5.098   8.251  0.00  0.00    +0.000 HD
ENDBRANCH   9  10
ENDBRANCH   8   9
ENDBRANCH   2   8
ENDBRANCH   1   5
BRANCH   1  13
ATOM     13  O   UNL     1      47.000   4.103  15.949  0.00  0.00    +0.000 OA
BRANCH  13  14
ATOM     14  C   UNL     1      48.143   3.520  16.418  0.00  0.00    +0.000 A 
ATOM     15  C   UNL     1      48.982   4.040  17.398  0.00  0.00    +0.000 A 
ATOM     16  C   UNL     1      50.116   3.329  17.791  0.00  0.00    +0.000 A 
ATOM     17  C   UNL     1      50.399   2.099  17.192  0.00  0.00    +0.000 A 
ATOM     18  N   UNL     1      49.593   1.583  16.220  0.00  0.00    +0.000 NA
ATOM     19  C   UNL     1      48.495   2.298  15.864  0.00  0.00    +0.000 A 
BRANCH  17  20
ATOM     20  C   UNL     1      51.617   1.305  17.645  0.00  0.00    +0.000 C 
ATOM     21  F   UNL     1      52.415   0.909  16.606  0.00  0.00    +0.000 F 
ATOM     22  F   UNL     1      52.436   2.009  18.478  0.00  0.00    +0.000 F 
ATOM     23  F   UNL     1      51.295   0.156  18.307  0.00  0.00    +0.000 F 
ENDBRANCH  17  20
ENDBRANCH  13  14
ENDBRANCH   1  13
TORSDOF 7
ENDMDL
MODEL 8
REMARK VINA RESULT:    -5.989      4.996      7.810
REMARK INTER + INTRA:          -9.094
REMARK INTER:                  -8.450
REMARK INTRA:                  -0.644
REMARK UNBOUND:                -0.830
REMARK  Name = 
REMARK  7 active torsions:
REMARK  status: ('A' for Active; 'I' for Inactive)
REMARK    1  A    between atoms: N_1  and  C_2
REMARK    2  A    between atoms: C_2  and  C_3
REMARK    3  A    between atoms: C_3  and  C_4
REMARK    4  A    between atoms: C_7  and  C_8
REMARK    5  A    between atoms: C_8  and  O_9
REMARK    6  A    between atoms: O_9  and  C_10
REMARK    7  A    between atoms: C_13  and  C_14
REMARK                            x       y       z     vdW  Elec       q    Type
REMARK                         _______ _______ _______ _____ _____    ______ ____
ROOT
ATOM      1  C   UNL     1      45.437   5.899  12.868  0.00  0.00    +0.000 C 
ENDROOT
BRANCH   1   5
ATOM      2  C   UNL     1      45.083   4.061   9.101  0.00  0.00    +0.000 A 
ATOM      3  C   UNL     1      44.592   3.450  10.251  0.00  0.00    +0.000 A 
ATOM      4  N   UNL     1      44.690   4.011  11.482  0.00  0.00    +0.000 NA
ATOM      5  C   UNL     1      45.307   5.217  11.533  0.00  0.00    +0.000 A 
ATOM      6  C   UNL     1      45.804   5.822  10.384  0.00  0.00    +0.000 A 
ATOM      7  N   UNL     1      45.705   5.264   9.154  0.00  0.00    +0.000 NA
BRANCH   2   8
ATOM      8  C   UNL     1      44.939   3.399   7.759  0.00  0.00    +0.000 C 
BRANCH   8   9
ATOM      9  C   UNL     1      46.294   2.996   7.173  0.00  0.00    +0.000 C 
BRANCH   9  10
ATOM     10  N   UNL     1      46.991   4.161   6.626  0.00  0.00    +0.000 NA
ATOM     11  H   UNL     1      47.155   4.017   5.629  0.00  0.00    +0.000 HD
ATOM     12  H   UNL     1      47.918   4.230   7.050  0.00  0.00    +0.000 HD
ENDBRANCH   9  10
ENDBRANCH   8   9
ENDBRANCH   2   8
ENDBRANCH   1   5
BRANCH   1  13
ATOM     13  O   UNL     1      46.818   6.121  13.165  0.00  0.00    +0.000 OA
BRANCH  13  14
ATOM     14  C   UNL     1      47.273   5.565  14.327  0.00  0.00    +0.000 A 
ATOM     15  C   UNL     1      48.224   6.115  15.179  0.00  0.00    +0.000 A 
ATOM     16  C   UNL     1      48.589   5.438  16.343  0.00  0.00    +0.000 A 
ATOM     17  C   UNL     1      47.993   4.211  16.640  0.00  0.00    +0.000 A 
ATOM     18  N   UNL     1      47.069   3.651  15.808  0.00  0.00    +0.000 NA
ATOM     19  C   UNL     1      46.734   4.338  14.685  0.00  0.00    +0.000 A 
BRANCH  17  20
ATOM     20  C   UNL     1      48.364   3.487  17.929  0.00  0.00    +0.000 C 
ATOM     21  F   UNL     1      49.601   2.904  17.879  0.00  0.00    +0.000 F 
ATOM     22  F   UNL     1      48.400   4.312  19.015  0.00  0.00    +0.000 F 
ATOM     23  F   UNL     1      47.503   2.477  18.246  0.00  0.00    +0.000 F 
ENDBRANCH  17  20
ENDBRANCH  13  14
ENDBRANCH   1  13
TORSDOF 7
ENDMDL
MODEL 9
REMARK VINA RESULT:    -5.970      4.865      6.447
REMARK INTER + INTRA:          -9.069
REMARK INTER:                  -8.403
REMARK INTRA:                  -0.665
REMARK UNBOUND:                -0.830
REMARK  Name = 
REMARK  7 active torsions:
REMARK  status: ('A' for Active; 'I' for Inactive)
REMARK    1  A    between atoms: N_1  and  C_2
REMARK    2  A    between atoms: C_2  and  C_3
REMARK    3  A    between atoms: C_3  and  C_4
REMARK    4  A    between atoms: C_7  and  C_8
REMARK    5  A    between atoms: C_8  and  O_9
REMARK    6  A    between atoms: O_9  and  C_10
REMARK    7  A    between atoms: C_13  and  C_14
REMARK                            x       y       z     vdW  Elec       q    Type
REMARK                         _______ _______ _______ _____ _____    ______ ____
ROOT
ATOM      1  C   UNL     1      47.707   5.020  16.133  0.00  0.00    +0.000 C 
ENDROOT
BRANCH   1   5
ATOM      2  C   UNL     1      51.167   3.093  17.552  0.00  0.00    +0.000 A 
ATOM      3  C   UNL     1      51.127   4.475  17.388  0.00  0.00    +0.000 A 
ATOM      4  N   UNL     1      50.030   5.131  16.931  0.00  0.00    +0.000 NA
ATOM      5  C   UNL     1      48.960   4.353  16.633  0.00  0.00    +0.000 A 
ATOM      6  C   UNL     1      49.006   2.973  16.790  0.00  0.00    +0.000 A 
ATOM      7  N   UNL     1      50.099   2.317  17.249  0.00  0.00    +0.000 NA
BRANCH   2   8
ATOM      8  C   UNL     1      52.406   2.419  18.072  0.00  0.00    +0.000 C 
BRANCH   8   9
ATOM      9  C   UNL     1      52.558   1.000  17.519  0.00  0.00    +0.000 C 
BRANCH   9  10
ATOM     10  N   UNL     1      51.695   0.065  18.243  0.00  0.00    +0.000 NA
ATOM     11  H   UNL     1      51.324  -0.625  17.588  0.00  0.00    +0.000 HD
ATOM     12  H   UNL     1      50.882   0.566  18.604  0.00  0.00    +0.000 HD
ENDBRANCH   9  10
ENDBRANCH   8   9
ENDBRANCH   2   8
ENDBRANCH   1   5
BRANCH   1  13
ATOM     13  O   UNL     1      47.883   5.423  14.773  0.00  0.00    +0.000 OA
BRANCH  13  14
ATOM     14  C   UNL     1      46.910   5.022  13.903  0.00  0.00    +0.000 A 
ATOM     15  C   UNL     1      46.040   5.856  13.209  0.00  0.00    +0.000 A 
ATOM     16  C   UNL     1      45.096   5.307  12.340  0.00  0.00    +0.000 A 
ATOM     17  C   UNL     1      45.035   3.921  12.177  0.00  0.00    +0.000 A 
ATOM     18  N   UNL     1      45.873   3.090  12.860  0.00  0.00    +0.000 NA
ATOM     19  C   UNL     1      46.782   3.656  13.695  0.00  0.00    +0.000 A 
BRANCH  17  20
ATOM     20  C   UNL     1      44.030   3.323  11.201  0.00  0.00    +0.000 C 
ATOM     21  F   UNL     1      43.079   2.554  11.816  0.00  0.00    +0.000 F 
ATOM     22  F   UNL     1      43.333   4.266  10.504  0.00  0.00    +0.000 F 
ATOM     23  F   UNL     1      44.604   2.507  10.270  0.00  0.00    +0.000 F 
ENDBRANCH  17  20
ENDBRANCH  13  14
ENDBRANCH   1  13
TORSDOF 7
ENDMDL
