MODEL 1
REMARK VINA RESULT:    -8.731      0.000      0.000
REMARK INTER + INTRA:         -12.073
REMARK INTER:                 -11.283
REMARK INTRA:                  -0.791
REMARK UNBOUND:                -0.791
REMARK  Name = 
REMARK  5 active torsions:
REMARK  status: ('A' for Active; 'I' for Inactive)
REMARK    1  A    between atoms: C_2  and  C_4
REMARK    2  A    between atoms: C_7  and  O_8
REMARK    3  A    between atoms: O_8  and  C_9
REMARK    4  A    between atoms: C_9  and  C_10
REMARK    5  A    between atoms: C_15  and  C_16
REMARK                            x       y       z     vdW  Elec       q    Type
REMARK                         _______ _______ _______ _____ _____    ______ ____
ROOT
ATOM      1  C   UNL     1      43.683   4.399  11.172  0.00  0.00    +0.000 C 
ENDROOT
BRANCH   1   2
ATOM      2  C   UNL     1      44.944   4.794  11.913  0.00  0.00    +0.000 A 
ATOM      3  C   UNL     1      45.528   3.955  12.865  0.00  0.00    +0.000 A 
ATOM      4  C   UNL     1      46.658   4.374  13.563  0.00  0.00    +0.000 A 
ATOM      5  C   UNL     1      47.199   5.637  13.324  0.00  0.00    +0.000 A 
ATOM      6  F   UNL     1      48.273   5.989  14.045  0.00  0.00    +0.000 F 
ATOM      7  C   UNL     1      46.645   6.525  12.385  0.00  0.00    +0.000 A 
ATOM      8  C   UNL     1      45.503   6.070  11.691  0.00  0.00    +0.000 A 
BRANCH   7   9
ATOM      9  C   UNL     1      47.222   7.865  12.126  0.00  0.00    +0.000 A 
ATOM     10  C   UNL     1      48.555   8.046  11.720  0.00  0.00    +0.000 A 
ATOM     11  C   UNL     1      49.068   9.325  11.494  0.00  0.00    +0.000 A 
ATOM     12  C   UNL     1      48.231  10.410  11.671  0.00  0.00    +0.000 A 
ATOM     13  N   UNL     1      46.946  10.299  12.059  0.00  0.00    +0.000 NA
ATOM     14  C   UNL     1      46.482   9.041  12.276  0.00  0.00    +0.000 A 
ENDBRANCH   7   9
ENDBRANCH   1   2
BRANCH   1  15
ATOM     15  O   UNL     1      43.767   4.764   9.791  0.00  0.00    +0.000 OA
BRANCH  15  19
ATOM     16  C   UNL     1      46.373   2.319   7.749  0.00  0.00    +0.000 A 
ATOM     17  C   UNL     1      45.463   1.760   8.648  0.00  0.00    +0.000 A 
ATOM     18  C   UNL     1      44.585   2.601   9.335  0.00  0.00    +0.000 A 
ATOM     19  C   UNL     1      44.650   3.965   9.094  0.00  0.00    +0.000 A 
ATOM     20  N   UNL     1      45.523   4.532   8.234  0.00  0.00    +0.000 NA
ATOM     21  C   UNL     1      46.374   3.697   7.589  0.00  0.00    +0.000 A 
BRANCH  16  23
ATOM     22  N   UNL     1      48.470   2.166   6.529  0.00  0.00    +0.000 N 
ATOM     23  C   UNL     1      47.353   1.524   6.982  0.00  0.00    +0.000 C 
ATOM     24  O   UNL     1      47.191   0.325   6.793  0.00  0.00    +0.000 OA
ATOM     25  H   UNL     1      49.180   1.581   6.105  0.00  0.00    +0.000 HD
ATOM     26  H   UNL     1      48.759   3.071   6.873  0.00  0.00    +0.000 HD
ENDBRANCH  16  23
ENDBRANCH  15  19
ENDBRANCH   1  15
TORSDOF 5
ENDMDL
MODEL 2
REMARK VINA RESULT:    -8.471      1.927      2.469
REMARK INTER + INTRA:         -11.738
REMARK INTER:                 -10.889
REMARK INTRA:                  -0.849
REMARK UNBOUND:                -0.791
REMARK  Name = 
REMARK  5 active torsions:
REMARK  status: ('A' for Active; 'I' for Inactive)
REMARK    1  A    between atoms: C_2  and  C_4
REMARK    2  A    between atoms: C_7  and  O_8
REMARK    3  A    between atoms: O_8  and  C_9
REMARK    4  A    between atoms: C_9  and  C_10
REMARK    5  A    between atoms: C_15  and  C_16
REMARK                            x       y       z     vdW  Elec       q    Type
REMARK                         _______ _______ _______ _____ _____    ______ ____
ROOT
ATOM      1  C   UNL     1      44.212   3.377  11.500  0.00  0.00    +0.000 C 
ENDROOT
BRANCH   1   2
ATOM      2  C   UNL     1      44.536   4.852  11.616  0.00  0.00    +0.000 A 
ATOM      3  C   UNL     1      43.594   5.836  11.305  0.00  0.00    +0.000 A 
ATOM      4  C   UNL     1      43.945   7.182  11.375  0.00  0.00    +0.000 A 
ATOM      5  C   UNL     1      45.240   7.549  11.740  0.00  0.00    +0.000 A 
ATOM      6  F   UNL     1      45.520   8.861  11.766  0.00  0.00    +0.000 F 
ATOM      7  C   UNL     1      46.229   6.600  12.052  0.00  0.00    +0.000 A 
ATOM      8  C   UNL     1      45.842   5.245  11.976  0.00  0.00    +0.000 A 
BRANCH   7   9
ATOM      9  C   UNL     1      47.603   6.989  12.446  0.00  0.00    +0.000 A 
ATOM     10  C   UNL     1      48.470   7.677  11.580  0.00  0.00    +0.000 A 
ATOM     11  C   UNL     1      49.762   8.020  11.981  0.00  0.00    +0.000 A 
ATOM     12  C   UNL     1      50.168   7.674  13.256  0.00  0.00    +0.000 A 
ATOM     13  N   UNL     1      49.384   7.016  14.130  0.00  0.00    +0.000 NA
ATOM     14  C   UNL     1      48.135   6.692  13.705  0.00  0.00    +0.000 A 
ENDBRANCH   7   9
ENDBRANCH   1   2
BRANCH   1  15
ATOM     15  O   UNL     1      43.658   3.075  10.216  0.00  0.00    +0.000 OA
BRANCH  15  19
ATOM     16  C   UNL     1      46.561   2.536   7.348  0.00  0.00    +0.000 A 
ATOM     17  C   UNL     1      45.941   3.780   7.478  0.00  0.00    +0.000 A 
ATOM     18  C   UNL     1      44.957   3.949   8.455  0.00  0.00    +0.000 A 
ATOM     19  C   UNL     1      44.635   2.870   9.263  0.00  0.00    +0.000 A 
ATOM     20  N   UNL     1      45.215   1.655   9.156  0.00  0.00    +0.000 NA
ATOM     21  C   UNL     1      46.158   1.512   8.193  0.00  0.00    +0.000 A 
BRANCH  16  23
ATOM     22  N   UNL     1      47.671   3.064   5.252  0.00  0.00    +0.000 N 
ATOM     23  C   UNL     1      47.602   2.245   6.343  0.00  0.00    +0.000 C 
ATOM     24  O   UNL     1      48.402   1.331   6.500  0.00  0.00    +0.000 OA
ATOM     25  H   UNL     1      48.461   2.917   4.634  0.00  0.00    +0.000 HD
ATOM     26  H   UNL     1      47.208   3.960   5.210  0.00  0.00    +0.000 HD
ENDBRANCH  16  23
ENDBRANCH  15  19
ENDBRANCH   1  15
TORSDOF 5
ENDMDL
MODEL 3
REMARK VINA RESULT:    -7.574      3.295      7.310
REMARK INTER + INTRA:         -10.578
REMARK INTER:                 -10.160
REMARK INTRA:                  -0.418
REMARK UNBOUND:                -0.791
REMARK  Name = 
REMARK  5 active torsions:
REMARK  status: ('A' for Active; 'I' for Inactive)
REMARK    1  A    between atoms: C_2  and  C_4
REMARK    2  A    between atoms: C_7  and  O_8
REMARK    3  A    between atoms: O_8  and  C_9
REMARK    4  A    between atoms: C_9  and  C_10
REMARK    5  A    between atoms: C_15  and  C_16
REMARK                            x       y       z     vdW  Elec       q    Type
REMARK                         _______ _______ _______ _____ _____    ______ ____
ROOT
ATOM      1  C   UNL     1      45.221   6.244  11.198  0.00  0.00    +0.000 C 
ENDROOT
BRANCH   1   2
ATOM      2  C   UNL     1      44.939   4.887  10.586  0.00  0.00    +0.000 A 
ATOM      3  C   UNL     1      44.021   4.002  11.157  0.00  0.00    +0.000 A 
ATOM      4  C   UNL     1      43.826   2.743  10.594  0.00  0.00    +0.000 A 
ATOM      5  C   UNL     1      44.557   2.359   9.471  0.00  0.00    +0.000 A 
ATOM      6  F   UNL     1      44.339   1.125   8.992  0.00  0.00    +0.000 F 
ATOM      7  C   UNL     1      45.501   3.206   8.864  0.00  0.00    +0.000 A 
ATOM      8  C   UNL     1      45.673   4.476   9.453  0.00  0.00    +0.000 A 
BRANCH   7   9
ATOM      9  C   UNL     1      46.274   2.800   7.666  0.00  0.00    +0.000 A 
ATOM     10  C   UNL     1      46.247   3.532   6.467  0.00  0.00    +0.000 A 
ATOM     11  C   UNL     1      46.981   3.115   5.356  0.00  0.00    +0.000 A 
ATOM     12  C   UNL     1      47.744   1.967   5.464  0.00  0.00    +0.000 A 
ATOM     13  N   UNL     1      47.809   1.224   6.585  0.00  0.00    +0.000 NA
ATOM     14  C   UNL     1      47.078   1.656   7.646  0.00  0.00    +0.000 A 
ENDBRANCH   7   9
ENDBRANCH   1   2
BRANCH   1  15
ATOM     15  O   UNL     1      46.628   6.469  11.317  0.00  0.00    +0.000 OA
BRANCH  15  19
ATOM     16  C   UNL     1      47.957   5.670  15.130  0.00  0.00    +0.000 A 
ATOM     17  C   UNL     1      47.094   4.773  14.497  0.00  0.00    +0.000 A 
ATOM     18  C   UNL     1      46.650   5.057  13.204  0.00  0.00    +0.000 A 
ATOM     19  C   UNL     1      47.089   6.222  12.594  0.00  0.00    +0.000 A 
ATOM     20  N   UNL     1      47.919   7.109  13.185  0.00  0.00    +0.000 NA
ATOM     21  C   UNL     1      48.326   6.818  14.445  0.00  0.00    +0.000 A 
BRANCH  16  23
ATOM     22  N   UNL     1      47.757   6.010  17.528  0.00  0.00    +0.000 N 
ATOM     23  C   UNL     1      48.476   5.474  16.498  0.00  0.00    +0.000 C 
ATOM     24  O   UNL     1      49.490   4.820  16.707  0.00  0.00    +0.000 OA
ATOM     25  H   UNL     1      48.068   5.769  18.462  0.00  0.00    +0.000 HD
ATOM     26  H   UNL     1      46.804   6.329  17.423  0.00  0.00    +0.000 HD
ENDBRANCH  16  23
ENDBRANCH  15  19
ENDBRANCH   1  15
TORSDOF 5
ENDMDL
MODEL 4
REMARK VINA RESULT:    -7.416      3.131      7.150
REMARK INTER + INTRA:         -10.374
REMARK INTER:                  -9.798
REMARK INTRA:                  -0.576
REMARK UNBOUND:                -0.791
REMARK  Name = 
REMARK  5 active torsions:
REMARK  status: ('A' for Active; 'I' for Inactive)
REMARK    1  A    between atoms: C_2  and  C_4
REMARK    2  A    between atoms: C_7  and  O_8
REMARK    3  A    between atoms: O_8  and  C_9
REMARK    4  A    between atoms: C_9  and  C_10
REMARK    5  A    between atoms: C_15  and  C_16
REMARK                            x       y       z     vdW  Elec       q    Type
REMARK                         _______ _______ _______ _____ _____    ______ ____
ROOT
ATOM      1  C   UNL     1      44.561   6.368  10.880  0.00  0.00    +0.000 C 
ENDROOT
BRANCH   1   2
ATOM      2  C   UNL     1      44.508   4.938  10.381  0.00  0.00    +0.000 A 
ATOM      3  C   UNL     1      43.724   3.969  11.013  0.00  0.00    +0.000 A 
ATOM      4  C   UNL     1      43.741   2.654  10.557  0.00  0.00    +0.000 A 
ATOM      5  C   UNL     1      44.552   2.298   9.480  0.00  0.00    +0.000 A 
ATOM      6  F   UNL     1      44.540   1.010   9.105  0.00  0.00    +0.000 F 
ATOM      7  C   UNL     1      45.369   3.229   8.816  0.00  0.00    +0.000 A 
ATOM      8  C   UNL     1      45.327   4.555   9.298  0.00  0.00    +0.000 A 
BRANCH   7   9
ATOM      9  C   UNL     1      46.227   2.853   7.668  0.00  0.00    +0.000 A 
ATOM     10  C   UNL     1      46.303   3.626   6.497  0.00  0.00    +0.000 A 
ATOM     11  C   UNL     1      47.115   3.236   5.431  0.00  0.00    +0.000 A 
ATOM     12  C   UNL     1      47.851   2.073   5.557  0.00  0.00    +0.000 A 
ATOM     13  N   UNL     1      47.820   1.291   6.653  0.00  0.00    +0.000 NA
ATOM     14  C   UNL     1      47.014   1.697   7.668  0.00  0.00    +0.000 A 
ENDBRANCH   7   9
ENDBRANCH   1   2
BRANCH   1  15
ATOM     15  O   UNL     1      44.531   6.411  12.309  0.00  0.00    +0.000 OA
BRANCH  15  19
ATOM     16  C   UNL     1      48.254   7.140  13.906  0.00  0.00    +0.000 A 
ATOM     17  C   UNL     1      47.454   8.211  13.504  0.00  0.00    +0.000 A 
ATOM     18  C   UNL     1      46.193   7.949  12.963  0.00  0.00    +0.000 A 
ATOM     19  C   UNL     1      45.783   6.630  12.849  0.00  0.00    +0.000 A 
ATOM     20  N   UNL     1      46.539   5.576  13.225  0.00  0.00    +0.000 NA
ATOM     21  C   UNL     1      47.763   5.854  13.735  0.00  0.00    +0.000 A 
BRANCH  16  23
ATOM     22  N   UNL     1      50.626   7.587  13.615  0.00  0.00    +0.000 N 
ATOM     23  C   UNL     1      49.606   7.303  14.478  0.00  0.00    +0.000 C 
ATOM     24  O   UNL     1      49.800   7.227  15.685  0.00  0.00    +0.000 OA
ATOM     25  H   UNL     1      51.520   7.805  14.038  0.00  0.00    +0.000 HD
ATOM     26  H   UNL     1      50.470   7.902  12.668  0.00  0.00    +0.000 HD
ENDBRANCH  16  23
ENDBRANCH  15  19
ENDBRANCH   1  15
TORSDOF 5
ENDMDL
MODEL 5
REMARK VINA RESULT:    -6.831      4.038      7.531
REMARK INTER + INTRA:          -9.619
REMARK INTER:                  -9.096
REMARK INTRA:                  -0.523
REMARK UNBOUND:                -0.791
REMARK  Name = 
REMARK  5 active torsions:
REMARK  status: ('A' for Active; 'I' for Inactive)
REMARK    1  A    between atoms: C_2  and  C_4
REMARK    2  A    between atoms: C_7  and  O_8
REMARK    3  A    between atoms: O_8  and  C_9
REMARK    4  A    between atoms: C_9  and  C_10
REMARK    5  A    between atoms: C_15  and  C_16
REMARK                            x       y       z     vdW  Elec       q    Type
REMARK                         _______ _______ _______ _____ _____    ______ ____
ROOT
ATOM      1  C   UNL     1      45.321   5.906  12.852  0.00  0.00    +0.000 C 
ENDROOT
BRANCH   1   2
ATOM      2  C   UNL     1      44.810   4.742  12.027  0.00  0.00    +0.000 A 
ATOM      3  C   UNL     1      43.787   3.909  12.488  0.00  0.00    +0.000 A 
ATOM      4  C   UNL     1      43.379   2.820  11.724  0.00  0.00    +0.000 A 
ATOM      5  C   UNL     1      44.001   2.548  10.505  0.00  0.00    +0.000 A 
ATOM      6  F   UNL     1      43.578   1.470   9.828  0.00  0.00    +0.000 F 
ATOM      7  C   UNL     1      45.042   3.346  10.000  0.00  0.00    +0.000 A 
ATOM      8  C   UNL     1      45.431   4.446  10.795  0.00  0.00    +0.000 A 
BRANCH   7   9
ATOM      9  C   UNL     1      45.700   3.062   8.703  0.00  0.00    +0.000 A 
ATOM     10  C   UNL     1      46.173   1.784   8.361  0.00  0.00    +0.000 A 
ATOM     11  C   UNL     1      46.796   1.555   7.133  0.00  0.00    +0.000 A 
ATOM     12  C   UNL     1      46.929   2.614   6.255  0.00  0.00    +0.000 A 
ATOM     13  N   UNL     1      46.497   3.859   6.526  0.00  0.00    +0.000 NA
ATOM     14  C   UNL     1      45.901   4.049   7.732  0.00  0.00    +0.000 A 
ENDBRANCH   7   9
ENDBRANCH   1   2
BRANCH   1  15
ATOM     15  O   UNL     1      46.750   5.897  12.918  0.00  0.00    +0.000 OA
BRANCH  15  19
ATOM     16  C   UNL     1      48.171   4.842  16.634  0.00  0.00    +0.000 A 
ATOM     17  C   UNL     1      48.635   6.008  16.023  0.00  0.00    +0.000 A 
ATOM     18  C   UNL     1      48.145   6.354  14.762  0.00  0.00    +0.000 A 
ATOM     19  C   UNL     1      47.210   5.523  14.165  0.00  0.00    +0.000 A 
ATOM     20  N   UNL     1      46.749   4.386  14.731  0.00  0.00    +0.000 NA
ATOM     21  C   UNL     1      47.249   4.065  15.949  0.00  0.00    +0.000 A 
BRANCH  16  23
ATOM     22  N   UNL     1      47.677   4.049  18.878  0.00  0.00    +0.000 N 
ATOM     23  C   UNL     1      48.632   4.378  17.958  0.00  0.00    +0.000 C 
ATOM     24  O   UNL     1      49.823   4.252  18.210  0.00  0.00    +0.000 OA
ATOM     25  H   UNL     1      48.012   3.627  19.737  0.00  0.00    +0.000 HD
ATOM     26  H   UNL     1      46.709   3.898  18.633  0.00  0.00    +0.000 HD
ENDBRANCH  16  23
ENDBRANCH  15  19
ENDBRANCH   1  15
TORSDOF 5
ENDMDL
MODEL 6
REMARK VINA RESULT:    -6.747      5.474      7.882
REMARK INTER + INTRA:          -9.510
REMARK INTER:                  -8.635
REMARK INTRA:                  -0.876
REMARK UNBOUND:                -0.791
REMARK  Name = 
REMARK  5 active torsions:
REMARK  status: ('A' for Active; 'I' for Inactive)
REMARK    1  A    between atoms: C_2  and  C_4
REMARK    2  A    between atoms: C_7  and  O_8
REMARK    3  A    between atoms: O_8  and  C_9
REMARK    4  A    between atoms: C_9  and  C_10
REMARK    5  A    between atoms: C_15  and  C_16
REMARK                            x       y       z     vdW  Elec       q    Type
REMARK                         _______ _______ _______ _____ _____    ______ ____
ROOT
ATOM      1  C   UNL     1      48.710   6.411  16.140  0.00  0.00    +0.000 C 
ENDROOT
BRANCH   1   2
ATOM      2  C   UNL     1      48.274   6.427  14.689  0.00  0.00    +0.000 A 
ATOM      3  C   UNL     1      48.961   7.168  13.725  0.00  0.00    +0.000 A 
ATOM      4  C   UNL     1      48.501   7.199  12.412  0.00  0.00    +0.000 A 
ATOM      5  C   UNL     1      47.344   6.503  12.060  0.00  0.00    +0.000 A 
ATOM      6  F   UNL     1      46.940   6.592  10.784  0.00  0.00    +0.000 F 
ATOM      7  C   UNL     1      46.608   5.751  12.992  0.00  0.00    +0.000 A 
ATOM      8  C   UNL     1      47.102   5.736  14.314  0.00  0.00    +0.000 A 
BRANCH   7   9
ATOM      9  C   UNL     1      45.383   5.007  12.618  0.00  0.00    +0.000 A 
ATOM     10  C   UNL     1      45.419   3.693  12.122  0.00  0.00    +0.000 A 
ATOM     11  C   UNL     1      44.245   3.026  11.771  0.00  0.00    +0.000 A 
ATOM     12  C   UNL     1      43.041   3.685  11.931  0.00  0.00    +0.000 A 
ATOM     13  N   UNL     1      42.942   4.943  12.400  0.00  0.00    +0.000 NA
ATOM     14  C   UNL     1      44.105   5.565  12.727  0.00  0.00    +0.000 A 
ENDBRANCH   7   9
ENDBRANCH   1   2
BRANCH   1  15
ATOM     15  O   UNL     1      48.189   5.265  16.818  0.00  0.00    +0.000 OA
BRANCH  15  19
ATOM     16  C   UNL     1      51.110   2.433  17.439  0.00  0.00    +0.000 A 
ATOM     17  C   UNL     1      51.380   3.775  17.714  0.00  0.00    +0.000 A 
ATOM     18  C   UNL     1      50.380   4.725  17.498  0.00  0.00    +0.000 A 
ATOM     19  C   UNL     1      49.151   4.297  17.019  0.00  0.00    +0.000 A 
ATOM     20  N   UNL     1      48.866   3.006  16.740  0.00  0.00    +0.000 NA
ATOM     21  C   UNL     1      49.856   2.104  16.946  0.00  0.00    +0.000 A 
BRANCH  16  23
ATOM     22  N   UNL     1      51.647   0.162  18.120  0.00  0.00    +0.000 N 
ATOM     23  C   UNL     1      52.098   1.350  17.619  0.00  0.00    +0.000 C 
ATOM     24  O   UNL     1      53.270   1.497  17.294  0.00  0.00    +0.000 OA
ATOM     25  H   UNL     1      52.315  -0.600  18.130  0.00  0.00    +0.000 HD
ATOM     26  H   UNL     1      50.667  -0.078  18.160  0.00  0.00    +0.000 HD
ENDBRANCH  16  23
ENDBRANCH  15  19
ENDBRANCH   1  15
TORSDOF 5
ENDMDL
MODEL 7
REMARK VINA RESULT:    -6.707      4.173      7.513
REMARK INTER + INTRA:          -9.458
REMARK INTER:                  -9.029
REMARK INTRA:                  -0.429
REMARK UNBOUND:                -0.791
REMARK  Name = 
REMARK  5 active torsions:
REMARK  status: ('A' for Active; 'I' for Inactive)
REMARK    1  A    between atoms: C_2  and  C_4
REMARK    2  A    between atoms: C_7  and  O_8
REMARK    3  A    between atoms: O_8  and  C_9
REMARK    4  A    between atoms: C_9  and  C_10
REMARK    5  A    between atoms: C_15  and  C_16
REMARK                            x       y       z     vdW  Elec       q    Type
REMARK                         _______ _______ _______ _____ _____    ______ ____
ROOT
ATOM      1  C   UNL     1      48.903   7.349  13.380  0.00  0.00    +0.000 C 
ENDROOT
BRANCH   1   2
ATOM      2  C   UNL     1      47.519   7.407  12.767  0.00  0.00    +0.000 A 
ATOM      3  C   UNL     1      46.634   8.449  13.053  0.00  0.00    +0.000 A 
ATOM      4  C   UNL     1      45.352   8.443  12.510  0.00  0.00    +0.000 A 
ATOM      5  C   UNL     1      44.944   7.388  11.694  0.00  0.00    +0.000 A 
ATOM      6  F   UNL     1      43.689   7.429  11.221  0.00  0.00    +0.000 F 
ATOM      7  C   UNL     1      45.791   6.310  11.382  0.00  0.00    +0.000 A 
ATOM      8  C   UNL     1      47.085   6.347  11.944  0.00  0.00    +0.000 A 
BRANCH   7   9
ATOM      9  C   UNL     1      45.360   5.192  10.510  0.00  0.00    +0.000 A 
ATOM     10  C   UNL     1      45.651   5.152   9.136  0.00  0.00    +0.000 A 
ATOM     11  C   UNL     1      45.222   4.087   8.342  0.00  0.00    +0.000 A 
ATOM     12  C   UNL     1      44.509   3.066   8.942  0.00  0.00    +0.000 A 
ATOM     13  N   UNL     1      44.200   3.048  10.252  0.00  0.00    +0.000 NA
ATOM     14  C   UNL     1      44.628   4.103  10.993  0.00  0.00    +0.000 A 
ENDBRANCH   7   9
ENDBRANCH   1   2
BRANCH   1  15
ATOM     15  O   UNL     1      48.863   7.703  14.766  0.00  0.00    +0.000 OA
BRANCH  15  19
ATOM     16  C   UNL     1      47.969   4.525  17.225  0.00  0.00    +0.000 A 
ATOM     17  C   UNL     1      48.392   5.733  17.783  0.00  0.00    +0.000 A 
ATOM     18  C   UNL     1      48.692   6.803  16.937  0.00  0.00    +0.000 A 
ATOM     19  C   UNL     1      48.556   6.624  15.569  0.00  0.00    +0.000 A 
ATOM     20  N   UNL     1      48.155   5.465  15.003  0.00  0.00    +0.000 NA
ATOM     21  C   UNL     1      47.881   4.437  15.843  0.00  0.00    +0.000 A 
BRANCH  16  23
ATOM     22  N   UNL     1      48.314   3.149  19.198  0.00  0.00    +0.000 N 
ATOM     23  C   UNL     1      47.638   3.329  18.025  0.00  0.00    +0.000 C 
ATOM     24  O   UNL     1      46.762   2.550  17.672  0.00  0.00    +0.000 OA
ATOM     25  H   UNL     1      47.994   2.387  19.784  0.00  0.00    +0.000 HD
ATOM     26  H   UNL     1      48.849   3.882  19.640  0.00  0.00    +0.000 HD
ENDBRANCH  16  23
ENDBRANCH  15  19
ENDBRANCH   1  15
TORSDOF 5
ENDMDL
MODEL 8
REMARK VINA RESULT:    -6.658      4.696      8.272
REMARK INTER + INTRA:          -9.395
REMARK INTER:                  -8.595
REMARK INTRA:                  -0.800
REMARK UNBOUND:                -0.791
REMARK  Name = 
REMARK  5 active torsions:
REMARK  status: ('A' for Active; 'I' for Inactive)
REMARK    1  A    between atoms: C_2  and  C_4
REMARK    2  A    between atoms: C_7  and  O_8
REMARK    3  A    between atoms: O_8  and  C_9
REMARK    4  A    between atoms: C_9  and  C_10
REMARK    5  A    between atoms: C_15  and  C_16
REMARK                            x       y       z     vdW  Elec       q    Type
REMARK                         _______ _______ _______ _____ _____    ______ ____
ROOT
ATOM      1  C   UNL     1      48.415   6.961  14.087  0.00  0.00    +0.000 C 
ENDROOT
BRANCH   1   2
ATOM      2  C   UNL     1      47.199   7.167  13.207  0.00  0.00    +0.000 A 
ATOM      3  C   UNL     1      46.432   8.333  13.279  0.00  0.00    +0.000 A 
ATOM      4  C   UNL     1      45.292   8.466  12.491  0.00  0.00    +0.000 A 
ATOM      5  C   UNL     1      44.906   7.430  11.641  0.00  0.00    +0.000 A 
ATOM      6  F   UNL     1      43.785   7.610  10.926  0.00  0.00    +0.000 F 
ATOM      7  C   UNL     1      45.634   6.232  11.538  0.00  0.00    +0.000 A 
ATOM      8  C   UNL     1      46.786   6.129  12.346  0.00  0.00    +0.000 A 
BRANCH   7   9
ATOM      9  C   UNL     1      45.227   5.133  10.631  0.00  0.00    +0.000 A 
ATOM     10  C   UNL     1      45.652   5.061   9.294  0.00  0.00    +0.000 A 
ATOM     11  C   UNL     1      45.241   4.016   8.465  0.00  0.00    +0.000 A 
ATOM     12  C   UNL     1      44.411   3.045   8.994  0.00  0.00    +0.000 A 
ATOM     13  N   UNL     1      43.971   3.060  10.266  0.00  0.00    +0.000 NA
ATOM     14  C   UNL     1      44.385   4.095  11.043  0.00  0.00    +0.000 A 
ENDBRANCH   7   9
ENDBRANCH   1   2
BRANCH   1  15
ATOM     15  O   UNL     1      48.449   5.629  14.607  0.00  0.00    +0.000 OA
BRANCH  15  19
ATOM     16  C   UNL     1      47.941   5.485  18.689  0.00  0.00    +0.000 A 
ATOM     17  C   UNL     1      47.363   4.500  17.886  0.00  0.00    +0.000 A 
ATOM     18  C   UNL     1      47.542   4.561  16.503  0.00  0.00    +0.000 A 
ATOM     19  C   UNL     1      48.294   5.601  15.978  0.00  0.00    +0.000 A 
ATOM     20  N   UNL     1      48.860   6.569  16.731  0.00  0.00    +0.000 NA
ATOM     21  C   UNL     1      48.662   6.496  18.070  0.00  0.00    +0.000 A 
BRANCH  16  23
ATOM     22  N   UNL     1      48.299   4.464  20.866  0.00  0.00    +0.000 N 
ATOM     23  C   UNL     1      47.804   5.523  20.159  0.00  0.00    +0.000 C 
ATOM     24  O   UNL     1      47.303   6.485  20.727  0.00  0.00    +0.000 OA
ATOM     25  H   UNL     1      48.297   4.561  21.874  0.00  0.00    +0.000 HD
ATOM     26  H   UNL     1      48.932   3.786  20.465  0.00  0.00    +0.000 HD
ENDBRANCH  16  23
ENDBRANCH  15  19
ENDBRANCH   1  15
TORSDOF 5
ENDMDL
MODEL 9
REMARK VINA RESULT:    -6.466      5.433      7.692
REMARK INTER + INTRA:          -9.146
REMARK INTER:                  -8.282
REMARK INTRA:                  -0.864
REMARK UNBOUND:                -0.791
REMARK  Name = 
REMARK  5 active torsions:
REMARK  status: ('A' for Active; 'I' for Inactive)
REMARK    1  A    between atoms: C_2  and  C_4
REMARK    2  A    between atoms: C_7  and  O_8
REMARK    3  A    between atoms: O_8  and  C_9
REMARK    4  A    between atoms: C_9  and  C_10
REMARK    5  A    between atoms: C_15  and  C_16
REMARK                            x       y       z     vdW  Elec       q    Type
REMARK                         _______ _______ _______ _____ _____    ______ ____
ROOT
ATOM      1  C   UNL     1      48.857   7.363  15.356  0.00  0.00    +0.000 C 
ENDROOT
BRANCH   1   2
ATOM      2  C   UNL     1      49.029   6.576  16.639  0.00  0.00    +0.000 A 
ATOM      3  C   UNL     1      48.474   7.012  17.846  0.00  0.00    +0.000 A 
ATOM      4  C   UNL     1      48.695   6.289  19.015  0.00  0.00    +0.000 A 
ATOM      5  C   UNL     1      49.485   5.140  18.987  0.00  0.00    +0.000 A 
ATOM      6  F   UNL     1      49.679   4.503  20.152  0.00  0.00    +0.000 F 
ATOM      7  C   UNL     1      50.076   4.664  17.804  0.00  0.00    +0.000 A 
ATOM      8  C   UNL     1      49.830   5.415  16.635  0.00  0.00    +0.000 A 
BRANCH   7   9
ATOM      9  C   UNL     1      50.910   3.440  17.773  0.00  0.00    +0.000 A 
ATOM     10  C   UNL     1      52.227   3.411  18.262  0.00  0.00    +0.000 A 
ATOM     11  C   UNL     1      52.987   2.241  18.209  0.00  0.00    +0.000 A 
ATOM     12  C   UNL     1      52.410   1.107  17.669  0.00  0.00    +0.000 A 
ATOM     13  N   UNL     1      51.155   1.073  17.184  0.00  0.00    +0.000 NA
ATOM     14  C   UNL     1      50.446   2.230  17.247  0.00  0.00    +0.000 A 
ENDBRANCH   7   9
ENDBRANCH   1   2
BRANCH   1  15
ATOM     15  O   UNL     1      48.920   6.500  14.216  0.00  0.00    +0.000 OA
BRANCH  15  19
ATOM     16  C   UNL     1      45.167   5.388  12.943  0.00  0.00    +0.000 A 
ATOM     17  C   UNL     1      45.567   6.721  12.833  0.00  0.00    +0.000 A 
ATOM     18  C   UNL     1      46.843   7.085  13.269  0.00  0.00    +0.000 A 
ATOM     19  C   UNL     1      47.667   6.103  13.795  0.00  0.00    +0.000 A 
ATOM     20  N   UNL     1      47.304   4.807  13.918  0.00  0.00    +0.000 NA
ATOM     21  C   UNL     1      46.057   4.481  13.500  0.00  0.00    +0.000 A 
BRANCH  16  23
ATOM     22  N   UNL     1      42.745   5.440  13.138  0.00  0.00    +0.000 N 
ATOM     23  C   UNL     1      43.839   4.898  12.524  0.00  0.00    +0.000 C 
ATOM     24  O   UNL     1      43.718   4.068  11.632  0.00  0.00    +0.000 OA
ATOM     25  H   UNL     1      41.844   5.174  12.759  0.00  0.00    +0.000 HD
ATOM     26  H   UNL     1      42.788   6.288  13.684  0.00  0.00    +0.000 HD
ENDBRANCH  16  23
ENDBRANCH  15  19
ENDBRANCH   1  15
TORSDOF 5
ENDMDL
