MODEL 1
REMARK VINA RESULT:    -7.730      0.000      0.000
REMARK INTER + INTRA:         -10.564
REMARK INTER:                  -9.990
REMARK INTRA:                  -0.574
REMARK UNBOUND:                -0.574
REMARK  Name = 
REMARK  6 active torsions:
REMARK  status: ('A' for Active; 'I' for Inactive)
REMARK    1  A    between atoms: C_1  and  C_2
REMARK    2  A    between atoms: C_2  and  C_3
REMARK    3  A    between atoms: C_2  and  C_18
REMARK    4  A    between atoms: C_3  and  N_4
REMARK    5  A    between atoms: C_8  and  C_9
REMARK    6  A    between atoms: C_12  and  C_13
REMARK                            x       y       z     vdW  Elec       q    Type
REMARK                         _______ _______ _______ _____ _____    ______ ____
ROOT
ATOM      1  N   UNL     1      44.533   4.550  11.184  0.00  0.00    +0.000 N 
ATOM      2  C   UNL     1      45.459   4.920  12.143  0.00  0.00    +0.000 A 
ATOM      3  N   UNL     1      45.326   4.377  13.349  0.00  0.00    +0.000 NA
ATOM      4  C   UNL     1      46.221   4.754  14.289  0.00  0.00    +0.000 A 
ATOM      5  C   UNL     1      47.267   5.640  14.081  0.00  0.00    +0.000 A 
ATOM      6  C   UNL     1      47.331   6.164  12.805  0.00  0.00    +0.000 A 
ATOM      7  N   UNL     1      46.427   5.788  11.842  0.00  0.00    +0.000 NA
ATOM      8  H   UNL     1      44.127   3.676  11.491  0.00  0.00    +0.000 HD
ENDROOT
BRANCH   5   9
ATOM      9  C   UNL     1      48.128   5.887  15.256  0.00  0.00    +0.000 C 
ATOM     10  N   UNL     1      48.360   7.157  15.689  0.00  0.00    +0.000 N 
ATOM     11  O   UNL     1      48.688   4.948  15.811  0.00  0.00    +0.000 OA
ATOM     12  H   UNL     1      47.810   7.969  15.444  0.00  0.00    +0.000 HD
ATOM     13  H   UNL     1      48.912   7.238  16.536  0.00  0.00    +0.000 HD
ENDBRANCH   5   9
BRANCH   6  14
ATOM     14  C   UNL     1      48.323   7.196  12.328  0.00  0.00    +0.000 C 
ATOM     15  F   UNL     1      48.183   8.448  12.843  0.00  0.00    +0.000 F 
ATOM     16  F   UNL     1      49.607   6.842  12.632  0.00  0.00    +0.000 F 
ATOM     17  F   UNL     1      48.299   7.370  10.975  0.00  0.00    +0.000 F 
ENDBRANCH   6  14
BRANCH   1  18
ATOM     18  C   UNL     1      45.031   4.556   9.826  0.00  0.00    +0.000 C 
BRANCH  18  20
ATOM     19  C   UNL     1      44.107   2.172  10.117  0.00  0.00    +0.000 C 
ATOM     20  C   UNL     1      44.809   3.180   9.261  0.00  0.00    +0.000 C 
BRANCH  20  21
ATOM     21  C   UNL     1      45.684   2.734   8.168  0.00  0.00    +0.000 A 
ATOM     22  C   UNL     1      46.049   3.605   7.136  0.00  0.00    +0.000 A 
ATOM     23  C   UNL     1      46.976   3.209   6.170  0.00  0.00    +0.000 A 
ATOM     24  C   UNL     1      47.546   1.939   6.231  0.00  0.00    +0.000 A 
ATOM     25  C   UNL     1      47.162   1.053   7.234  0.00  0.00    +0.000 A 
ATOM     26  C   UNL     1      46.225   1.445   8.190  0.00  0.00    +0.000 A 
ENDBRANCH  20  21
ENDBRANCH  18  20
ENDBRANCH   1  18
TORSDOF 5
ENDMDL
MODEL 2
REMARK VINA RESULT:    -7.493      2.129      2.486
REMARK INTER + INTRA:         -10.256
REMARK INTER:                  -9.587
REMARK INTRA:                  -0.669
REMARK UNBOUND:                -0.574
REMARK  Name = 
REMARK  6 active torsions:
REMARK  status: ('A' for Active; 'I' for Inactive)
REMARK    1  A    between atoms: C_1  and  C_2
REMARK    2  A    between atoms: C_2  and  C_3
REMARK    3  A    between atoms: C_2  and  C_18
REMARK    4  A    between atoms: C_3  and  N_4
REMARK    5  A    between atoms: C_8  and  C_9
REMARK    6  A    between atoms: C_12  and  C_13
REMARK                            x       y       z     vdW  Elec       q    Type
REMARK                         _______ _______ _______ _____ _____    ______ ____
ROOT
ATOM      1  N   UNL     1      45.303   4.409  11.460  0.00  0.00    +0.000 N 
ATOM      2  C   UNL     1      45.855   5.535  12.044  0.00  0.00    +0.000 A 
ATOM      3  N   UNL     1      46.805   5.337  12.953  0.00  0.00    +0.000 NA
ATOM      4  C   UNL     1      47.330   6.439  13.535  0.00  0.00    +0.000 A 
ATOM      5  C   UNL     1      46.966   7.743  13.240  0.00  0.00    +0.000 A 
ATOM      6  C   UNL     1      45.969   7.862  12.293  0.00  0.00    +0.000 A 
ATOM      7  N   UNL     1      45.429   6.750  11.694  0.00  0.00    +0.000 NA
ATOM      8  H   UNL     1      45.965   3.656  11.593  0.00  0.00    +0.000 HD
ENDROOT
BRANCH   5   9
ATOM      9  C   UNL     1      47.691   8.786  13.995  0.00  0.00    +0.000 C 
ATOM     10  N   UNL     1      47.409   9.014  15.307  0.00  0.00    +0.000 N 
ATOM     11  O   UNL     1      48.511   9.496  13.422  0.00  0.00    +0.000 OA
ATOM     12  H   UNL     1      46.914   8.378  15.919  0.00  0.00    +0.000 HD
ATOM     13  H   UNL     1      47.991   9.704  15.769  0.00  0.00    +0.000 HD
ENDBRANCH   5   9
BRANCH   6  14
ATOM     14  C   UNL     1      45.340   9.155  11.836  0.00  0.00    +0.000 C 
ATOM     15  F   UNL     1      46.193  10.102  11.358  0.00  0.00    +0.000 F 
ATOM     16  F   UNL     1      44.448   8.954  10.822  0.00  0.00    +0.000 F 
ATOM     17  F   UNL     1      44.640   9.783  12.824  0.00  0.00    +0.000 F 
ENDBRANCH   6  14
BRANCH   1  18
ATOM     18  C   UNL     1      44.844   4.594  10.100  0.00  0.00    +0.000 C 
BRANCH  18  20
ATOM     19  C   UNL     1      43.951   2.194  10.350  0.00  0.00    +0.000 C 
ATOM     20  C   UNL     1      44.633   3.227   9.508  0.00  0.00    +0.000 C 
BRANCH  20  21
ATOM     21  C   UNL     1      45.504   2.815   8.399  0.00  0.00    +0.000 A 
ATOM     22  C   UNL     1      45.896   3.728   7.414  0.00  0.00    +0.000 A 
ATOM     23  C   UNL     1      46.819   3.357   6.433  0.00  0.00    +0.000 A 
ATOM     24  C   UNL     1      47.356   2.072   6.433  0.00  0.00    +0.000 A 
ATOM     25  C   UNL     1      46.945   1.147   7.388  0.00  0.00    +0.000 A 
ATOM     26  C   UNL     1      46.012   1.513   8.358  0.00  0.00    +0.000 A 
ENDBRANCH  20  21
ENDBRANCH  18  20
ENDBRANCH   1  18
TORSDOF 5
ENDMDL
MODEL 3
REMARK VINA RESULT:    -6.955      1.598      2.232
REMARK INTER + INTRA:          -9.562
REMARK INTER:                  -8.889
REMARK INTRA:                  -0.673
REMARK UNBOUND:                -0.574
REMARK  Name = 
REMARK  6 active torsions:
REMARK  status: ('A' for Active; 'I' for Inactive)
REMARK    1  A    between atoms: C_1  and  C_2
REMARK    2  A    between atoms: C_2  and  C_3
REMARK    3  A    between atoms: C_2  and  C_18
REMARK    4  A    between atoms: C_3  and  N_4
REMARK    5  A    between atoms: C_8  and  C_9
REMARK    6  A    between atoms: C_12  and  C_13
REMARK                            x       y       z     vdW  Elec       q    Type
REMARK                         _______ _______ _______ _____ _____    ______ ____
ROOT
ATOM      1  N   UNL     1      45.360   4.850  12.914  0.00  0.00    +0.000 N 
ATOM      2  C   UNL     1      46.328   5.013  13.889  0.00  0.00    +0.000 A 
ATOM      3  N   UNL     1      46.402   4.072  14.825  0.00  0.00    +0.000 NA
ATOM      4  C   UNL     1      47.336   4.243  15.788  0.00  0.00    +0.000 A 
ATOM      5  C   UNL     1      48.223   5.305  15.854  0.00  0.00    +0.000 A 
ATOM      6  C   UNL     1      48.075   6.242  14.850  0.00  0.00    +0.000 A 
ATOM      7  N   UNL     1      47.130   6.079  13.867  0.00  0.00    +0.000 NA
ATOM      8  H   UNL     1      45.112   3.869  12.908  0.00  0.00    +0.000 HD
ENDROOT
BRANCH   5   9
ATOM      9  C   UNL     1      49.167   5.270  16.991  0.00  0.00    +0.000 C 
ATOM     10  N   UNL     1      48.841   5.847  18.179  0.00  0.00    +0.000 N 
ATOM     11  O   UNL     1      50.277   4.770  16.846  0.00  0.00    +0.000 OA
ATOM     12  H   UNL     1      47.907   6.102  18.471  0.00  0.00    +0.000 HD
ATOM     13  H   UNL     1      49.517   5.727  18.926  0.00  0.00    +0.000 HD
ENDBRANCH   5   9
BRANCH   6  14
ATOM     14  C   UNL     1      48.861   7.524  14.722  0.00  0.00    +0.000 C 
ATOM     15  F   UNL     1      48.840   8.352  15.801  0.00  0.00    +0.000 F 
ATOM     16  F   UNL     1      50.187   7.285  14.499  0.00  0.00    +0.000 F 
ATOM     17  F   UNL     1      48.446   8.299  13.679  0.00  0.00    +0.000 F 
ENDBRANCH   6  14
BRANCH   1  18
ATOM     18  C   UNL     1      45.701   5.408  11.622  0.00  0.00    +0.000 C 
BRANCH  18  20
ATOM     19  C   UNL     1      43.236   4.929  11.059  0.00  0.00    +0.000 C 
ATOM     20  C   UNL     1      44.673   4.921  10.638  0.00  0.00    +0.000 C 
BRANCH  20  21
ATOM     21  C   UNL     1      45.119   4.024   9.563  0.00  0.00    +0.000 A 
ATOM     22  C   UNL     1      45.790   4.523   8.442  0.00  0.00    +0.000 A 
ATOM     23  C   UNL     1      46.316   3.650   7.486  0.00  0.00    +0.000 A 
ATOM     24  C   UNL     1      46.175   2.274   7.647  0.00  0.00    +0.000 A 
ATOM     25  C   UNL     1      45.478   1.771   8.741  0.00  0.00    +0.000 A 
ATOM     26  C   UNL     1      44.941   2.643   9.688  0.00  0.00    +0.000 A 
ENDBRANCH  20  21
ENDBRANCH  18  20
ENDBRANCH   1  18
TORSDOF 5
ENDMDL
MODEL 4
REMARK VINA RESULT:    -6.941      3.537      7.237
REMARK INTER + INTRA:          -9.543
REMARK INTER:                  -9.173
REMARK INTRA:                  -0.370
REMARK UNBOUND:                -0.574
REMARK  Name = 
REMARK  6 active torsions:
REMARK  status: ('A' for Active; 'I' for Inactive)
REMARK    1  A    between atoms: C_1  and  C_2
REMARK    2  A    between atoms: C_2  and  C_3
REMARK    3  A    between atoms: C_2  and  C_18
REMARK    4  A    between atoms: C_3  and  N_4
REMARK    5  A    between atoms: C_8  and  C_9
REMARK    6  A    between atoms: C_12  and  C_13
REMARK                            x       y       z     vdW  Elec       q    Type
REMARK                         _______ _______ _______ _____ _____    ______ ____
ROOT
ATOM      1  N   UNL     1      47.280   3.217  14.532  0.00  0.00    +0.000 N 
ATOM      2  C   UNL     1      46.450   3.718  13.546  0.00  0.00    +0.000 A 
ATOM      3  N   UNL     1      45.706   2.839  12.881  0.00  0.00    +0.000 NA
ATOM      4  C   UNL     1      44.909   3.329  11.905  0.00  0.00    +0.000 A 
ATOM      5  C   UNL     1      44.800   4.668  11.567  0.00  0.00    +0.000 A 
ATOM      6  C   UNL     1      45.610   5.514  12.298  0.00  0.00    +0.000 A 
ATOM      7  N   UNL     1      46.423   5.028  13.292  0.00  0.00    +0.000 NA
ATOM      8  H   UNL     1      46.914   2.310  14.790  0.00  0.00    +0.000 HD
ENDROOT
BRANCH   5   9
ATOM      9  C   UNL     1      43.850   4.968  10.475  0.00  0.00    +0.000 C 
ATOM     10  N   UNL     1      44.198   4.756   9.177  0.00  0.00    +0.000 N 
ATOM     11  O   UNL     1      42.761   5.468  10.734  0.00  0.00    +0.000 OA
ATOM     12  H   UNL     1      44.966   4.177   8.863  0.00  0.00    +0.000 HD
ATOM     13  H   UNL     1      43.470   4.929   8.492  0.00  0.00    +0.000 HD
ENDBRANCH   5   9
BRANCH   6  14
ATOM     14  C   UNL     1      45.738   7.004  12.092  0.00  0.00    +0.000 C 
ATOM     15  F   UNL     1      44.772   7.591  11.334  0.00  0.00    +0.000 F 
ATOM     16  F   UNL     1      45.704   7.683  13.277  0.00  0.00    +0.000 F 
ATOM     17  F   UNL     1      46.913   7.359  11.497  0.00  0.00    +0.000 F 
ENDBRANCH   6  14
BRANCH   1  18
ATOM     18  C   UNL     1      47.523   4.120  15.637  0.00  0.00    +0.000 C 
BRANCH  18  20
ATOM     19  C   UNL     1      47.193   2.758  17.795  0.00  0.00    +0.000 C 
ATOM     20  C   UNL     1      48.118   3.310  16.756  0.00  0.00    +0.000 C 
BRANCH  20  21
ATOM     21  C   UNL     1      49.540   3.509  17.068  0.00  0.00    +0.000 A 
ATOM     22  C   UNL     1      50.064   4.793  17.254  0.00  0.00    +0.000 A 
ATOM     23  C   UNL     1      51.387   4.964  17.668  0.00  0.00    +0.000 A 
ATOM     24  C   UNL     1      52.193   3.852  17.900  0.00  0.00    +0.000 A 
ATOM     25  C   UNL     1      51.692   2.572  17.683  0.00  0.00    +0.000 A 
ATOM     26  C   UNL     1      50.375   2.403  17.255  0.00  0.00    +0.000 A 
ENDBRANCH  20  21
ENDBRANCH  18  20
ENDBRANCH   1  18
TORSDOF 5
ENDMDL
MODEL 5
REMARK VINA RESULT:    -6.829      3.143      4.177
REMARK INTER + INTRA:          -9.399
REMARK INTER:                  -8.998
REMARK INTRA:                  -0.401
REMARK UNBOUND:                -0.574
REMARK  Name = 
REMARK  6 active torsions:
REMARK  status: ('A' for Active; 'I' for Inactive)
REMARK    1  A    between atoms: C_1  and  C_2
REMARK    2  A    between atoms: C_2  and  C_3
REMARK    3  A    between atoms: C_2  and  C_18
REMARK    4  A    between atoms: C_3  and  N_4
REMARK    5  A    between atoms: C_8  and  C_9
REMARK    6  A    between atoms: C_12  and  C_13
REMARK                            x       y       z     vdW  Elec       q    Type
REMARK                         _______ _______ _______ _____ _____    ______ ____
ROOT
ATOM      1  N   UNL     1      46.544   5.001  13.003  0.00  0.00    +0.000 N 
ATOM      2  C   UNL     1      47.257   5.153  14.178  0.00  0.00    +0.000 A 
ATOM      3  N   UNL     1      47.979   6.263  14.304  0.00  0.00    +0.000 NA
ATOM      4  C   UNL     1      48.690   6.400  15.446  0.00  0.00    +0.000 A 
ATOM      5  C   UNL     1      48.702   5.488  16.489  0.00  0.00    +0.000 A 
ATOM      6  C   UNL     1      47.934   4.361  16.276  0.00  0.00    +0.000 A 
ATOM      7  N   UNL     1      47.207   4.210  15.120  0.00  0.00    +0.000 NA
ATOM      8  H   UNL     1      46.441   5.923  12.601  0.00  0.00    +0.000 HD
ENDROOT
BRANCH   5   9
ATOM      9  C   UNL     1      49.544   5.862  17.645  0.00  0.00    +0.000 C 
ATOM     10  N   UNL     1      49.091   6.750  18.572  0.00  0.00    +0.000 N 
ATOM     11  O   UNL     1      50.682   5.418  17.740  0.00  0.00    +0.000 OA
ATOM     12  H   UNL     1      48.125   7.018  18.704  0.00  0.00    +0.000 HD
ATOM     13  H   UNL     1      49.703   6.908  19.365  0.00  0.00    +0.000 HD
ENDBRANCH   5   9
BRANCH   6  14
ATOM     14  C   UNL     1      47.822   3.184  17.214  0.00  0.00    +0.000 C 
ATOM     15  F   UNL     1      48.298   3.372  18.475  0.00  0.00    +0.000 F 
ATOM     16  F   UNL     1      46.523   2.800  17.392  0.00  0.00    +0.000 F 
ATOM     17  F   UNL     1      48.473   2.076  16.756  0.00  0.00    +0.000 F 
ENDBRANCH   6  14
BRANCH   1  18
ATOM     18  C   UNL     1      45.317   4.244  13.132  0.00  0.00    +0.000 C 
BRANCH  18  20
ATOM     19  C   UNL     1      43.036   5.179  12.392  0.00  0.00    +0.000 C 
ATOM     20  C   UNL     1      44.400   4.684  12.023  0.00  0.00    +0.000 C 
BRANCH  20  21
ATOM     21  C   UNL     1      44.653   4.162  10.673  0.00  0.00    +0.000 A 
ATOM     22  C   UNL     1      45.280   4.951   9.702  0.00  0.00    +0.000 A 
ATOM     23  C   UNL     1      45.624   4.406   8.462  0.00  0.00    +0.000 A 
ATOM     24  C   UNL     1      45.345   3.070   8.188  0.00  0.00    +0.000 A 
ATOM     25  C   UNL     1      44.689   2.288   9.134  0.00  0.00    +0.000 A 
ATOM     26  C   UNL     1      44.333   2.836  10.366  0.00  0.00    +0.000 A 
ENDBRANCH  20  21
ENDBRANCH  18  20
ENDBRANCH   1  18
TORSDOF 5
ENDMDL
MODEL 6
REMARK VINA RESULT:    -6.742      3.414      8.082
REMARK INTER + INTRA:          -9.287
REMARK INTER:                  -8.766
REMARK INTRA:                  -0.521
REMARK UNBOUND:                -0.574
REMARK  Name = 
REMARK  6 active torsions:
REMARK  status: ('A' for Active; 'I' for Inactive)
REMARK    1  A    between atoms: C_1  and  C_2
REMARK    2  A    between atoms: C_2  and  C_3
REMARK    3  A    between atoms: C_2  and  C_18
REMARK    4  A    between atoms: C_3  and  N_4
REMARK    5  A    between atoms: C_8  and  C_9
REMARK    6  A    between atoms: C_12  and  C_13
REMARK                            x       y       z     vdW  Elec       q    Type
REMARK                         _______ _______ _______ _____ _____    ______ ____
ROOT
ATOM      1  N   UNL     1      47.281   3.536  15.067  0.00  0.00    +0.000 N 
ATOM      2  C   UNL     1      46.611   3.956  13.932  0.00  0.00    +0.000 A 
ATOM      3  N   UNL     1      46.040   3.013  13.188  0.00  0.00    +0.000 NA
ATOM      4  C   UNL     1      45.401   3.424  12.069  0.00  0.00    +0.000 A 
ATOM      5  C   UNL     1      45.283   4.743  11.661  0.00  0.00    +0.000 A 
ATOM      6  C   UNL     1      45.909   5.658  12.484  0.00  0.00    +0.000 A 
ATOM      7  N   UNL     1      46.561   5.252  13.623  0.00  0.00    +0.000 NA
ATOM      8  H   UNL     1      46.924   2.617  15.296  0.00  0.00    +0.000 HD
ENDROOT
BRANCH   5   9
ATOM      9  C   UNL     1      44.524   4.952  10.410  0.00  0.00    +0.000 C 
ATOM     10  N   UNL     1      45.173   5.134   9.229  0.00  0.00    +0.000 N 
ATOM     11  O   UNL     1      43.300   5.021  10.445  0.00  0.00    +0.000 OA
ATOM     12  H   UNL     1      46.141   4.903   9.050  0.00  0.00    +0.000 HD
ATOM     13  H   UNL     1      44.581   5.210   8.409  0.00  0.00    +0.000 HD
ENDBRANCH   5   9
BRANCH   6  14
ATOM     14  C   UNL     1      45.994   7.145  12.241  0.00  0.00    +0.000 C 
ATOM     15  F   UNL     1      46.988   7.562  11.409  0.00  0.00    +0.000 F 
ATOM     16  F   UNL     1      44.849   7.632  11.678  0.00  0.00    +0.000 F 
ATOM     17  F   UNL     1      46.175   7.861  13.388  0.00  0.00    +0.000 F 
ENDBRANCH   6  14
BRANCH   1  18
ATOM     18  C   UNL     1      47.281   4.487  16.158  0.00  0.00    +0.000 C 
BRANCH  18  20
ATOM     19  C   UNL     1      48.825   2.609  17.002  0.00  0.00    +0.000 C 
ATOM     20  C   UNL     1      48.218   3.961  17.211  0.00  0.00    +0.000 C 
BRANCH  20  21
ATOM     21  C   UNL     1      48.111   4.517  18.567  0.00  0.00    +0.000 A 
ATOM     22  C   UNL     1      48.872   3.999  19.620  0.00  0.00    +0.000 A 
ATOM     23  C   UNL     1      48.853   4.611  20.875  0.00  0.00    +0.000 A 
ATOM     24  C   UNL     1      48.074   5.747  21.084  0.00  0.00    +0.000 A 
ATOM     25  C   UNL     1      47.286   6.249  20.052  0.00  0.00    +0.000 A 
ATOM     26  C   UNL     1      47.295   5.628  18.803  0.00  0.00    +0.000 A 
ENDBRANCH  20  21
ENDBRANCH  18  20
ENDBRANCH   1  18
TORSDOF 5
ENDMDL
MODEL 7
REMARK VINA RESULT:    -6.611      2.521      3.763
REMARK INTER + INTRA:          -9.117
REMARK INTER:                  -8.442
REMARK INTRA:                  -0.675
REMARK UNBOUND:                -0.574
REMARK  Name = 
REMARK  6 active torsions:
REMARK  status: ('A' for Active; 'I' for Inactive)
REMARK    1  A    between atoms: C_1  and  C_2
REMARK    2  A    between atoms: C_2  and  C_3
REMARK    3  A    between atoms: C_2  and  C_18
REMARK    4  A    between atoms: C_3  and  N_4
REMARK    5  A    between atoms: C_8  and  C_9
REMARK    6  A    between atoms: C_12  and  C_13
REMARK                            x       y       z     vdW  Elec       q    Type
REMARK                         _______ _______ _______ _____ _____    ______ ____
ROOT
ATOM      1  N   UNL     1      46.132   4.374  14.031  0.00  0.00    +0.000 N 
ATOM      2  C   UNL     1      47.094   4.362  15.024  0.00  0.00    +0.000 A 
ATOM      3  N   UNL     1      47.172   3.266  15.773  0.00  0.00    +0.000 NA
ATOM      4  C   UNL     1      48.101   3.264  16.755  0.00  0.00    +0.000 A 
ATOM      5  C   UNL     1      48.981   4.302  17.019  0.00  0.00    +0.000 A 
ATOM      6  C   UNL     1      48.830   5.405  16.203  0.00  0.00    +0.000 A 
ATOM      7  N   UNL     1      47.890   5.418  15.201  0.00  0.00    +0.000 NA
ATOM      8  H   UNL     1      45.891   3.409  13.845  0.00  0.00    +0.000 HD
ENDROOT
BRANCH   5   9
ATOM      9  C   UNL     1      49.920   4.065  18.135  0.00  0.00    +0.000 C 
ATOM     10  N   UNL     1      49.531   4.271  19.423  0.00  0.00    +0.000 N 
ATOM     11  O   UNL     1      51.079   3.739  17.898  0.00  0.00    +0.000 OA
ATOM     12  H   UNL     1      48.574   4.342  19.742  0.00  0.00    +0.000 HD
ATOM     13  H   UNL     1      50.215   4.028  20.132  0.00  0.00    +0.000 HD
ENDBRANCH   5   9
BRANCH   6  14
ATOM     14  C   UNL     1      49.607   6.694  16.314  0.00  0.00    +0.000 C 
ATOM     15  F   UNL     1      49.567   7.317  17.523  0.00  0.00    +0.000 F 
ATOM     16  F   UNL     1      50.938   6.505  16.070  0.00  0.00    +0.000 F 
ATOM     17  F   UNL     1      49.199   7.639  15.420  0.00  0.00    +0.000 F 
ENDBRANCH   6  14
BRANCH   1  18
ATOM     18  C   UNL     1      46.474   5.160  12.865  0.00  0.00    +0.000 C 
BRANCH  18  20
ATOM     19  C   UNL     1      43.980   5.790  12.787  0.00  0.00    +0.000 C 
ATOM     20  C   UNL     1      45.214   5.346  12.064  0.00  0.00    +0.000 C 
BRANCH  20  21
ATOM     21  C   UNL     1      45.101   4.635  10.784  0.00  0.00    +0.000 A 
ATOM     22  C   UNL     1      45.638   5.175   9.610  0.00  0.00    +0.000 A 
ATOM     23  C   UNL     1      45.631   4.437   8.424  0.00  0.00    +0.000 A 
ATOM     24  C   UNL     1      45.090   3.154   8.406  0.00  0.00    +0.000 A 
ATOM     25  C   UNL     1      44.521   2.623   9.559  0.00  0.00    +0.000 A 
ATOM     26  C   UNL     1      44.515   3.366  10.740  0.00  0.00    +0.000 A 
ENDBRANCH  20  21
ENDBRANCH  18  20
ENDBRANCH   1  18
TORSDOF 5
ENDMDL
MODEL 8
REMARK VINA RESULT:    -6.519      4.071      7.453
REMARK INTER + INTRA:          -8.998
REMARK INTER:                  -8.150
REMARK INTRA:                  -0.849
REMARK UNBOUND:                -0.574
REMARK  Name = 
REMARK  6 active torsions:
REMARK  status: ('A' for Active; 'I' for Inactive)
REMARK    1  A    between atoms: C_1  and  C_2
REMARK    2  A    between atoms: C_2  and  C_3
REMARK    3  A    between atoms: C_2  and  C_18
REMARK    4  A    between atoms: C_3  and  N_4
REMARK    5  A    between atoms: C_8  and  C_9
REMARK    6  A    between atoms: C_12  and  C_13
REMARK                            x       y       z     vdW  Elec       q    Type
REMARK                         _______ _______ _______ _____ _____    ______ ____
ROOT
ATOM      1  N   UNL     1      47.416   7.401  14.097  0.00  0.00    +0.000 N 
ATOM      2  C   UNL     1      46.463   6.818  13.281  0.00  0.00    +0.000 A 
ATOM      3  N   UNL     1      45.663   7.640  12.609  0.00  0.00    +0.000 NA
ATOM      4  C   UNL     1      44.721   7.068  11.826  0.00  0.00    +0.000 A 
ATOM      5  C   UNL     1      44.547   5.703  11.661  0.00  0.00    +0.000 A 
ATOM      6  C   UNL     1      45.412   4.920  12.398  0.00  0.00    +0.000 A 
ATOM      7  N   UNL     1      46.374   5.490  13.197  0.00  0.00    +0.000 NA
ATOM      8  H   UNL     1      47.542   8.350  13.769  0.00  0.00    +0.000 HD
ENDROOT
BRANCH   5   9
ATOM      9  C   UNL     1      43.460   5.313  10.739  0.00  0.00    +0.000 C 
ATOM     10  N   UNL     1      43.745   4.799   9.511  0.00  0.00    +0.000 N 
ATOM     11  O   UNL     1      42.292   5.508  11.056  0.00  0.00    +0.000 OA
ATOM     12  H   UNL     1      44.637   4.416   9.228  0.00  0.00    +0.000 HD
ATOM     13  H   UNL     1      42.944   4.500   8.963  0.00  0.00    +0.000 HD
ENDBRANCH   5   9
BRANCH   6  14
ATOM     14  C   UNL     1      45.399   3.412  12.457  0.00  0.00    +0.000 C 
ATOM     15  F   UNL     1      44.250   2.839  12.908  0.00  0.00    +0.000 F 
ATOM     16  F   UNL     1      45.600   2.855  11.226  0.00  0.00    +0.000 F 
ATOM     17  F   UNL     1      46.380   2.903  13.256  0.00  0.00    +0.000 F 
ENDBRANCH   6  14
BRANCH   1  18
ATOM     18  C   UNL     1      48.634   6.635  14.251  0.00  0.00    +0.000 C 
BRANCH  18  20
ATOM     19  C   UNL     1      50.138   7.575  16.115  0.00  0.00    +0.000 C 
ATOM     20  C   UNL     1      49.011   6.680  15.707  0.00  0.00    +0.000 C 
BRANCH  20  21
ATOM     21  C   UNL     1      48.639   5.535  16.550  0.00  0.00    +0.000 A 
ATOM     22  C   UNL     1      47.819   4.514  16.057  0.00  0.00    +0.000 A 
ATOM     23  C   UNL     1      47.571   3.373  16.824  0.00  0.00    +0.000 A 
ATOM     24  C   UNL     1      48.143   3.247  18.088  0.00  0.00    +0.000 A 
ATOM     25  C   UNL     1      48.930   4.273  18.601  0.00  0.00    +0.000 A 
ATOM     26  C   UNL     1      49.166   5.418  17.840  0.00  0.00    +0.000 A 
ENDBRANCH  20  21
ENDBRANCH  18  20
ENDBRANCH   1  18
TORSDOF 5
ENDMDL
MODEL 9
REMARK VINA RESULT:    -6.497      3.578      7.325
REMARK INTER + INTRA:          -8.970
REMARK INTER:                  -8.331
REMARK INTRA:                  -0.639
REMARK UNBOUND:                -0.574
REMARK  Name = 
REMARK  6 active torsions:
REMARK  status: ('A' for Active; 'I' for Inactive)
REMARK    1  A    between atoms: C_1  and  C_2
REMARK    2  A    between atoms: C_2  and  C_3
REMARK    3  A    between atoms: C_2  and  C_18
REMARK    4  A    between atoms: C_3  and  N_4
REMARK    5  A    between atoms: C_8  and  C_9
REMARK    6  A    between atoms: C_12  and  C_13
REMARK                            x       y       z     vdW  Elec       q    Type
REMARK                         _______ _______ _______ _____ _____    ______ ____
ROOT
ATOM      1  N   UNL     1      47.637   4.048  15.760  0.00  0.00    +0.000 N 
ATOM      2  C   UNL     1      47.162   4.611  14.589  0.00  0.00    +0.000 A 
ATOM      3  N   UNL     1      46.067   4.071  14.062  0.00  0.00    +0.000 NA
ATOM      4  C   UNL     1      45.615   4.611  12.908  0.00  0.00    +0.000 A 
ATOM      5  C   UNL     1      46.194   5.688  12.256  0.00  0.00    +0.000 A 
ATOM      6  C   UNL     1      47.329   6.186  12.863  0.00  0.00    +0.000 A 
ATOM      7  N   UNL     1      47.797   5.645  14.036  0.00  0.00    +0.000 NA
ATOM      8  H   UNL     1      46.866   3.541  16.175  0.00  0.00    +0.000 HD
ENDROOT
BRANCH   5   9
ATOM      9  C   UNL     1      45.512   6.115  11.016  0.00  0.00    +0.000 C 
ATOM     10  N   UNL     1      44.644   7.163  11.029  0.00  0.00    +0.000 N 
ATOM     11  O   UNL     1      45.681   5.484   9.978  0.00  0.00    +0.000 OA
ATOM     12  H   UNL     1      44.581   7.863  11.756  0.00  0.00    +0.000 HD
ATOM     13  H   UNL     1      44.264   7.431  10.127  0.00  0.00    +0.000 HD
ENDBRANCH   5   9
BRANCH   6  14
ATOM     14  C   UNL     1      48.190   7.306  12.332  0.00  0.00    +0.000 C 
ATOM     15  F   UNL     1      48.558   7.214  11.025  0.00  0.00    +0.000 F 
ATOM     16  F   UNL     1      47.563   8.516  12.427  0.00  0.00    +0.000 F 
ATOM     17  F   UNL     1      49.362   7.445  13.016  0.00  0.00    +0.000 F 
ENDBRANCH   6  14
BRANCH   1  18
ATOM     18  C   UNL     1      48.316   4.970  16.644  0.00  0.00    +0.000 C 
BRANCH  18  20
ATOM     19  C   UNL     1      48.254   4.527  19.178  0.00  0.00    +0.000 C 
ATOM     20  C   UNL     1      48.801   4.180  17.829  0.00  0.00    +0.000 C 
BRANCH  20  21
ATOM     21  C   UNL     1      50.094   3.492  17.714  0.00  0.00    +0.000 A 
ATOM     22  C   UNL     1      51.284   4.128  18.085  0.00  0.00    +0.000 A 
ATOM     23  C   UNL     1      52.491   3.425  18.087  0.00  0.00    +0.000 A 
ATOM     24  C   UNL     1      52.515   2.082  17.719  0.00  0.00    +0.000 A 
ATOM     25  C   UNL     1      51.342   1.451  17.314  0.00  0.00    +0.000 A 
ATOM     26  C   UNL     1      50.140   2.157  17.300  0.00  0.00    +0.000 A 
ENDBRANCH  20  21
ENDBRANCH  18  20
ENDBRANCH   1  18
TORSDOF 5
ENDMDL
