MODEL 1
REMARK VINA RESULT:    -9.340      0.000      0.000
REMARK INTER + INTRA:         -13.130
REMARK INTER:                 -12.071
REMARK INTRA:                  -1.060
REMARK UNBOUND:                -1.060
REMARK  Name = 
REMARK  5 active torsions:
REMARK  status: ('A' for Active; 'I' for Inactive)
REMARK    1  A    between atoms: C_2  and  C_4
REMARK    2  A    between atoms: N_8  and  C_9
REMARK    3  A    between atoms: C_9  and  C_10
REMARK    4  A    between atoms: C_10  and  C_13
REMARK    5  A    between atoms: C_16  and  N_17
REMARK                            x       y       z     vdW  Elec       q    Type
REMARK                         _______ _______ _______ _____ _____    ______ ____
ROOT
ATOM      1  C   UNL     1      43.115   5.545  12.132  0.00  0.00    +0.000 C 
ATOM      2  F   UNL     1      42.174   6.401  11.629  0.00  0.00    +0.000 F 
ATOM      3  F   UNL     1      42.609   5.123  13.330  0.00  0.00    +0.000 F 
ENDROOT
BRANCH   1   4
ATOM      4  C   UNL     1      44.461   6.223  12.307  0.00  0.00    +0.000 A 
ATOM      5  C   UNL     1      45.514   5.580  12.959  0.00  0.00    +0.000 A 
ATOM      6  C   UNL     1      46.765   6.205  13.087  0.00  0.00    +0.000 A 
ATOM      7  C   UNL     1      47.013   7.490  12.581  0.00  0.00    +0.000 A 
ATOM      8  C   UNL     1      45.939   8.123  11.938  0.00  0.00    +0.000 A 
ATOM      9  C   UNL     1      44.688   7.510  11.803  0.00  0.00    +0.000 A 
BRANCH   7  10
ATOM     10  N   UNL     1      48.254   8.092  12.683  0.00  0.00    +0.000 N 
ATOM     11  C   UNL     1      48.421   9.546  12.663  0.00  0.00    +0.000 C 
ATOM     12  C   UNL     1      49.194   9.961  11.414  0.00  0.00    +0.000 C 
ATOM     13  C   UNL     1      50.522   9.209  11.317  0.00  0.00    +0.000 C 
ATOM     14  C   UNL     1      50.304   7.698  11.406  0.00  0.00    +0.000 C 
ATOM     15  C   UNL     1      49.491   7.308  12.643  0.00  0.00    +0.000 C 
ENDBRANCH   7  10
ENDBRANCH   1   4
BRANCH   1  16
ATOM     16  C   UNL     1      43.213   4.325  11.176  0.00  0.00    +0.000 C 
BRANCH  16  21
ATOM     17  C   UNL     1      46.512   2.521   7.703  0.00  0.00    +0.000 A 
ATOM     18  C   UNL     1      45.665   1.836   8.565  0.00  0.00    +0.000 A 
ATOM     19  C   UNL     1      44.731   2.551   9.318  0.00  0.00    +0.000 A 
ATOM     20  C   UNL     1      44.658   3.936   9.197  0.00  0.00    +0.000 A 
ATOM     21  N   UNL     1      43.687   4.688   9.830  0.00  0.00    +0.000 N 
ATOM     22  N   UNL     1      45.491   4.613   8.384  0.00  0.00    +0.000 NA
ATOM     23  C   UNL     1      46.404   3.903   7.665  0.00  0.00    +0.000 A 
ATOM     24  H   UNL     1      43.874   5.679   9.679  0.00  0.00    +0.000 HD
BRANCH  17  26
ATOM     25  N   UNL     1      48.552   2.588   6.391  0.00  0.00    +0.000 N 
ATOM     26  C   UNL     1      47.507   1.835   6.853  0.00  0.00    +0.000 C 
ATOM     27  O   UNL     1      47.419   0.642   6.596  0.00  0.00    +0.000 OA
ATOM     28  H   UNL     1      49.281   2.090   5.891  0.00  0.00    +0.000 HD
ATOM     29  H   UNL     1      48.791   3.487   6.781  0.00  0.00    +0.000 HD
ENDBRANCH  17  26
ENDBRANCH  16  21
ENDBRANCH   1  16
TORSDOF 5
ENDMDL
MODEL 2
REMARK VINA RESULT:    -9.099      0.762      1.219
REMARK INTER + INTRA:         -12.819
REMARK INTER:                 -11.845
REMARK INTRA:                  -0.974
REMARK UNBOUND:                -1.060
REMARK  Name = 
REMARK  5 active torsions:
REMARK  status: ('A' for Active; 'I' for Inactive)
REMARK    1  A    between atoms: C_2  and  C_4
REMARK    2  A    between atoms: N_8  and  C_9
REMARK    3  A    between atoms: C_9  and  C_10
REMARK    4  A    between atoms: C_10  and  C_13
REMARK    5  A    between atoms: C_16  and  N_17
REMARK                            x       y       z     vdW  Elec       q    Type
REMARK                         _______ _______ _______ _____ _____    ______ ____
ROOT
ATOM      1  C   UNL     1      43.290   4.533  12.560  0.00  0.00    +0.000 C 
ATOM      2  F   UNL     1      42.177   5.292  12.323  0.00  0.00    +0.000 F 
ATOM      3  F   UNL     1      43.054   3.920  13.760  0.00  0.00    +0.000 F 
ENDROOT
BRANCH   1   4
ATOM      4  C   UNL     1      44.551   5.375  12.608  0.00  0.00    +0.000 A 
ATOM      5  C   UNL     1      44.621   6.609  11.957  0.00  0.00    +0.000 A 
ATOM      6  C   UNL     1      45.782   7.394  12.035  0.00  0.00    +0.000 A 
ATOM      7  C   UNL     1      46.915   6.982  12.753  0.00  0.00    +0.000 A 
ATOM      8  C   UNL     1      46.828   5.736  13.391  0.00  0.00    +0.000 A 
ATOM      9  C   UNL     1      45.676   4.945  13.322  0.00  0.00    +0.000 A 
BRANCH   7  10
ATOM     10  N   UNL     1      48.048   7.771  12.852  0.00  0.00    +0.000 N 
ATOM     11  C   UNL     1      47.978   9.230  12.944  0.00  0.00    +0.000 C 
ATOM     12  C   UNL     1      48.604   9.858  11.701  0.00  0.00    +0.000 C 
ATOM     13  C   UNL     1      50.028   9.343  11.487  0.00  0.00    +0.000 C 
ATOM     14  C   UNL     1      50.061   7.814  11.461  0.00  0.00    +0.000 C 
ATOM     15  C   UNL     1      49.390   7.206  12.695  0.00  0.00    +0.000 C 
ENDBRANCH   7  10
ENDBRANCH   1   4
BRANCH   1  16
ATOM     16  C   UNL     1      43.374   3.446  11.455  0.00  0.00    +0.000 C 
BRANCH  16  21
ATOM     17  C   UNL     1      46.501   2.693   7.473  0.00  0.00    +0.000 A 
ATOM     18  C   UNL     1      45.935   1.773   8.345  0.00  0.00    +0.000 A 
ATOM     19  C   UNL     1      44.977   2.203   9.266  0.00  0.00    +0.000 A 
ATOM     20  C   UNL     1      44.601   3.543   9.301  0.00  0.00    +0.000 A 
ATOM     21  N   UNL     1      43.585   4.010  10.111  0.00  0.00    +0.000 N 
ATOM     22  N   UNL     1      45.162   4.449   8.478  0.00  0.00    +0.000 NA
ATOM     23  C   UNL     1      46.104   4.017   7.593  0.00  0.00    +0.000 A 
ATOM     24  H   UNL     1      43.539   5.026  10.046  0.00  0.00    +0.000 HD
BRANCH  17  26
ATOM     25  N   UNL     1      47.499   3.030   5.287  0.00  0.00    +0.000 N 
ATOM     26  C   UNL     1      47.500   2.313   6.452  0.00  0.00    +0.000 C 
ATOM     27  O   UNL     1      48.310   1.419   6.649  0.00  0.00    +0.000 OA
ATOM     28  H   UNL     1      48.248   2.830   4.633  0.00  0.00    +0.000 HD
ATOM     29  H   UNL     1      47.029   3.918   5.192  0.00  0.00    +0.000 HD
ENDBRANCH  17  26
ENDBRANCH  16  21
ENDBRANCH   1  16
TORSDOF 5
ENDMDL
MODEL 3
REMARK VINA RESULT:    -8.244      2.776      3.990
REMARK INTER + INTRA:         -11.714
REMARK INTER:                 -10.613
REMARK INTRA:                  -1.101
REMARK UNBOUND:                -1.060
REMARK  Name = 
REMARK  5 active torsions:
REMARK  status: ('A' for Active; 'I' for Inactive)
REMARK    1  A    between atoms: C_2  and  C_4
REMARK    2  A    between atoms: N_8  and  C_9
REMARK    3  A    between atoms: C_9  and  C_10
REMARK    4  A    between atoms: C_10  and  C_13
REMARK    5  A    between atoms: C_16  and  N_17
REMARK                            x       y       z     vdW  Elec       q    Type
REMARK                         _______ _______ _______ _____ _____    ______ ____
ROOT
ATOM      1  C   UNL     1      44.673   6.389  11.402  0.00  0.00    +0.000 C 
ATOM      2  F   UNL     1      45.400   6.830  10.330  0.00  0.00    +0.000 F 
ATOM      3  F   UNL     1      43.919   7.463  11.788  0.00  0.00    +0.000 F 
ENDROOT
BRANCH   1   4
ATOM      4  C   UNL     1      45.564   5.904  12.530  0.00  0.00    +0.000 A 
ATOM      5  C   UNL     1      46.607   6.694  13.017  0.00  0.00    +0.000 A 
ATOM      6  C   UNL     1      47.404   6.247  14.083  0.00  0.00    +0.000 A 
ATOM      7  C   UNL     1      47.202   5.002  14.697  0.00  0.00    +0.000 A 
ATOM      8  C   UNL     1      46.155   4.220  14.187  0.00  0.00    +0.000 A 
ATOM      9  C   UNL     1      45.352   4.654  13.126  0.00  0.00    +0.000 A 
BRANCH   7  10
ATOM     10  N   UNL     1      47.972   4.577  15.766  0.00  0.00    +0.000 N 
ATOM     11  C   UNL     1      47.980   3.185  16.217  0.00  0.00    +0.000 C 
ATOM     12  C   UNL     1      47.385   3.092  17.620  0.00  0.00    +0.000 C 
ATOM     13  C   UNL     1      48.109   4.034  18.584  0.00  0.00    +0.000 C 
ATOM     14  C   UNL     1      48.130   5.464  18.041  0.00  0.00    +0.000 C 
ATOM     15  C   UNL     1      48.690   5.527  16.618  0.00  0.00    +0.000 C 
ENDBRANCH   7  10
ENDBRANCH   1   4
BRANCH   1  16
ATOM     16  C   UNL     1      43.721   5.266  10.907  0.00  0.00    +0.000 C 
BRANCH  16  21
ATOM     17  C   UNL     1      46.241   1.965   7.915  0.00  0.00    +0.000 A 
ATOM     18  C   UNL     1      45.644   1.766   9.152  0.00  0.00    +0.000 A 
ATOM     19  C   UNL     1      44.868   2.785   9.710  0.00  0.00    +0.000 A 
ATOM     20  C   UNL     1      44.703   3.985   9.023  0.00  0.00    +0.000 A 
ATOM     21  N   UNL     1      43.863   4.987   9.468  0.00  0.00    +0.000 N 
ATOM     22  N   UNL     1      45.299   4.199   7.834  0.00  0.00    +0.000 NA
ATOM     23  C   UNL     1      46.061   3.200   7.309  0.00  0.00    +0.000 A 
ATOM     24  H   UNL     1      43.963   5.805   8.867  0.00  0.00    +0.000 HD
BRANCH  17  26
ATOM     25  N   UNL     1      46.777  -0.375   7.561  0.00  0.00    +0.000 N 
ATOM     26  C   UNL     1      47.053   0.927   7.246  0.00  0.00    +0.000 C 
ATOM     27  O   UNL     1      47.913   1.215   6.425  0.00  0.00    +0.000 OA
ATOM     28  H   UNL     1      47.269  -1.083   7.028  0.00  0.00    +0.000 HD
ATOM     29  H   UNL     1      45.927  -0.656   8.027  0.00  0.00    +0.000 HD
ENDBRANCH  17  26
ENDBRANCH  16  21
ENDBRANCH   1  16
TORSDOF 5
ENDMDL
MODEL 4
REMARK VINA RESULT:    -7.223      2.623      6.619
REMARK INTER + INTRA:         -10.395
REMARK INTER:                  -9.373
REMARK INTRA:                  -1.022
REMARK UNBOUND:                -1.060
REMARK  Name = 
REMARK  5 active torsions:
REMARK  status: ('A' for Active; 'I' for Inactive)
REMARK    1  A    between atoms: C_2  and  C_4
REMARK    2  A    between atoms: N_8  and  C_9
REMARK    3  A    between atoms: C_9  and  C_10
REMARK    4  A    between atoms: C_10  and  C_13
REMARK    5  A    between atoms: C_16  and  N_17
REMARK                            x       y       z     vdW  Elec       q    Type
REMARK                         _______ _______ _______ _____ _____    ______ ____
ROOT
ATOM      1  C   UNL     1      43.999   5.283  12.601  0.00  0.00    +0.000 C 
ATOM      2  F   UNL     1      44.176   4.534  13.732  0.00  0.00    +0.000 F 
ATOM      3  F   UNL     1      42.656   5.533  12.545  0.00  0.00    +0.000 F 
ENDROOT
BRANCH   1   4
ATOM      4  C   UNL     1      44.478   4.554  11.359  0.00  0.00    +0.000 A 
ATOM      5  C   UNL     1      44.243   3.189  11.186  0.00  0.00    +0.000 A 
ATOM      6  C   UNL     1      44.664   2.533  10.019  0.00  0.00    +0.000 A 
ATOM      7  C   UNL     1      45.337   3.203   8.986  0.00  0.00    +0.000 A 
ATOM      8  C   UNL     1      45.571   4.572   9.183  0.00  0.00    +0.000 A 
ATOM      9  C   UNL     1      45.156   5.238  10.342  0.00  0.00    +0.000 A 
BRANCH   7  10
ATOM     10  N   UNL     1      45.725   2.560   7.824  0.00  0.00    +0.000 N 
ATOM     11  C   UNL     1      46.411   1.267   7.839  0.00  0.00    +0.000 C 
ATOM     12  C   UNL     1      47.827   1.428   7.292  0.00  0.00    +0.000 C 
ATOM     13  C   UNL     1      47.809   2.075   5.907  0.00  0.00    +0.000 C 
ATOM     14  C   UNL     1      47.028   3.390   5.927  0.00  0.00    +0.000 C 
ATOM     15  C   UNL     1      45.627   3.215   6.517  0.00  0.00    +0.000 C 
ENDBRANCH   7  10
ENDBRANCH   1   4
BRANCH   1  16
ATOM     16  C   UNL     1      44.748   6.630  12.794  0.00  0.00    +0.000 C 
BRANCH  16  21
ATOM     17  C   UNL     1      49.594   8.013  11.902  0.00  0.00    +0.000 A 
ATOM     18  C   UNL     1      48.414   8.710  11.677  0.00  0.00    +0.000 A 
ATOM     19  C   UNL     1      47.209   8.189  12.153  0.00  0.00    +0.000 A 
ATOM     20  C   UNL     1      47.202   6.981  12.845  0.00  0.00    +0.000 A 
ATOM     21  N   UNL     1      46.063   6.466  13.434  0.00  0.00    +0.000 N 
ATOM     22  N   UNL     1      48.337   6.283  13.047  0.00  0.00    +0.000 NA
ATOM     23  C   UNL     1      49.502   6.799  12.566  0.00  0.00    +0.000 A 
ATOM     24  H   UNL     1      46.263   5.538  13.804  0.00  0.00    +0.000 HD
BRANCH  17  26
ATOM     25  N   UNL     1      51.849   7.572  11.122  0.00  0.00    +0.000 N 
ATOM     26  C   UNL     1      50.912   8.511  11.455  0.00  0.00    +0.000 C 
ATOM     27  O   UNL     1      51.146   9.708  11.358  0.00  0.00    +0.000 OA
ATOM     28  H   UNL     1      52.715   7.920  10.725  0.00  0.00    +0.000 HD
ATOM     29  H   UNL     1      51.617   6.606  10.949  0.00  0.00    +0.000 HD
ENDBRANCH  17  26
ENDBRANCH  16  21
ENDBRANCH   1  16
TORSDOF 5
ENDMDL
MODEL 5
REMARK VINA RESULT:    -7.134      6.264      7.721
REMARK INTER + INTRA:         -10.279
REMARK INTER:                  -9.551
REMARK INTRA:                  -0.728
REMARK UNBOUND:                -1.060
REMARK  Name = 
REMARK  5 active torsions:
REMARK  status: ('A' for Active; 'I' for Inactive)
REMARK    1  A    between atoms: C_2  and  C_4
REMARK    2  A    between atoms: N_8  and  C_9
REMARK    3  A    between atoms: C_9  and  C_10
REMARK    4  A    between atoms: C_10  and  C_13
REMARK    5  A    between atoms: C_16  and  N_17
REMARK                            x       y       z     vdW  Elec       q    Type
REMARK                         _______ _______ _______ _____ _____    ______ ____
ROOT
ATOM      1  C   UNL     1      47.803   3.771  17.412  0.00  0.00    +0.000 C 
ATOM      2  F   UNL     1      47.416   4.581  18.446  0.00  0.00    +0.000 F 
ATOM      3  F   UNL     1      46.962   2.695  17.468  0.00  0.00    +0.000 F 
ENDROOT
BRANCH   1   4
ATOM      4  C   UNL     1      49.254   3.347  17.539  0.00  0.00    +0.000 A 
ATOM      5  C   UNL     1      50.196   4.170  18.158  0.00  0.00    +0.000 A 
ATOM      6  C   UNL     1      51.529   3.753  18.298  0.00  0.00    +0.000 A 
ATOM      7  C   UNL     1      51.977   2.511  17.823  0.00  0.00    +0.000 A 
ATOM      8  C   UNL     1      51.017   1.703  17.196  0.00  0.00    +0.000 A 
ATOM      9  C   UNL     1      49.685   2.107  17.052  0.00  0.00    +0.000 A 
BRANCH   7  10
ATOM     10  N   UNL     1      53.285   2.090  17.988  0.00  0.00    +0.000 N 
ATOM     11  C   UNL     1      54.413   3.023  17.973  0.00  0.00    +0.000 C 
ATOM     12  C   UNL     1      55.301   2.741  16.764  0.00  0.00    +0.000 C 
ATOM     13  C   UNL     1      55.740   1.277  16.737  0.00  0.00    +0.000 C 
ATOM     14  C   UNL     1      54.533   0.340  16.818  0.00  0.00    +0.000 C 
ATOM     15  C   UNL     1      53.634   0.668  18.013  0.00  0.00    +0.000 C 
ENDBRANCH   7  10
ENDBRANCH   1   4
BRANCH   1  16
ATOM     16  C   UNL     1      47.548   4.534  16.084  0.00  0.00    +0.000 C 
BRANCH  16  21
ATOM     17  C   UNL     1      45.285   4.702  11.496  0.00  0.00    +0.000 A 
ATOM     18  C   UNL     1      45.995   5.684  12.173  0.00  0.00    +0.000 A 
ATOM     19  C   UNL     1      46.664   5.353  13.355  0.00  0.00    +0.000 A 
ATOM     20  C   UNL     1      46.612   4.049  13.838  0.00  0.00    +0.000 A 
ATOM     21  N   UNL     1      47.337   3.634  14.938  0.00  0.00    +0.000 N 
ATOM     22  N   UNL     1      45.905   3.094  13.204  0.00  0.00    +0.000 NA
ATOM     23  C   UNL     1      45.249   3.435  12.059  0.00  0.00    +0.000 A 
ATOM     24  H   UNL     1      47.082   2.675  15.170  0.00  0.00    +0.000 HD
BRANCH  17  26
ATOM     25  N   UNL     1      45.346   5.216   9.125  0.00  0.00    +0.000 N 
ATOM     26  C   UNL     1      44.575   4.965  10.227  0.00  0.00    +0.000 C 
ATOM     27  O   UNL     1      43.354   4.930  10.155  0.00  0.00    +0.000 OA
ATOM     28  H   UNL     1      44.857   5.299   8.240  0.00  0.00    +0.000 HD
ATOM     29  H   UNL     1      46.332   5.006   9.089  0.00  0.00    +0.000 HD
ENDBRANCH  17  26
ENDBRANCH  16  21
ENDBRANCH   1  16
TORSDOF 5
ENDMDL
MODEL 6
REMARK VINA RESULT:    -6.649      6.418      8.164
REMARK INTER + INTRA:          -9.653
REMARK INTER:                  -8.873
REMARK INTRA:                  -0.779
REMARK UNBOUND:                -1.060
REMARK  Name = 
REMARK  5 active torsions:
REMARK  status: ('A' for Active; 'I' for Inactive)
REMARK    1  A    between atoms: C_2  and  C_4
REMARK    2  A    between atoms: N_8  and  C_9
REMARK    3  A    between atoms: C_9  and  C_10
REMARK    4  A    between atoms: C_10  and  C_13
REMARK    5  A    between atoms: C_16  and  N_17
REMARK                            x       y       z     vdW  Elec       q    Type
REMARK                         _______ _______ _______ _____ _____    ______ ____
ROOT
ATOM      1  C   UNL     1      47.776   3.926  17.224  0.00  0.00    +0.000 C 
ATOM      2  F   UNL     1      47.377   4.688  18.288  0.00  0.00    +0.000 F 
ATOM      3  F   UNL     1      46.880   2.895  17.167  0.00  0.00    +0.000 F 
ENDROOT
BRANCH   1   4
ATOM      4  C   UNL     1      49.196   3.417  17.393  0.00  0.00    +0.000 A 
ATOM      5  C   UNL     1      49.564   2.143  16.955  0.00  0.00    +0.000 A 
ATOM      6  C   UNL     1      50.887   1.696  17.088  0.00  0.00    +0.000 A 
ATOM      7  C   UNL     1      51.890   2.490  17.665  0.00  0.00    +0.000 A 
ATOM      8  C   UNL     1      51.498   3.762  18.107  0.00  0.00    +0.000 A 
ATOM      9  C   UNL     1      50.182   4.220  17.979  0.00  0.00    +0.000 A 
BRANCH   7  10
ATOM     10  N   UNL     1      53.200   2.057  17.769  0.00  0.00    +0.000 N 
ATOM     11  C   UNL     1      53.617   0.721  17.342  0.00  0.00    +0.000 C 
ATOM     12  C   UNL     1      54.080  -0.088  18.551  0.00  0.00    +0.000 C 
ATOM     13  C   UNL     1      55.170   0.657  19.322  0.00  0.00    +0.000 C 
ATOM     14  C   UNL     1      54.713   2.069  19.692  0.00  0.00    +0.000 C 
ATOM     15  C   UNL     1      54.214   2.847  18.472  0.00  0.00    +0.000 C 
ENDBRANCH   7  10
ENDBRANCH   1   4
BRANCH   1  16
ATOM     16  C   UNL     1      47.630   4.784  15.938  0.00  0.00    +0.000 C 
BRANCH  16  21
ATOM     17  C   UNL     1      44.393   5.422  12.025  0.00  0.00    +0.000 A 
ATOM     18  C   UNL     1      45.257   6.331  12.621  0.00  0.00    +0.000 A 
ATOM     19  C   UNL     1      46.168   5.881  13.579  0.00  0.00    +0.000 A 
ATOM     20  C   UNL     1      46.202   4.533  13.925  0.00  0.00    +0.000 A 
ATOM     21  N   UNL     1      47.148   4.008  14.783  0.00  0.00    +0.000 N 
ATOM     22  N   UNL     1      45.351   3.647  13.372  0.00  0.00    +0.000 NA
ATOM     23  C   UNL     1      44.460   4.103  12.448  0.00  0.00    +0.000 A 
ATOM     24  H   UNL     1      46.933   3.029  14.967  0.00  0.00    +0.000 HD
BRANCH  17  26
ATOM     25  N   UNL     1      42.851   7.052  11.100  0.00  0.00    +0.000 N 
ATOM     26  C   UNL     1      43.420   5.813  10.984  0.00  0.00    +0.000 C 
ATOM     27  O   UNL     1      43.155   5.076  10.043  0.00  0.00    +0.000 OA
ATOM     28  H   UNL     1      42.260   7.351  10.333  0.00  0.00    +0.000 HD
ATOM     29  H   UNL     1      43.224   7.770  11.703  0.00  0.00    +0.000 HD
ENDBRANCH  17  26
ENDBRANCH  16  21
ENDBRANCH   1  16
TORSDOF 5
ENDMDL
MODEL 7
REMARK VINA RESULT:    -6.452      6.267      7.623
REMARK INTER + INTRA:          -9.398
REMARK INTER:                  -8.704
REMARK INTRA:                  -0.694
REMARK UNBOUND:                -1.060
REMARK  Name = 
REMARK  5 active torsions:
REMARK  status: ('A' for Active; 'I' for Inactive)
REMARK    1  A    between atoms: C_2  and  C_4
REMARK    2  A    between atoms: N_8  and  C_9
REMARK    3  A    between atoms: C_9  and  C_10
REMARK    4  A    between atoms: C_10  and  C_13
REMARK    5  A    between atoms: C_16  and  N_17
REMARK                            x       y       z     vdW  Elec       q    Type
REMARK                         _______ _______ _______ _____ _____    ______ ____
ROOT
ATOM      1  C   UNL     1      48.128   2.872  16.950  0.00  0.00    +0.000 C 
ATOM      2  F   UNL     1      47.074   2.425  17.698  0.00  0.00    +0.000 F 
ATOM      3  F   UNL     1      48.593   1.768  16.291  0.00  0.00    +0.000 F 
ENDROOT
BRANCH   1   4
ATOM      4  C   UNL     1      49.209   3.498  17.812  0.00  0.00    +0.000 A 
ATOM      5  C   UNL     1      50.562   3.320  17.517  0.00  0.00    +0.000 A 
ATOM      6  C   UNL     1      51.552   3.930  18.303  0.00  0.00    +0.000 A 
ATOM      7  C   UNL     1      51.237   4.730  19.412  0.00  0.00    +0.000 A 
ATOM      8  C   UNL     1      49.873   4.888  19.698  0.00  0.00    +0.000 A 
ATOM      9  C   UNL     1      48.876   4.286  18.921  0.00  0.00    +0.000 A 
BRANCH   7  10
ATOM     10  N   UNL     1      52.214   5.353  20.169  0.00  0.00    +0.000 N 
ATOM     11  C   UNL     1      52.316   6.810  20.265  0.00  0.00    +0.000 C 
ATOM     12  C   UNL     1      53.619   7.281  19.624  0.00  0.00    +0.000 C 
ATOM     13  C   UNL     1      54.821   6.559  20.235  0.00  0.00    +0.000 C 
ATOM     14  C   UNL     1      54.641   5.042  20.169  0.00  0.00    +0.000 C 
ATOM     15  C   UNL     1      53.310   4.596  20.779  0.00  0.00    +0.000 C 
ENDBRANCH   7  10
ENDBRANCH   1   4
BRANCH   1  16
ATOM     16  C   UNL     1      47.581   3.881  15.904  0.00  0.00    +0.000 C 
BRANCH  16  21
ATOM     17  C   UNL     1      44.678   4.681  11.765  0.00  0.00    +0.000 A 
ATOM     18  C   UNL     1      45.267   5.595  12.628  0.00  0.00    +0.000 A 
ATOM     19  C   UNL     1      46.156   5.140  13.605  0.00  0.00    +0.000 A 
ATOM     20  C   UNL     1      46.441   3.781  13.704  0.00  0.00    +0.000 A 
ATOM     21  N   UNL     1      47.390   3.281  14.574  0.00  0.00    +0.000 N 
ATOM     22  N   UNL     1      45.856   2.882  12.889  0.00  0.00    +0.000 NA
ATOM     23  C   UNL     1      44.982   3.340  11.949  0.00  0.00    +0.000 A 
ATOM     24  H   UNL     1      47.371   2.262  14.547  0.00  0.00    +0.000 HD
BRANCH  17  26
ATOM     25  N   UNL     1      44.087   4.728   9.412  0.00  0.00    +0.000 N 
ATOM     26  C   UNL     1      43.749   5.085  10.689  0.00  0.00    +0.000 C 
ATOM     27  O   UNL     1      42.711   5.685  10.929  0.00  0.00    +0.000 OA
ATOM     28  H   UNL     1      43.400   4.922   8.692  0.00  0.00    +0.000 HD
ATOM     29  H   UNL     1      44.786   4.029   9.207  0.00  0.00    +0.000 HD
ENDBRANCH  17  26
ENDBRANCH  16  21
ENDBRANCH   1  16
TORSDOF 5
ENDMDL
