MODEL 1
REMARK VINA RESULT:    -6.896      0.000      0.000
REMARK INTER + INTRA:          -9.097
REMARK INTER:                  -8.710
REMARK INTRA:                  -0.387
REMARK UNBOUND:                -0.387
REMARK  Name = 
REMARK  5 active torsions:
REMARK  status: ('A' for Active; 'I' for Inactive)
REMARK    1  A    between atoms: N_1  and  C_2
REMARK    2  A    between atoms: C_2  and  C_3
REMARK    3  A    between atoms: N_6  and  C_7
REMARK    4  A    between atoms: C_7  and  C_8
REMARK    5  A    between atoms: C_14  and  C_15
REMARK                            x       y       z     vdW  Elec       q    Type
REMARK                         _______ _______ _______ _____ _____    ______ ____
ROOT
ATOM      1  C   UNL     1      44.082   5.494  11.377  0.00  0.00    +0.000 A 
ATOM      2  C   UNL     1      43.161   4.845  12.184  0.00  0.00    +0.000 A 
ATOM      3  N   UNL     1      43.014   3.559  11.731  0.00  0.00    +0.000 N 
ATOM      4  C   UNL     1      43.828   3.354  10.653  0.00  0.00    +0.000 A 
ATOM      5  N   UNL     1      43.888   2.205   9.951  0.00  0.00    +0.000 NA
ATOM      6  C   UNL     1      44.758   2.272   8.911  0.00  0.00    +0.000 A 
ATOM      7  C   UNL     1      45.544   3.371   8.574  0.00  0.00    +0.000 A 
ATOM      8  C   UNL     1      45.466   4.523   9.364  0.00  0.00    +0.000 A 
ATOM      9  C   UNL     1      44.543   4.525  10.426  0.00  0.00    +0.000 A 
ATOM     10  H   UNL     1      42.390   2.859  12.105  0.00  0.00    +0.000 HD
ENDROOT
BRANCH   7  11
ATOM     11  C   UNL     1      46.421   3.278   7.386  0.00  0.00    +0.000 C 
ATOM     12  N   UNL     1      47.200   2.160   7.261  0.00  0.00    +0.000 N 
ATOM     13  O   UNL     1      46.484   4.181   6.563  0.00  0.00    +0.000 OA
ATOM     14  H   UNL     1      47.364   1.515   8.022  0.00  0.00    +0.000 HD
ATOM     15  H   UNL     1      47.880   2.171   6.510  0.00  0.00    +0.000 HD
ENDBRANCH   7  11
BRANCH   1  16
ATOM     16  C   UNL     1      44.491   6.935  11.446  0.00  0.00    +0.000 C 
BRANCH  16  20
ATOM     17  C   UNL     1      48.165   7.860  13.613  0.00  0.00    +0.000 C 
ATOM     18  C   UNL     1      47.682   6.417  13.396  0.00  0.00    +0.000 C 
ATOM     19  C   UNL     1      46.667   6.305  12.256  0.00  0.00    +0.000 C 
ATOM     20  N   UNL     1      45.494   7.156  12.508  0.00  0.00    +0.000 NA
ATOM     21  C   UNL     1      45.900   8.569  12.623  0.00  0.00    +0.000 C 
ATOM     22  C   UNL     1      46.940   8.782  13.728  0.00  0.00    +0.000 C 
BRANCH  17  23
ATOM     23  C   UNL     1      49.163   8.269  12.513  0.00  0.00    +0.000 C 
BRANCH  23  24
ATOM     24  N   UNL     1      50.241   7.301  12.344  0.00  0.00    +0.000 NA
ATOM     25  H   UNL     1      50.568   7.325  11.378  0.00  0.00    +0.000 HD
ATOM     26  H   UNL     1      49.880   6.359  12.493  0.00  0.00    +0.000 HD
ENDBRANCH  23  24
ENDBRANCH  17  23
ENDBRANCH  16  20
ENDBRANCH   1  16
TORSDOF 5
ENDMDL
MODEL 2
REMARK VINA RESULT:    -6.552      1.713      2.119
REMARK INTER + INTRA:          -8.663
REMARK INTER:                  -8.179
REMARK INTRA:                  -0.484
REMARK UNBOUND:                -0.387
REMARK  Name = 
REMARK  5 active torsions:
REMARK  status: ('A' for Active; 'I' for Inactive)
REMARK    1  A    between atoms: N_1  and  C_2
REMARK    2  A    between atoms: C_2  and  C_3
REMARK    3  A    between atoms: N_6  and  C_7
REMARK    4  A    between atoms: C_7  and  C_8
REMARK    5  A    between atoms: C_14  and  C_15
REMARK                            x       y       z     vdW  Elec       q    Type
REMARK                         _______ _______ _______ _____ _____    ______ ____
ROOT
ATOM      1  C   UNL     1      44.716   4.352  10.047  0.00  0.00    +0.000 A 
ATOM      2  C   UNL     1      44.003   3.549  10.924  0.00  0.00    +0.000 A 
ATOM      3  N   UNL     1      44.180   2.239  10.557  0.00  0.00    +0.000 N 
ATOM      4  C   UNL     1      45.002   2.172   9.467  0.00  0.00    +0.000 A 
ATOM      5  N   UNL     1      45.340   1.030   8.837  0.00  0.00    +0.000 NA
ATOM      6  C   UNL     1      46.148   1.243   7.767  0.00  0.00    +0.000 A 
ATOM      7  C   UNL     1      46.623   2.479   7.336  0.00  0.00    +0.000 A 
ATOM      8  C   UNL     1      46.268   3.626   8.054  0.00  0.00    +0.000 A 
ATOM      9  C   UNL     1      45.392   3.468   9.144  0.00  0.00    +0.000 A 
ATOM     10  H   UNL     1      43.761   1.431  10.995  0.00  0.00    +0.000 HD
ENDROOT
BRANCH   7  11
ATOM     11  C   UNL     1      47.475   2.529   6.127  0.00  0.00    +0.000 C 
ATOM     12  N   UNL     1      47.220   3.516   5.214  0.00  0.00    +0.000 N 
ATOM     13  O   UNL     1      48.348   1.698   5.923  0.00  0.00    +0.000 OA
ATOM     14  H   UNL     1      46.370   4.063   5.218  0.00  0.00    +0.000 HD
ATOM     15  H   UNL     1      47.730   3.460   4.341  0.00  0.00    +0.000 HD
ENDBRANCH   7  11
BRANCH   1  16
ATOM     16  C   UNL     1      44.746   5.851  10.012  0.00  0.00    +0.000 C 
BRANCH  16  20
ATOM     17  C   UNL     1      46.748   8.214  13.088  0.00  0.00    +0.000 C 
ATOM     18  C   UNL     1      47.160   6.768  12.765  0.00  0.00    +0.000 C 
ATOM     19  C   UNL     1      46.661   6.309  11.393  0.00  0.00    +0.000 C 
ATOM     20  N   UNL     1      45.197   6.407  11.304  0.00  0.00    +0.000 NA
ATOM     21  C   UNL     1      44.762   7.801  11.507  0.00  0.00    +0.000 C 
ATOM     22  C   UNL     1      45.237   8.364  12.852  0.00  0.00    +0.000 C 
BRANCH  17  23
ATOM     23  C   UNL     1      47.613   9.213  12.296  0.00  0.00    +0.000 C 
BRANCH  23  24
ATOM     24  N   UNL     1      47.225  10.600  12.527  0.00  0.00    +0.000 NA
ATOM     25  H   UNL     1      46.255  10.731  12.241  0.00  0.00    +0.000 HD
ATOM     26  H   UNL     1      47.779  11.213  11.929  0.00  0.00    +0.000 HD
ENDBRANCH  23  24
ENDBRANCH  17  23
ENDBRANCH  16  20
ENDBRANCH   1  16
TORSDOF 5
ENDMDL
MODEL 3
REMARK VINA RESULT:    -6.541      3.211      4.582
REMARK INTER + INTRA:          -8.648
REMARK INTER:                  -8.311
REMARK INTRA:                  -0.337
REMARK UNBOUND:                -0.387
REMARK  Name = 
REMARK  5 active torsions:
REMARK  status: ('A' for Active; 'I' for Inactive)
REMARK    1  A    between atoms: N_1  and  C_2
REMARK    2  A    between atoms: C_2  and  C_3
REMARK    3  A    between atoms: N_6  and  C_7
REMARK    4  A    between atoms: C_7  and  C_8
REMARK    5  A    between atoms: C_14  and  C_15
REMARK                            x       y       z     vdW  Elec       q    Type
REMARK                         _______ _______ _______ _____ _____    ______ ____
ROOT
ATOM      1  C   UNL     1      46.520   6.663  13.052  0.00  0.00    +0.000 A 
ATOM      2  C   UNL     1      46.109   7.987  13.025  0.00  0.00    +0.000 A 
ATOM      3  N   UNL     1      44.891   8.052  12.399  0.00  0.00    +0.000 N 
ATOM      4  C   UNL     1      44.495   6.798  12.027  0.00  0.00    +0.000 A 
ATOM      5  N   UNL     1      43.360   6.525  11.354  0.00  0.00    +0.000 NA
ATOM      6  C   UNL     1      43.216   5.202  11.086  0.00  0.00    +0.000 A 
ATOM      7  C   UNL     1      44.099   4.192  11.461  0.00  0.00    +0.000 A 
ATOM      8  C   UNL     1      45.242   4.533  12.193  0.00  0.00    +0.000 A 
ATOM      9  C   UNL     1      45.465   5.898  12.455  0.00  0.00    +0.000 A 
ATOM     10  H   UNL     1      44.358   8.888  12.209  0.00  0.00    +0.000 HD
ENDROOT
BRANCH   7  11
ATOM     11  C   UNL     1      43.797   2.801  11.058  0.00  0.00    +0.000 C 
ATOM     12  N   UNL     1      44.491   2.285   9.997  0.00  0.00    +0.000 N 
ATOM     13  O   UNL     1      42.932   2.144  11.620  0.00  0.00    +0.000 OA
ATOM     14  H   UNL     1      45.027   2.857   9.359  0.00  0.00    +0.000 HD
ATOM     15  H   UNL     1      44.185   1.380   9.661  0.00  0.00    +0.000 HD
ENDBRANCH   7  11
BRANCH   1  16
ATOM     16  C   UNL     1      47.827   6.129  13.561  0.00  0.00    +0.000 C 
BRANCH  16  20
ATOM     17  C   UNL     1      48.413   3.882  17.257  0.00  0.00    +0.000 C 
ATOM     18  C   UNL     1      47.319   3.518  16.239  0.00  0.00    +0.000 C 
ATOM     19  C   UNL     1      47.584   4.117  14.856  0.00  0.00    +0.000 C 
ATOM     20  N   UNL     1      47.685   5.582  14.926  0.00  0.00    +0.000 NA
ATOM     21  C   UNL     1      48.792   5.979  15.816  0.00  0.00    +0.000 C 
ATOM     22  C   UNL     1      48.631   5.404  17.227  0.00  0.00    +0.000 C 
BRANCH  17  23
ATOM     23  C   UNL     1      49.688   3.057  17.001  0.00  0.00    +0.000 C 
BRANCH  23  24
ATOM     24  N   UNL     1      49.424   1.830  16.256  0.00  0.00    +0.000 NA
ATOM     25  H   UNL     1      49.844   1.901  15.330  0.00  0.00    +0.000 HD
ATOM     26  H   UNL     1      48.420   1.734  16.102  0.00  0.00    +0.000 HD
ENDBRANCH  23  24
ENDBRANCH  17  23
ENDBRANCH  16  20
ENDBRANCH   1  16
TORSDOF 5
ENDMDL
MODEL 4
REMARK VINA RESULT:    -6.174      4.284      5.683
REMARK INTER + INTRA:          -8.185
REMARK INTER:                  -8.092
REMARK INTRA:                  -0.093
REMARK UNBOUND:                -0.387
REMARK  Name = 
REMARK  5 active torsions:
REMARK  status: ('A' for Active; 'I' for Inactive)
REMARK    1  A    between atoms: N_1  and  C_2
REMARK    2  A    between atoms: C_2  and  C_3
REMARK    3  A    between atoms: N_6  and  C_7
REMARK    4  A    between atoms: C_7  and  C_8
REMARK    5  A    between atoms: C_14  and  C_15
REMARK                            x       y       z     vdW  Elec       q    Type
REMARK                         _______ _______ _______ _____ _____    ______ ____
ROOT
ATOM      1  C   UNL     1      46.847   4.778  13.912  0.00  0.00    +0.000 A 
ATOM      2  C   UNL     1      46.764   3.405  13.735  0.00  0.00    +0.000 A 
ATOM      3  N   UNL     1      45.826   3.146  12.768  0.00  0.00    +0.000 N 
ATOM      4  C   UNL     1      45.306   4.321  12.304  0.00  0.00    +0.000 A 
ATOM      5  N   UNL     1      44.331   4.410  11.378  0.00  0.00    +0.000 NA
ATOM      6  C   UNL     1      43.977   5.693  11.113  0.00  0.00    +0.000 A 
ATOM      7  C   UNL     1      44.539   6.831  11.687  0.00  0.00    +0.000 A 
ATOM      8  C   UNL     1      45.574   6.676  12.615  0.00  0.00    +0.000 A 
ATOM      9  C   UNL     1      45.948   5.365  12.963  0.00  0.00    +0.000 A 
ATOM     10  H   UNL     1      45.532   2.236  12.446  0.00  0.00    +0.000 HD
ENDROOT
BRANCH   7  11
ATOM     11  C   UNL     1      44.008   8.156  11.300  0.00  0.00    +0.000 C 
ATOM     12  N   UNL     1      42.699   8.223  10.906  0.00  0.00    +0.000 N 
ATOM     13  O   UNL     1      44.717   9.153  11.289  0.00  0.00    +0.000 OA
ATOM     14  H   UNL     1      42.154   7.407  10.667  0.00  0.00    +0.000 HD
ATOM     15  H   UNL     1      42.391   9.111  10.530  0.00  0.00    +0.000 HD
ENDBRANCH   7  11
BRANCH   1  16
ATOM     16  C   UNL     1      47.677   5.513  14.922  0.00  0.00    +0.000 C 
BRANCH  16  20
ATOM     17  C   UNL     1      49.009   3.678  18.652  0.00  0.00    +0.000 C 
ATOM     18  C   UNL     1      49.990   4.317  17.656  0.00  0.00    +0.000 C 
ATOM     19  C   UNL     1      49.297   5.276  16.685  0.00  0.00    +0.000 C 
ATOM     20  N   UNL     1      48.244   4.587  15.925  0.00  0.00    +0.000 NA
ATOM     21  C   UNL     1      47.223   4.042  16.838  0.00  0.00    +0.000 C 
ATOM     22  C   UNL     1      47.825   3.084  17.871  0.00  0.00    +0.000 C 
BRANCH  17  23
ATOM     23  C   UNL     1      48.604   4.691  19.739  0.00  0.00    +0.000 C 
BRANCH  23  24
ATOM     24  N   UNL     1      48.406   4.067  21.043  0.00  0.00    +0.000 NA
ATOM     25  H   UNL     1      49.259   4.159  21.594  0.00  0.00    +0.000 HD
ATOM     26  H   UNL     1      48.257   3.065  20.923  0.00  0.00    +0.000 HD
ENDBRANCH  23  24
ENDBRANCH  17  23
ENDBRANCH  16  20
ENDBRANCH   1  16
TORSDOF 5
ENDMDL
MODEL 5
REMARK VINA RESULT:    -6.026      3.976      7.551
REMARK INTER + INTRA:          -7.998
REMARK INTER:                  -7.500
REMARK INTRA:                  -0.497
REMARK UNBOUND:                -0.387
REMARK  Name = 
REMARK  5 active torsions:
REMARK  status: ('A' for Active; 'I' for Inactive)
REMARK    1  A    between atoms: N_1  and  C_2
REMARK    2  A    between atoms: C_2  and  C_3
REMARK    3  A    between atoms: N_6  and  C_7
REMARK    4  A    between atoms: C_7  and  C_8
REMARK    5  A    between atoms: C_14  and  C_15
REMARK                            x       y       z     vdW  Elec       q    Type
REMARK                         _______ _______ _______ _____ _____    ______ ____
ROOT
ATOM      1  C   UNL     1      48.259   6.747  14.026  0.00  0.00    +0.000 A 
ATOM      2  C   UNL     1      48.815   8.010  14.160  0.00  0.00    +0.000 A 
ATOM      3  N   UNL     1      49.136   8.206  15.479  0.00  0.00    +0.000 N 
ATOM      4  C   UNL     1      48.811   7.095  16.204  0.00  0.00    +0.000 A 
ATOM      5  N   UNL     1      48.964   6.983  17.538  0.00  0.00    +0.000 NA
ATOM      6  C   UNL     1      48.540   5.785  18.015  0.00  0.00    +0.000 A 
ATOM      7  C   UNL     1      48.018   4.742  17.254  0.00  0.00    +0.000 A 
ATOM      8  C   UNL     1      47.919   4.903  15.867  0.00  0.00    +0.000 A 
ATOM      9  C   UNL     1      48.300   6.144  15.326  0.00  0.00    +0.000 A 
ATOM     10  H   UNL     1      49.533   9.043  15.882  0.00  0.00    +0.000 HD
ENDROOT
BRANCH   7  11
ATOM     11  C   UNL     1      47.577   3.511  17.946  0.00  0.00    +0.000 C 
ATOM     12  N   UNL     1      48.269   3.131  19.064  0.00  0.00    +0.000 N 
ATOM     13  O   UNL     1      46.656   2.829  17.518  0.00  0.00    +0.000 OA
ATOM     14  H   UNL     1      49.171   3.516  19.310  0.00  0.00    +0.000 HD
ATOM     15  H   UNL     1      48.032   2.226  19.450  0.00  0.00    +0.000 HD
ENDBRANCH   7  11
BRANCH   1  16
ATOM     16  C   UNL     1      47.683   6.137  12.782  0.00  0.00    +0.000 C 
BRANCH  16  20
ATOM     17  C   UNL     1      43.451   5.568  11.879  0.00  0.00    +0.000 C 
ATOM     18  C   UNL     1      44.242   6.784  11.371  0.00  0.00    +0.000 C 
ATOM     19  C   UNL     1      45.755   6.555  11.406  0.00  0.00    +0.000 C 
ATOM     20  N   UNL     1      46.210   6.239  12.769  0.00  0.00    +0.000 NA
ATOM     21  C   UNL     1      45.549   5.016  13.260  0.00  0.00    +0.000 C 
ATOM     22  C   UNL     1      44.022   5.138  13.240  0.00  0.00    +0.000 C 
BRANCH  17  23
ATOM     23  C   UNL     1      43.436   4.450  10.819  0.00  0.00    +0.000 C 
BRANCH  23  24
ATOM     24  N   UNL     1      42.974   3.174  11.354  0.00  0.00    +0.000 NA
ATOM     25  H   UNL     1      43.364   3.037  12.286  0.00  0.00    +0.000 HD
ATOM     26  H   UNL     1      43.340   2.412  10.782  0.00  0.00    +0.000 HD
ENDBRANCH  23  24
ENDBRANCH  17  23
ENDBRANCH  16  20
ENDBRANCH   1  16
TORSDOF 5
ENDMDL
MODEL 6
REMARK VINA RESULT:    -5.984      2.259      6.061
REMARK INTER + INTRA:          -7.945
REMARK INTER:                  -7.441
REMARK INTRA:                  -0.504
REMARK UNBOUND:                -0.387
REMARK  Name = 
REMARK  5 active torsions:
REMARK  status: ('A' for Active; 'I' for Inactive)
REMARK    1  A    between atoms: N_1  and  C_2
REMARK    2  A    between atoms: C_2  and  C_3
REMARK    3  A    between atoms: N_6  and  C_7
REMARK    4  A    between atoms: C_7  and  C_8
REMARK    5  A    between atoms: C_14  and  C_15
REMARK                            x       y       z     vdW  Elec       q    Type
REMARK                         _______ _______ _______ _____ _____    ______ ____
ROOT
ATOM      1  C   UNL     1      44.101   3.324  10.690  0.00  0.00    +0.000 A 
ATOM      2  C   UNL     1      43.450   2.521  11.613  0.00  0.00    +0.000 A 
ATOM      3  N   UNL     1      43.723   2.995  12.871  0.00  0.00    +0.000 N 
ATOM      4  C   UNL     1      44.529   4.095  12.785  0.00  0.00    +0.000 A 
ATOM      5  N   UNL     1      45.011   4.771  13.846  0.00  0.00    +0.000 NA
ATOM      6  C   UNL     1      45.808   5.810  13.487  0.00  0.00    +0.000 A 
ATOM      7  C   UNL     1      46.110   6.194  12.182  0.00  0.00    +0.000 A 
ATOM      8  C   UNL     1      45.547   5.475  11.121  0.00  0.00    +0.000 A 
ATOM      9  C   UNL     1      44.753   4.358  11.438  0.00  0.00    +0.000 A 
ATOM     10  H   UNL     1      43.408   2.597  13.744  0.00  0.00    +0.000 HD
ENDROOT
BRANCH   7  11
ATOM     11  C   UNL     1      47.023   7.338  11.973  0.00  0.00    +0.000 C 
ATOM     12  N   UNL     1      46.491   8.596  12.059  0.00  0.00    +0.000 N 
ATOM     13  O   UNL     1      48.202   7.176  11.693  0.00  0.00    +0.000 OA
ATOM     14  H   UNL     1      45.496   8.775  12.044  0.00  0.00    +0.000 HD
ATOM     15  H   UNL     1      47.101   9.359  11.793  0.00  0.00    +0.000 HD
ENDBRANCH   7  11
BRANCH   1  16
ATOM     16  C   UNL     1      44.157   3.133   9.203  0.00  0.00    +0.000 C 
BRANCH  16  20
ATOM     17  C   UNL     1      47.692   2.336   6.771  0.00  0.00    +0.000 C 
ATOM     18  C   UNL     1      47.151   1.320   7.791  0.00  0.00    +0.000 C 
ATOM     19  C   UNL     1      45.696   1.596   8.177  0.00  0.00    +0.000 C 
ATOM     20  N   UNL     1      45.547   2.947   8.739  0.00  0.00    +0.000 NA
ATOM     21  C   UNL     1      45.960   3.962   7.754  0.00  0.00    +0.000 C 
ATOM     22  C   UNL     1      47.404   3.756   7.283  0.00  0.00    +0.000 C 
BRANCH  17  23
ATOM     23  C   UNL     1      47.129   2.045   5.366  0.00  0.00    +0.000 C 
BRANCH  23  24
ATOM     24  N   UNL     1      48.144   2.141   4.322  0.00  0.00    +0.000 NA
ATOM     25  H   UNL     1      48.974   1.625   4.610  0.00  0.00    +0.000 HD
ATOM     26  H   UNL     1      48.439   3.112   4.222  0.00  0.00    +0.000 HD
ENDBRANCH  23  24
ENDBRANCH  17  23
ENDBRANCH  16  20
ENDBRANCH   1  16
TORSDOF 5
ENDMDL
MODEL 7
REMARK VINA RESULT:    -5.794      2.791      6.766
REMARK INTER + INTRA:          -7.705
REMARK INTER:                  -7.259
REMARK INTRA:                  -0.446
REMARK UNBOUND:                -0.387
REMARK  Name = 
REMARK  5 active torsions:
REMARK  status: ('A' for Active; 'I' for Inactive)
REMARK    1  A    between atoms: N_1  and  C_2
REMARK    2  A    between atoms: C_2  and  C_3
REMARK    3  A    between atoms: N_6  and  C_7
REMARK    4  A    between atoms: C_7  and  C_8
REMARK    5  A    between atoms: C_14  and  C_15
REMARK                            x       y       z     vdW  Elec       q    Type
REMARK                         _______ _______ _______ _____ _____    ______ ____
ROOT
ATOM      1  C   UNL     1      47.104   7.770  12.578  0.00  0.00    +0.000 A 
ATOM      2  C   UNL     1      46.287   8.870  12.790  0.00  0.00    +0.000 A 
ATOM      3  N   UNL     1      46.994  10.004  12.486  0.00  0.00    +0.000 N 
ATOM      4  C   UNL     1      48.251   9.666  12.069  0.00  0.00    +0.000 A 
ATOM      5  N   UNL     1      49.207  10.555  11.734  0.00  0.00    +0.000 NA
ATOM      6  C   UNL     1      50.374   9.958  11.380  0.00  0.00    +0.000 A 
ATOM      7  C   UNL     1      50.607   8.586  11.327  0.00  0.00    +0.000 A 
ATOM      8  C   UNL     1      49.562   7.713  11.649  0.00  0.00    +0.000 A 
ATOM      9  C   UNL     1      48.345   8.279  12.071  0.00  0.00    +0.000 A 
ATOM     10  H   UNL     1      46.667  10.956  12.569  0.00  0.00    +0.000 HD
ENDROOT
BRANCH   7  11
ATOM     11  C   UNL     1      51.954   8.110  10.945  0.00  0.00    +0.000 C 
ATOM     12  N   UNL     1      52.823   7.793  11.954  0.00  0.00    +0.000 N 
ATOM     13  O   UNL     1      52.301   8.038   9.774  0.00  0.00    +0.000 OA
ATOM     14  H   UNL     1      52.672   8.064  12.916  0.00  0.00    +0.000 HD
ATOM     15  H   UNL     1      53.774   7.588  11.676  0.00  0.00    +0.000 HD
ENDBRANCH   7  11
BRANCH   1  16
ATOM     16  C   UNL     1      46.781   6.333  12.860  0.00  0.00    +0.000 C 
BRANCH  16  20
ATOM     17  C   UNL     1      43.185   4.321  11.421  0.00  0.00    +0.000 C 
ATOM     18  C   UNL     1      43.900   5.409  10.603  0.00  0.00    +0.000 C 
ATOM     19  C   UNL     1      45.342   5.635  11.064  0.00  0.00    +0.000 C 
ATOM     20  N   UNL     1      45.389   6.013  12.484  0.00  0.00    +0.000 NA
ATOM     21  C   UNL     1      44.803   4.949  13.319  0.00  0.00    +0.000 C 
ATOM     22  C   UNL     1      43.359   4.630  12.917  0.00  0.00    +0.000 C 
BRANCH  17  23
ATOM     23  C   UNL     1      43.674   2.921  11.005  0.00  0.00    +0.000 C 
BRANCH  23  24
ATOM     24  N   UNL     1      42.989   1.849  11.720  0.00  0.00    +0.000 NA
ATOM     25  H   UNL     1      42.248   1.471  11.131  0.00  0.00    +0.000 HD
ATOM     26  H   UNL     1      42.524   2.232  12.543  0.00  0.00    +0.000 HD
ENDBRANCH  23  24
ENDBRANCH  17  23
ENDBRANCH  16  20
ENDBRANCH   1  16
TORSDOF 5
ENDMDL
MODEL 8
REMARK VINA RESULT:    -5.763      2.440      3.914
REMARK INTER + INTRA:          -7.666
REMARK INTER:                  -7.243
REMARK INTRA:                  -0.423
REMARK UNBOUND:                -0.387
REMARK  Name = 
REMARK  5 active torsions:
REMARK  status: ('A' for Active; 'I' for Inactive)
REMARK    1  A    between atoms: N_1  and  C_2
REMARK    2  A    between atoms: C_2  and  C_3
REMARK    3  A    between atoms: N_6  and  C_7
REMARK    4  A    between atoms: C_7  and  C_8
REMARK    5  A    between atoms: C_14  and  C_15
REMARK                            x       y       z     vdW  Elec       q    Type
REMARK                         _______ _______ _______ _____ _____    ______ ____
ROOT
ATOM      1  C   UNL     1      46.500   6.967  12.314  0.00  0.00    +0.000 A 
ATOM      2  C   UNL     1      45.969   8.248  12.340  0.00  0.00    +0.000 A 
ATOM      3  N   UNL     1      44.648   8.180  11.978  0.00  0.00    +0.000 N 
ATOM      4  C   UNL     1      44.305   6.881  11.728  0.00  0.00    +0.000 A 
ATOM      5  N   UNL     1      43.087   6.482  11.311  0.00  0.00    +0.000 NA
ATOM      6  C   UNL     1      43.016   5.141  11.110  0.00  0.00    +0.000 A 
ATOM      7  C   UNL     1      44.048   4.229  11.319  0.00  0.00    +0.000 A 
ATOM      8  C   UNL     1      45.279   4.700  11.790  0.00  0.00    +0.000 A 
ATOM      9  C   UNL     1      45.422   6.088  11.967  0.00  0.00    +0.000 A 
ATOM     10  H   UNL     1      44.011   8.957  11.883  0.00  0.00    +0.000 HD
ENDROOT
BRANCH   7  11
ATOM     11  C   UNL     1      43.803   2.801  11.021  0.00  0.00    +0.000 C 
ATOM     12  N   UNL     1      44.528   2.232  10.010  0.00  0.00    +0.000 N 
ATOM     13  O   UNL     1      42.956   2.156  11.623  0.00  0.00    +0.000 OA
ATOM     14  H   UNL     1      45.051   2.773   9.335  0.00  0.00    +0.000 HD
ATOM     15  H   UNL     1      44.261   1.293   9.741  0.00  0.00    +0.000 HD
ENDBRANCH   7  11
BRANCH   1  16
ATOM     16  C   UNL     1      47.927   6.572  12.555  0.00  0.00    +0.000 C 
BRANCH  16  20
ATOM     17  C   UNL     1      50.482   8.078  15.756  0.00  0.00    +0.000 C 
ATOM     18  C   UNL     1      49.047   7.591  16.012  0.00  0.00    +0.000 C 
ATOM     19  C   UNL     1      48.519   6.705  14.882  0.00  0.00    +0.000 C 
ATOM     20  N   UNL     1      48.547   7.417  13.596  0.00  0.00    +0.000 NA
ATOM     21  C   UNL     1      49.926   7.815  13.259  0.00  0.00    +0.000 C 
ATOM     22  C   UNL     1      50.555   8.691  14.348  0.00  0.00    +0.000 C 
BRANCH  17  23
ATOM     23  C   UNL     1      51.492   6.941  16.003  0.00  0.00    +0.000 C 
BRANCH  23  24
ATOM     24  N   UNL     1      52.751   7.142  15.293  0.00  0.00    +0.000 NA
ATOM     25  H   UNL     1      52.928   6.343  14.686  0.00  0.00    +0.000 HD
ATOM     26  H   UNL     1      53.520   7.161  15.963  0.00  0.00    +0.000 HD
ENDBRANCH  23  24
ENDBRANCH  17  23
ENDBRANCH  16  20
ENDBRANCH   1  16
TORSDOF 5
ENDMDL
MODEL 9
REMARK VINA RESULT:    -5.694      2.961      4.121
REMARK INTER + INTRA:          -7.578
REMARK INTER:                  -7.036
REMARK INTRA:                  -0.543
REMARK UNBOUND:                -0.387
REMARK  Name = 
REMARK  5 active torsions:
REMARK  status: ('A' for Active; 'I' for Inactive)
REMARK    1  A    between atoms: N_1  and  C_2
REMARK    2  A    between atoms: C_2  and  C_3
REMARK    3  A    between atoms: N_6  and  C_7
REMARK    4  A    between atoms: C_7  and  C_8
REMARK    5  A    between atoms: C_14  and  C_15
REMARK                            x       y       z     vdW  Elec       q    Type
REMARK                         _______ _______ _______ _____ _____    ______ ____
ROOT
ATOM      1  C   UNL     1      45.359   8.331  12.314  0.00  0.00    +0.000 A 
ATOM      2  C   UNL     1      44.508   9.159  11.597  0.00  0.00    +0.000 A 
ATOM      3  N   UNL     1      43.551   8.383  10.995  0.00  0.00    +0.000 N 
ATOM      4  C   UNL     1      43.754   7.069  11.314  0.00  0.00    +0.000 A 
ATOM      5  N   UNL     1      43.008   6.048  10.849  0.00  0.00    +0.000 NA
ATOM      6  C   UNL     1      43.436   4.841  11.298  0.00  0.00    +0.000 A 
ATOM      7  C   UNL     1      44.506   4.624  12.163  0.00  0.00    +0.000 A 
ATOM      8  C   UNL     1      45.219   5.728  12.643  0.00  0.00    +0.000 A 
ATOM      9  C   UNL     1      44.848   7.000  12.170  0.00  0.00    +0.000 A 
ATOM     10  H   UNL     1      42.812   8.705  10.388  0.00  0.00    +0.000 HD
ENDROOT
BRANCH   7  11
ATOM     11  C   UNL     1      44.852   3.233  12.528  0.00  0.00    +0.000 C 
ATOM     12  N   UNL     1      43.867   2.288  12.423  0.00  0.00    +0.000 N 
ATOM     13  O   UNL     1      45.961   2.936  12.948  0.00  0.00    +0.000 OA
ATOM     14  H   UNL     1      42.889   2.521  12.320  0.00  0.00    +0.000 HD
ATOM     15  H   UNL     1      44.087   1.371  12.792  0.00  0.00    +0.000 HD
ENDBRANCH   7  11
BRANCH   1  16
ATOM     16  C   UNL     1      46.598   8.732  13.059  0.00  0.00    +0.000 C 
BRANCH  16  20
ATOM     17  C   UNL     1      50.687   8.795  11.534  0.00  0.00    +0.000 C 
ATOM     18  C   UNL     1      49.742  10.001  11.400  0.00  0.00    +0.000 C 
ATOM     19  C   UNL     1      48.566   9.935  12.377  0.00  0.00    +0.000 C 
ATOM     20  N   UNL     1      47.784   8.705  12.179  0.00  0.00    +0.000 NA
ATOM     21  C   UNL     1      48.629   7.517  12.398  0.00  0.00    +0.000 C 
ATOM     22  C   UNL     1      49.854   7.504  11.478  0.00  0.00    +0.000 C 
BRANCH  17  23
ATOM     23  C   UNL     1      51.560   8.929  12.796  0.00  0.00    +0.000 C 
BRANCH  23  24
ATOM     24  N   UNL     1      52.225  10.225  12.885  0.00  0.00    +0.000 NA
ATOM     25  H   UNL     1      52.616  10.467  11.975  0.00  0.00    +0.000 HD
ATOM     26  H   UNL     1      53.019  10.158  13.522  0.00  0.00    +0.000 HD
ENDBRANCH  23  24
ENDBRANCH  17  23
ENDBRANCH  16  20
ENDBRANCH   1  16
TORSDOF 5
ENDMDL
