MODEL 1
REMARK VINA RESULT:    -8.961      0.000      0.000
REMARK INTER + INTRA:         -12.217
REMARK INTER:                 -11.057
REMARK INTRA:                  -1.160
REMARK UNBOUND:                -1.160
REMARK  Name = 
REMARK  4 active torsions:
REMARK  status: ('A' for Active; 'I' for Inactive)
REMARK    1  A    between atoms: C_2  and  C_4
REMARK    2  A    between atoms: N_8  and  C_9
REMARK    3  A    between atoms: C_9  and  C_10
REMARK    4  A    between atoms: C_14  and  C_15
REMARK                            x       y       z     vdW  Elec       q    Type
REMARK                         _______ _______ _______ _____ _____    ______ ____
ROOT
ATOM      1  C   UNL     1      43.805   4.900  11.354  0.00  0.00    +0.000 C 
ATOM      2  C   UNL     1      42.450   5.150  12.008  0.00  0.00    +0.000 C 
ATOM      3  C   UNL     1      42.997   6.143  11.037  0.00  0.00    +0.000 C 
ENDROOT
BRANCH   1   8
ATOM      4  C   UNL     1      46.578   2.749   7.508  0.00  0.00    +0.000 A 
ATOM      5  C   UNL     1      46.231   4.085   7.676  0.00  0.00    +0.000 A 
ATOM      6  C   UNL     1      45.349   4.436   8.698  0.00  0.00    +0.000 A 
ATOM      7  C   UNL     1      44.817   3.452   9.521  0.00  0.00    +0.000 A 
ATOM      8  N   UNL     1      43.839   3.705  10.488  0.00  0.00    +0.000 N 
ATOM      9  N   UNL     1      45.146   2.151   9.367  0.00  0.00    +0.000 NA
ATOM     10  C   UNL     1      46.008   1.825   8.369  0.00  0.00    +0.000 A 
ATOM     11  H   UNL     1      43.714   2.817  10.972  0.00  0.00    +0.000 HD
BRANCH   4  13
ATOM     12  N   UNL     1      47.414   2.931   5.236  0.00  0.00    +0.000 N 
ATOM     13  C   UNL     1      47.477   2.278   6.438  0.00  0.00    +0.000 C 
ATOM     14  O   UNL     1      48.265   1.364   6.620  0.00  0.00    +0.000 OA
ATOM     15  H   UNL     1      48.108   2.669   4.546  0.00  0.00    +0.000 HD
ATOM     16  H   UNL     1      46.974   3.833   5.130  0.00  0.00    +0.000 HD
ENDBRANCH   4  13
ENDBRANCH   1   8
BRANCH   1  17
ATOM     17  C   UNL     1      45.075   5.058  12.183  0.00  0.00    +0.000 A 
ATOM     18  C   UNL     1      45.546   4.038  13.022  0.00  0.00    +0.000 A 
ATOM     19  C   UNL     1      46.777   4.143  13.665  0.00  0.00    +0.000 A 
ATOM     20  C   UNL     1      47.575   5.270  13.467  0.00  0.00    +0.000 A 
ATOM     21  C   UNL     1      47.156   6.320  12.634  0.00  0.00    +0.000 A 
ATOM     22  C   UNL     1      45.888   6.201  12.034  0.00  0.00    +0.000 A 
BRANCH  21  23
ATOM     23  C   UNL     1      48.043   7.464  12.323  0.00  0.00    +0.000 A 
ATOM     24  C   UNL     1      49.421   7.278  12.140  0.00  0.00    +0.000 A 
ATOM     25  C   UNL     1      50.220   8.359  11.797  0.00  0.00    +0.000 A 
ATOM     26  N   UNL     1      49.751   9.609  11.616  0.00  0.00    +0.000 NA
ATOM     27  C   UNL     1      48.426   9.782  11.793  0.00  0.00    +0.000 A 
ATOM     28  C   UNL     1      47.550   8.763  12.145  0.00  0.00    +0.000 A 
ENDBRANCH  21  23
ENDBRANCH   1  17
TORSDOF 4
ENDMDL
MODEL 2
REMARK VINA RESULT:    -8.617      2.113      3.289
REMARK INTER + INTRA:         -11.791
REMARK INTER:                 -11.271
REMARK INTRA:                  -0.520
REMARK UNBOUND:                -1.160
REMARK  Name = 
REMARK  4 active torsions:
REMARK  status: ('A' for Active; 'I' for Inactive)
REMARK    1  A    between atoms: C_2  and  C_4
REMARK    2  A    between atoms: N_8  and  C_9
REMARK    3  A    between atoms: C_9  and  C_10
REMARK    4  A    between atoms: C_14  and  C_15
REMARK                            x       y       z     vdW  Elec       q    Type
REMARK                         _______ _______ _______ _____ _____    ______ ____
ROOT
ATOM      1  C   UNL     1      43.946   4.934  11.513  0.00  0.00    +0.000 C 
ATOM      2  C   UNL     1      42.794   4.975  12.511  0.00  0.00    +0.000 C 
ATOM      3  C   UNL     1      42.865   5.992  11.422  0.00  0.00    +0.000 C 
ENDROOT
BRANCH   1   8
ATOM      4  C   UNL     1      46.539   2.784   7.543  0.00  0.00    +0.000 A 
ATOM      5  C   UNL     1      46.150   4.110   7.700  0.00  0.00    +0.000 A 
ATOM      6  C   UNL     1      45.325   4.455   8.771  0.00  0.00    +0.000 A 
ATOM      7  C   UNL     1      44.891   3.475   9.653  0.00  0.00    +0.000 A 
ATOM      8  N   UNL     1      43.970   3.717  10.677  0.00  0.00    +0.000 N 
ATOM      9  N   UNL     1      45.262   2.184   9.510  0.00  0.00    +0.000 NA
ATOM     10  C   UNL     1      46.067   1.863   8.464  0.00  0.00    +0.000 A 
ATOM     11  H   UNL     1      43.915   2.839  11.192  0.00  0.00    +0.000 HD
BRANCH   4  13
ATOM     12  N   UNL     1      47.330   3.036   5.262  0.00  0.00    +0.000 N 
ATOM     13  C   UNL     1      47.383   2.318   6.427  0.00  0.00    +0.000 C 
ATOM     14  O   UNL     1      48.118   1.351   6.540  0.00  0.00    +0.000 OA
ATOM     15  H   UNL     1      47.991   2.770   4.541  0.00  0.00    +0.000 HD
ATOM     16  H   UNL     1      46.943   3.967   5.213  0.00  0.00    +0.000 HD
ENDBRANCH   4  13
ENDBRANCH   1   8
BRANCH   1  17
ATOM     17  C   UNL     1      45.339   5.364  11.962  0.00  0.00    +0.000 A 
ATOM     18  C   UNL     1      46.050   6.378  11.305  0.00  0.00    +0.000 A 
ATOM     19  C   UNL     1      47.258   6.855  11.808  0.00  0.00    +0.000 A 
ATOM     20  C   UNL     1      47.774   6.335  12.997  0.00  0.00    +0.000 A 
ATOM     21  C   UNL     1      47.101   5.322  13.699  0.00  0.00    +0.000 A 
ATOM     22  C   UNL     1      45.905   4.834  13.139  0.00  0.00    +0.000 A 
BRANCH  21  23
ATOM     23  C   UNL     1      47.577   4.847  15.018  0.00  0.00    +0.000 A 
ATOM     24  C   UNL     1      47.344   3.529  15.437  0.00  0.00    +0.000 A 
ATOM     25  C   UNL     1      47.847   3.096  16.655  0.00  0.00    +0.000 A 
ATOM     26  N   UNL     1      48.570   3.873  17.484  0.00  0.00    +0.000 NA
ATOM     27  C   UNL     1      48.791   5.139  17.077  0.00  0.00    +0.000 A 
ATOM     28  C   UNL     1      48.320   5.663  15.880  0.00  0.00    +0.000 A 
ENDBRANCH  21  23
ENDBRANCH   1  17
TORSDOF 4
ENDMDL
MODEL 3
REMARK VINA RESULT:    -6.578      4.340      8.258
REMARK INTER + INTRA:          -9.277
REMARK INTER:                  -8.258
REMARK INTRA:                  -1.019
REMARK UNBOUND:                -1.160
REMARK  Name = 
REMARK  4 active torsions:
REMARK  status: ('A' for Active; 'I' for Inactive)
REMARK    1  A    between atoms: C_2  and  C_4
REMARK    2  A    between atoms: N_8  and  C_9
REMARK    3  A    between atoms: C_9  and  C_10
REMARK    4  A    between atoms: C_14  and  C_15
REMARK                            x       y       z     vdW  Elec       q    Type
REMARK                         _______ _______ _______ _____ _____    ______ ____
ROOT
ATOM      1  C   UNL     1      49.054   7.951  12.654  0.00  0.00    +0.000 C 
ATOM      2  C   UNL     1      50.011   8.109  11.477  0.00  0.00    +0.000 C 
ATOM      3  C   UNL     1      49.718   9.281  12.354  0.00  0.00    +0.000 C 
ENDROOT
BRANCH   1   8
ATOM      4  C   UNL     1      48.432   6.821  17.698  0.00  0.00    +0.000 A 
ATOM      5  C   UNL     1      48.513   8.074  17.100  0.00  0.00    +0.000 A 
ATOM      6  C   UNL     1      48.835   8.162  15.746  0.00  0.00    +0.000 A 
ATOM      7  C   UNL     1      49.087   7.007  15.018  0.00  0.00    +0.000 A 
ATOM      8  N   UNL     1      49.531   7.017  13.692  0.00  0.00    +0.000 N 
ATOM      9  N   UNL     1      49.012   5.785  15.588  0.00  0.00    +0.000 NA
ATOM     10  C   UNL     1      48.695   5.714  16.907  0.00  0.00    +0.000 A 
ATOM     11  H   UNL     1      49.547   6.035  13.415  0.00  0.00    +0.000 HD
BRANCH   4  13
ATOM     12  N   UNL     1      47.198   5.674  19.445  0.00  0.00    +0.000 N 
ATOM     13  C   UNL     1      48.128   6.628  19.128  0.00  0.00    +0.000 C 
ATOM     14  O   UNL     1      48.698   7.268  19.996  0.00  0.00    +0.000 OA
ATOM     15  H   UNL     1      47.075   5.478  20.432  0.00  0.00    +0.000 HD
ATOM     16  H   UNL     1      46.902   4.963  18.793  0.00  0.00    +0.000 HD
ENDBRANCH   4  13
ENDBRANCH   1   8
BRANCH   1  17
ATOM     17  C   UNL     1      47.559   7.817  12.387  0.00  0.00    +0.000 A 
ATOM     18  C   UNL     1      46.670   8.882  12.592  0.00  0.00    +0.000 A 
ATOM     19  C   UNL     1      45.332   8.789  12.214  0.00  0.00    +0.000 A 
ATOM     20  C   UNL     1      44.859   7.628  11.601  0.00  0.00    +0.000 A 
ATOM     21  C   UNL     1      45.705   6.532  11.367  0.00  0.00    +0.000 A 
ATOM     22  C   UNL     1      47.040   6.644  11.801  0.00  0.00    +0.000 A 
BRANCH  21  23
ATOM     23  C   UNL     1      45.244   5.344  10.614  0.00  0.00    +0.000 A 
ATOM     24  C   UNL     1      45.614   5.151   9.275  0.00  0.00    +0.000 A 
ATOM     25  C   UNL     1      45.212   4.002   8.610  0.00  0.00    +0.000 A 
ATOM     26  N   UNL     1      44.476   3.028   9.178  0.00  0.00    +0.000 NA
ATOM     27  C   UNL     1      44.124   3.217  10.466  0.00  0.00    +0.000 A 
ATOM     28  C   UNL     1      44.472   4.338  11.209  0.00  0.00    +0.000 A 
ENDBRANCH  21  23
ENDBRANCH   1  17
TORSDOF 4
ENDMDL
MODEL 4
REMARK VINA RESULT:    -6.313      3.530      7.492
REMARK INTER + INTRA:          -8.949
REMARK INTER:                  -8.960
REMARK INTRA:                   0.011
REMARK UNBOUND:                -1.160
REMARK  Name = 
REMARK  4 active torsions:
REMARK  status: ('A' for Active; 'I' for Inactive)
REMARK    1  A    between atoms: C_2  and  C_4
REMARK    2  A    between atoms: N_8  and  C_9
REMARK    3  A    between atoms: C_9  and  C_10
REMARK    4  A    between atoms: C_14  and  C_15
REMARK                            x       y       z     vdW  Elec       q    Type
REMARK                         _______ _______ _______ _____ _____    ______ ____
ROOT
ATOM      1  C   UNL     1      48.597   7.951  12.743  0.00  0.00    +0.000 C 
ATOM      2  C   UNL     1      49.733   7.372  11.907  0.00  0.00    +0.000 C 
ATOM      3  C   UNL     1      49.459   8.838  11.868  0.00  0.00    +0.000 C 
ENDROOT
BRANCH   1   8
ATOM      4  C   UNL     1      48.244   4.417  16.549  0.00  0.00    +0.000 A 
ATOM      5  C   UNL     1      47.378   4.621  15.481  0.00  0.00    +0.000 A 
ATOM      6  C   UNL     1      47.569   5.725  14.651  0.00  0.00    +0.000 A 
ATOM      7  C   UNL     1      48.605   6.613  14.908  0.00  0.00    +0.000 A 
ATOM      8  N   UNL     1      48.791   7.803  14.199  0.00  0.00    +0.000 N 
ATOM      9  N   UNL     1      49.453   6.425  15.943  0.00  0.00    +0.000 NA
ATOM     10  C   UNL     1      49.256   5.344  16.742  0.00  0.00    +0.000 A 
ATOM     11  H   UNL     1      49.663   8.189  14.559  0.00  0.00    +0.000 HD
BRANCH   4  13
ATOM     12  N   UNL     1      46.852   2.766  17.659  0.00  0.00    +0.000 N 
ATOM     13  C   UNL     1      48.105   3.296  17.499  0.00  0.00    +0.000 C 
ATOM     14  O   UNL     1      49.065   2.841  18.097  0.00  0.00    +0.000 OA
ATOM     15  H   UNL     1      46.789   1.932  18.231  0.00  0.00    +0.000 HD
ATOM     16  H   UNL     1      46.101   2.938  17.008  0.00  0.00    +0.000 HD
ENDBRANCH   4  13
ENDBRANCH   1   8
BRANCH   1  17
ATOM     17  C   UNL     1      47.154   7.702  12.316  0.00  0.00    +0.000 A 
ATOM     18  C   UNL     1      46.170   8.697  12.409  0.00  0.00    +0.000 A 
ATOM     19  C   UNL     1      44.893   8.501  11.888  0.00  0.00    +0.000 A 
ATOM     20  C   UNL     1      44.578   7.303  11.244  0.00  0.00    +0.000 A 
ATOM     21  C   UNL     1      45.525   6.274  11.118  0.00  0.00    +0.000 A 
ATOM     22  C   UNL     1      46.792   6.490  11.694  0.00  0.00    +0.000 A 
BRANCH  21  23
ATOM     23  C   UNL     1      45.240   5.050  10.335  0.00  0.00    +0.000 A 
ATOM     24  C   UNL     1      44.520   3.986  10.898  0.00  0.00    +0.000 A 
ATOM     25  C   UNL     1      44.221   2.874  10.125  0.00  0.00    +0.000 A 
ATOM     26  N   UNL     1      44.578   2.744   8.833  0.00  0.00    +0.000 NA
ATOM     27  C   UNL     1      45.269   3.769   8.296  0.00  0.00    +0.000 A 
ATOM     28  C   UNL     1      45.621   4.917   8.994  0.00  0.00    +0.000 A 
ENDBRANCH  21  23
ENDBRANCH   1  17
TORSDOF 4
ENDMDL
MODEL 5
REMARK VINA RESULT:    -6.276      3.740      5.854
REMARK INTER + INTRA:          -8.904
REMARK INTER:                  -8.448
REMARK INTRA:                  -0.456
REMARK UNBOUND:                -1.160
REMARK  Name = 
REMARK  4 active torsions:
REMARK  status: ('A' for Active; 'I' for Inactive)
REMARK    1  A    between atoms: C_2  and  C_4
REMARK    2  A    between atoms: N_8  and  C_9
REMARK    3  A    between atoms: C_9  and  C_10
REMARK    4  A    between atoms: C_14  and  C_15
REMARK                            x       y       z     vdW  Elec       q    Type
REMARK                         _______ _______ _______ _____ _____    ______ ____
ROOT
ATOM      1  C   UNL     1      47.258   8.346  13.149  0.00  0.00    +0.000 C 
ATOM      2  C   UNL     1      47.386   9.665  12.394  0.00  0.00    +0.000 C 
ATOM      3  C   UNL     1      48.112   8.458  11.901  0.00  0.00    +0.000 C 
ENDROOT
BRANCH   1   8
ATOM      4  C   UNL     1      44.557   4.184  11.576  0.00  0.00    +0.000 A 
ATOM      5  C   UNL     1      45.558   4.868  10.895  0.00  0.00    +0.000 A 
ATOM      6  C   UNL     1      46.053   6.057  11.429  0.00  0.00    +0.000 A 
ATOM      7  C   UNL     1      45.534   6.551  12.618  0.00  0.00    +0.000 A 
ATOM      8  N   UNL     1      45.890   7.792  13.155  0.00  0.00    +0.000 N 
ATOM      9  N   UNL     1      44.561   5.896  13.287  0.00  0.00    +0.000 NA
ATOM     10  C   UNL     1      44.090   4.737  12.756  0.00  0.00    +0.000 A 
ATOM     11  H   UNL     1      45.411   7.834  14.054  0.00  0.00    +0.000 HD
BRANCH   4  13
ATOM     12  N   UNL     1      44.601   2.288  10.060  0.00  0.00    +0.000 N 
ATOM     13  C   UNL     1      43.949   2.936  11.076  0.00  0.00    +0.000 C 
ATOM     14  O   UNL     1      42.926   2.483  11.561  0.00  0.00    +0.000 OA
ATOM     15  H   UNL     1      44.232   1.381   9.798  0.00  0.00    +0.000 HD
ATOM     16  H   UNL     1      45.559   2.486   9.814  0.00  0.00    +0.000 HD
ENDBRANCH   4  13
ENDBRANCH   1   8
BRANCH   1  17
ATOM     17  C   UNL     1      47.962   8.184  14.492  0.00  0.00    +0.000 A 
ATOM     18  C   UNL     1      48.155   9.265  15.364  0.00  0.00    +0.000 A 
ATOM     19  C   UNL     1      48.674   9.078  16.643  0.00  0.00    +0.000 A 
ATOM     20  C   UNL     1      48.997   7.794  17.084  0.00  0.00    +0.000 A 
ATOM     21  C   UNL     1      48.821   6.674  16.255  0.00  0.00    +0.000 A 
ATOM     22  C   UNL     1      48.334   6.906  14.954  0.00  0.00    +0.000 A 
BRANCH  21  23
ATOM     23  C   UNL     1      49.048   5.298  16.752  0.00  0.00    +0.000 A 
ATOM     24  C   UNL     1      48.079   4.300  16.577  0.00  0.00    +0.000 A 
ATOM     25  C   UNL     1      48.341   3.006  17.005  0.00  0.00    +0.000 A 
ATOM     26  N   UNL     1      49.496   2.631  17.588  0.00  0.00    +0.000 NA
ATOM     27  C   UNL     1      50.424   3.594  17.754  0.00  0.00    +0.000 A 
ATOM     28  C   UNL     1      50.248   4.916  17.365  0.00  0.00    +0.000 A 
ENDBRANCH  21  23
ENDBRANCH   1  17
TORSDOF 4
ENDMDL
MODEL 6
REMARK VINA RESULT:    -6.018      3.684      6.562
REMARK INTER + INTRA:          -8.585
REMARK INTER:                  -7.465
REMARK INTRA:                  -1.120
REMARK UNBOUND:                -1.160
REMARK  Name = 
REMARK  4 active torsions:
REMARK  status: ('A' for Active; 'I' for Inactive)
REMARK    1  A    between atoms: C_2  and  C_4
REMARK    2  A    between atoms: N_8  and  C_9
REMARK    3  A    between atoms: C_9  and  C_10
REMARK    4  A    between atoms: C_14  and  C_15
REMARK                            x       y       z     vdW  Elec       q    Type
REMARK                         _______ _______ _______ _____ _____    ______ ____
ROOT
ATOM      1  C   UNL     1      49.209   8.636  12.662  0.00  0.00    +0.000 C 
ATOM      2  C   UNL     1      50.374   9.454  12.113  0.00  0.00    +0.000 C 
ATOM      3  C   UNL     1      50.367   7.972  11.943  0.00  0.00    +0.000 C 
ENDROOT
BRANCH   1   8
ATOM      4  C   UNL     1      44.633   6.431  11.528  0.00  0.00    +0.000 A 
ATOM      5  C   UNL     1      45.903   5.874  11.434  0.00  0.00    +0.000 A 
ATOM      6  C   UNL     1      47.019   6.685  11.641  0.00  0.00    +0.000 A 
ATOM      7  C   UNL     1      46.851   8.035  11.920  0.00  0.00    +0.000 A 
ATOM      8  N   UNL     1      47.914   8.937  12.021  0.00  0.00    +0.000 N 
ATOM      9  N   UNL     1      45.621   8.587  12.012  0.00  0.00    +0.000 NA
ATOM     10  C   UNL     1      44.544   7.784  11.810  0.00  0.00    +0.000 A 
ATOM     11  H   UNL     1      47.485   9.816  12.307  0.00  0.00    +0.000 HD
BRANCH   4  13
ATOM     12  N   UNL     1      42.234   6.179  11.805  0.00  0.00    +0.000 N 
ATOM     13  C   UNL     1      43.395   5.662  11.296  0.00  0.00    +0.000 C 
ATOM     14  O   UNL     1      43.397   4.623  10.656  0.00  0.00    +0.000 OA
ATOM     15  H   UNL     1      41.379   5.698  11.550  0.00  0.00    +0.000 HD
ATOM     16  H   UNL     1      42.152   7.138  12.108  0.00  0.00    +0.000 HD
ENDBRANCH   4  13
ENDBRANCH   1   8
BRANCH   1  17
ATOM     17  C   UNL     1      49.085   8.433  14.168  0.00  0.00    +0.000 A 
ATOM     18  C   UNL     1      48.742   9.482  15.033  0.00  0.00    +0.000 A 
ATOM     19  C   UNL     1      48.498   9.253  16.385  0.00  0.00    +0.000 A 
ATOM     20  C   UNL     1      48.573   7.958  16.899  0.00  0.00    +0.000 A 
ATOM     21  C   UNL     1      48.908   6.868  16.078  0.00  0.00    +0.000 A 
ATOM     22  C   UNL     1      49.191   7.143  14.726  0.00  0.00    +0.000 A 
BRANCH  21  23
ATOM     23  C   UNL     1      48.876   5.478  16.585  0.00  0.00    +0.000 A 
ATOM     24  C   UNL     1      49.950   4.954  17.319  0.00  0.00    +0.000 A 
ATOM     25  C   UNL     1      49.871   3.666  17.828  0.00  0.00    +0.000 A 
ATOM     26  N   UNL     1      48.801   2.863  17.667  0.00  0.00    +0.000 NA
ATOM     27  C   UNL     1      47.771   3.372  16.962  0.00  0.00    +0.000 A 
ATOM     28  C   UNL     1      47.764   4.645  16.407  0.00  0.00    +0.000 A 
ENDBRANCH  21  23
ENDBRANCH   1  17
TORSDOF 4
ENDMDL
