MODEL 1
REMARK VINA RESULT:    -8.003      0.000      0.000
REMARK INTER + INTRA:         -11.462
REMARK INTER:                 -10.810
REMARK INTRA:                  -0.653
REMARK UNBOUND:                -0.653
REMARK  Name = 
REMARK  7 active torsions:
REMARK  status: ('A' for Active; 'I' for Inactive)
REMARK    1  A    between atoms: C_1  and  C_2
REMARK    2  A    between atoms: C_2  and  N_3
REMARK    3  A    between atoms: C_2  and  C_21
REMARK    4  A    between atoms: C_4  and  C_6
REMARK    5  A    between atoms: C_9  and  C_10
REMARK    6  A    between atoms: C_10  and  N_11
REMARK    7  A    between atoms: C_12  and  C_14
REMARK                            x       y       z     vdW  Elec       q    Type
REMARK                         _______ _______ _______ _____ _____    ______ ____
ROOT
ATOM      1  N   UNL     1      47.889   5.948  16.439  0.00  0.00    +0.000 N 
ATOM      2  C   UNL     1      48.170   5.996  15.088  0.00  0.00    +0.000 C 
ATOM      3  O   UNL     1      49.148   6.559  14.612  0.00  0.00    +0.000 OA
ATOM      4  H   UNL     1      46.966   5.664  16.737  0.00  0.00    +0.000 HD
ENDROOT
BRANCH   2   5
ATOM      5  C   UNL     1      47.184   5.356  14.186  0.00  0.00    +0.000 A 
ATOM      6  C   UNL     1      46.382   6.077  13.302  0.00  0.00    +0.000 A 
ATOM      7  C   UNL     1      45.511   5.389  12.454  0.00  0.00    +0.000 A 
ATOM      8  C   UNL     1      45.451   3.995  12.517  0.00  0.00    +0.000 A 
ATOM      9  N   UNL     1      46.201   3.282  13.398  0.00  0.00    +0.000 NA
ATOM     10  C   UNL     1      47.034   3.976  14.217  0.00  0.00    +0.000 A 
BRANCH   8  11
ATOM     11  C   UNL     1      44.546   3.221  11.582  0.00  0.00    +0.000 C 
BRANCH  11  12
ATOM     12  N   UNL     1      45.235   2.706  10.418  0.00  0.00    +0.000 N 
ATOM     13  C   UNL     1      45.080   3.243   9.164  0.00  0.00    +0.000 C 
ATOM     14  O   UNL     1      44.331   4.187   8.921  0.00  0.00    +0.000 OA
ATOM     15  H   UNL     1      45.920   1.965  10.525  0.00  0.00    +0.000 HD
BRANCH  13  16
ATOM     16  C   UNL     1      45.888   2.582   8.136  0.00  0.00    +0.000 A 
ATOM     17  C   UNL     1      46.327   3.208   6.981  0.00  0.00    +0.000 A 
ATOM     18  S   UNL     1      47.244   2.125   6.022  0.00  0.00    +0.000 S 
ATOM     19  C   UNL     1      46.995   0.903   7.198  0.00  0.00    +0.000 A 
ATOM     20  N   UNL     1      46.278   1.241   8.248  0.00  0.00    +0.000 NA
ENDBRANCH  13  16
ENDBRANCH  11  12
ENDBRANCH   8  11
ENDBRANCH   2   5
BRANCH   1  22
ATOM     21  C   UNL     1      49.028   8.034  17.193  0.00  0.00    +0.000 C 
ATOM     22  C   UNL     1      48.769   6.542  17.429  0.00  0.00    +0.000 C 
BRANCH  22  23
ATOM     23  C   UNL     1      50.063   5.745  17.508  0.00  0.00    +0.000 A 
ATOM     24  C   UNL     1      51.313   6.345  17.476  0.00  0.00    +0.000 A 
ATOM     25  S   UNL     1      52.607   5.232  17.445  0.00  0.00    +0.000 S 
ATOM     26  C   UNL     1      51.544   3.904  17.501  0.00  0.00    +0.000 A 
ATOM     27  N   UNL     1      52.018   2.628  17.478  0.00  0.00    +0.000 NA
ATOM     28  C   UNL     1      51.100   1.720  17.524  0.00  0.00    +0.000 A 
ATOM     29  N   UNL     1      49.755   1.973  17.605  0.00  0.00    +0.000 N 
ATOM     30  C   UNL     1      49.234   3.246  17.698  0.00  0.00    +0.000 A 
ATOM     31  O   UNL     1      48.041   3.428  17.923  0.00  0.00    +0.000 OA
ATOM     32  C   UNL     1      50.222   4.304  17.579  0.00  0.00    +0.000 A 
ATOM     33  H   UNL     1      49.093   1.215  17.689  0.00  0.00    +0.000 HD
ENDBRANCH  22  23
ENDBRANCH   1  22
TORSDOF 6
ENDMDL
MODEL 2
REMARK VINA RESULT:    -7.788      1.914      2.431
REMARK INTER + INTRA:         -11.173
REMARK INTER:                 -10.143
REMARK INTRA:                  -1.030
REMARK UNBOUND:                -0.653
REMARK  Name = 
REMARK  7 active torsions:
REMARK  status: ('A' for Active; 'I' for Inactive)
REMARK    1  A    between atoms: C_1  and  C_2
REMARK    2  A    between atoms: C_2  and  N_3
REMARK    3  A    between atoms: C_2  and  C_21
REMARK    4  A    between atoms: C_4  and  C_6
REMARK    5  A    between atoms: C_9  and  C_10
REMARK    6  A    between atoms: C_10  and  N_11
REMARK    7  A    between atoms: C_12  and  C_14
REMARK                            x       y       z     vdW  Elec       q    Type
REMARK                         _______ _______ _______ _____ _____    ______ ____
ROOT
ATOM      1  N   UNL     1      48.316   6.692  15.601  0.00  0.00    +0.000 N 
ATOM      2  C   UNL     1      47.898   7.128  14.359  0.00  0.00    +0.000 C 
ATOM      3  O   UNL     1      48.210   8.209  13.873  0.00  0.00    +0.000 OA
ATOM      4  H   UNL     1      47.849   5.903  16.023  0.00  0.00    +0.000 HD
ENDROOT
BRANCH   2   5
ATOM      5  C   UNL     1      46.982   6.231  13.617  0.00  0.00    +0.000 A 
ATOM      6  C   UNL     1      46.266   6.637  12.491  0.00  0.00    +0.000 A 
ATOM      7  C   UNL     1      45.458   5.712  11.826  0.00  0.00    +0.000 A 
ATOM      8  C   UNL     1      45.374   4.403  12.307  0.00  0.00    +0.000 A 
ATOM      9  N   UNL     1      46.039   4.003  13.423  0.00  0.00    +0.000 NA
ATOM     10  C   UNL     1      46.810   4.925  14.057  0.00  0.00    +0.000 A 
BRANCH   8  11
ATOM     11  C   UNL     1      44.539   3.369  11.583  0.00  0.00    +0.000 C 
BRANCH  11  12
ATOM     12  N   UNL     1      45.233   2.752  10.473  0.00  0.00    +0.000 N 
ATOM     13  C   UNL     1      45.103   3.190   9.178  0.00  0.00    +0.000 C 
ATOM     14  O   UNL     1      44.374   4.124   8.850  0.00  0.00    +0.000 OA
ATOM     15  H   UNL     1      45.903   2.011  10.648  0.00  0.00    +0.000 HD
BRANCH  13  16
ATOM     16  C   UNL     1      45.912   2.436   8.216  0.00  0.00    +0.000 A 
ATOM     17  C   UNL     1      46.541   3.007   7.122  0.00  0.00    +0.000 A 
ATOM     18  S   UNL     1      47.393   1.820   6.231  0.00  0.00    +0.000 S 
ATOM     19  C   UNL     1      46.871   0.631   7.350  0.00  0.00    +0.000 A 
ATOM     20  N   UNL     1      46.107   1.053   8.335  0.00  0.00    +0.000 NA
ENDBRANCH  13  16
ENDBRANCH  11  12
ENDBRANCH   8  11
ENDBRANCH   2   5
BRANCH   1  22
ATOM     21  C   UNL     1      50.686   7.119  16.246  0.00  0.00    +0.000 C 
ATOM     22  C   UNL     1      49.208   7.479  16.432  0.00  0.00    +0.000 C 
BRANCH  22  23
ATOM     23  C   UNL     1      48.775   7.378  17.887  0.00  0.00    +0.000 A 
ATOM     24  C   UNL     1      48.389   8.484  18.631  0.00  0.00    +0.000 A 
ATOM     25  S   UNL     1      48.078   8.132  20.272  0.00  0.00    +0.000 S 
ATOM     26  C   UNL     1      48.419   6.481  20.044  0.00  0.00    +0.000 A 
ATOM     27  N   UNL     1      48.361   5.606  21.086  0.00  0.00    +0.000 NA
ATOM     28  C   UNL     1      48.647   4.386  20.769  0.00  0.00    +0.000 A 
ATOM     29  N   UNL     1      48.970   3.961  19.507  0.00  0.00    +0.000 N 
ATOM     30  C   UNL     1      48.977   4.799  18.412  0.00  0.00    +0.000 A 
ATOM     31  O   UNL     1      49.122   4.356  17.275  0.00  0.00    +0.000 OA
ATOM     32  C   UNL     1      48.732   6.195  18.727  0.00  0.00    +0.000 A 
ATOM     33  H   UNL     1      49.133   2.983  19.319  0.00  0.00    +0.000 HD
ENDBRANCH  22  23
ENDBRANCH   1  22
TORSDOF 6
ENDMDL
MODEL 3
REMARK VINA RESULT:    -7.678      1.664      2.556
REMARK INTER + INTRA:         -11.024
REMARK INTER:                  -9.921
REMARK INTRA:                  -1.104
REMARK UNBOUND:                -0.653
REMARK  Name = 
REMARK  7 active torsions:
REMARK  status: ('A' for Active; 'I' for Inactive)
REMARK    1  A    between atoms: C_1  and  C_2
REMARK    2  A    between atoms: C_2  and  N_3
REMARK    3  A    between atoms: C_2  and  C_21
REMARK    4  A    between atoms: C_4  and  C_6
REMARK    5  A    between atoms: C_9  and  C_10
REMARK    6  A    between atoms: C_10  and  N_11
REMARK    7  A    between atoms: C_12  and  C_14
REMARK                            x       y       z     vdW  Elec       q    Type
REMARK                         _______ _______ _______ _____ _____    ______ ____
ROOT
ATOM      1  N   UNL     1      47.694   5.524  16.416  0.00  0.00    +0.000 N 
ATOM      2  C   UNL     1      47.403   4.478  15.562  0.00  0.00    +0.000 C 
ATOM      3  O   UNL     1      47.628   3.301  15.820  0.00  0.00    +0.000 OA
ATOM      4  H   UNL     1      47.686   6.467  16.054  0.00  0.00    +0.000 HD
ENDROOT
BRANCH   2   5
ATOM      5  C   UNL     1      46.827   4.840  14.246  0.00  0.00    +0.000 A 
ATOM      6  C   UNL     1      47.289   5.910  13.481  0.00  0.00    +0.000 A 
ATOM      7  C   UNL     1      46.717   6.153  12.231  0.00  0.00    +0.000 A 
ATOM      8  C   UNL     1      45.687   5.327  11.775  0.00  0.00    +0.000 A 
ATOM      9  N   UNL     1      45.202   4.303  12.525  0.00  0.00    +0.000 NA
ATOM     10  C   UNL     1      45.770   4.094  13.742  0.00  0.00    +0.000 A 
BRANCH   8  11
ATOM     11  C   UNL     1      45.077   5.542  10.407  0.00  0.00    +0.000 C 
BRANCH  11  12
ATOM     12  N   UNL     1      45.696   4.739   9.375  0.00  0.00    +0.000 N 
ATOM     13  C   UNL     1      45.207   3.515   8.991  0.00  0.00    +0.000 C 
ATOM     14  O   UNL     1      44.219   2.990   9.502  0.00  0.00    +0.000 OA
ATOM     15  H   UNL     1      46.482   5.110   8.852  0.00  0.00    +0.000 HD
BRANCH  13  16
ATOM     16  C   UNL     1      45.975   2.885   7.913  0.00  0.00    +0.000 A 
ATOM     17  C   UNL     1      46.367   3.543   6.759  0.00  0.00    +0.000 A 
ATOM     18  S   UNL     1      47.246   2.489   5.735  0.00  0.00    +0.000 S 
ATOM     19  C   UNL     1      47.045   1.234   6.885  0.00  0.00    +0.000 A 
ATOM     20  N   UNL     1      46.370   1.541   7.972  0.00  0.00    +0.000 NA
ENDBRANCH  13  16
ENDBRANCH  11  12
ENDBRANCH   8  11
ENDBRANCH   2   5
BRANCH   1  22
ATOM     21  C   UNL     1      47.978   6.443  18.716  0.00  0.00    +0.000 C 
ATOM     22  C   UNL     1      48.267   5.306  17.732  0.00  0.00    +0.000 C 
BRANCH  22  23
ATOM     23  C   UNL     1      49.758   5.029  17.601  0.00  0.00    +0.000 A 
ATOM     24  C   UNL     1      50.368   3.929  18.186  0.00  0.00    +0.000 A 
ATOM     25  S   UNL     1      52.065   3.912  18.010  0.00  0.00    +0.000 S 
ATOM     26  C   UNL     1      52.047   5.361  17.120  0.00  0.00    +0.000 A 
ATOM     27  N   UNL     1      53.205   5.923  16.675  0.00  0.00    +0.000 NA
ATOM     28  C   UNL     1      53.042   7.023  16.016  0.00  0.00    +0.000 A 
ATOM     29  N   UNL     1      51.829   7.602  15.751  0.00  0.00    +0.000 N 
ATOM     30  C   UNL     1      50.628   7.035  16.124  0.00  0.00    +0.000 A 
ATOM     31  O   UNL     1      49.560   7.501  15.737  0.00  0.00    +0.000 OA
ATOM     32  C   UNL     1      50.760   5.834  16.929  0.00  0.00    +0.000 A 
ATOM     33  H   UNL     1      51.769   8.436  15.185  0.00  0.00    +0.000 HD
ENDBRANCH  22  23
ENDBRANCH   1  22
TORSDOF 6
ENDMDL
MODEL 4
REMARK VINA RESULT:    -7.320      2.435      8.583
REMARK INTER + INTRA:         -10.540
REMARK INTER:                  -9.456
REMARK INTRA:                  -1.084
REMARK UNBOUND:                -0.653
REMARK  Name = 
REMARK  7 active torsions:
REMARK  status: ('A' for Active; 'I' for Inactive)
REMARK    1  A    between atoms: C_1  and  C_2
REMARK    2  A    between atoms: C_2  and  N_3
REMARK    3  A    between atoms: C_2  and  C_21
REMARK    4  A    between atoms: C_4  and  C_6
REMARK    5  A    between atoms: C_9  and  C_10
REMARK    6  A    between atoms: C_10  and  N_11
REMARK    7  A    between atoms: C_12  and  C_14
REMARK                            x       y       z     vdW  Elec       q    Type
REMARK                         _______ _______ _______ _____ _____    ______ ____
ROOT
ATOM      1  N   UNL     1      46.659   6.885  12.437  0.00  0.00    +0.000 N 
ATOM      2  C   UNL     1      47.995   7.228  12.496  0.00  0.00    +0.000 C 
ATOM      3  O   UNL     1      48.622   7.706  11.557  0.00  0.00    +0.000 OA
ATOM      4  H   UNL     1      46.272   6.302  13.165  0.00  0.00    +0.000 HD
ENDROOT
BRANCH   2   5
ATOM      5  C   UNL     1      48.694   6.947  13.772  0.00  0.00    +0.000 A 
ATOM      6  C   UNL     1      49.898   7.552  14.129  0.00  0.00    +0.000 A 
ATOM      7  C   UNL     1      50.466   7.261  15.372  0.00  0.00    +0.000 A 
ATOM      8  C   UNL     1      49.823   6.363  16.227  0.00  0.00    +0.000 A 
ATOM      9  N   UNL     1      48.667   5.739  15.877  0.00  0.00    +0.000 NA
ATOM     10  C   UNL     1      48.141   6.032  14.659  0.00  0.00    +0.000 A 
BRANCH   8  11
ATOM     11  C   UNL     1      50.394   6.061  17.596  0.00  0.00    +0.000 C 
BRANCH  11  12
ATOM     12  N   UNL     1      51.252   4.896  17.611  0.00  0.00    +0.000 N 
ATOM     13  C   UNL     1      50.782   3.628  17.851  0.00  0.00    +0.000 C 
ATOM     14  O   UNL     1      49.603   3.379  18.092  0.00  0.00    +0.000 OA
ATOM     15  H   UNL     1      52.232   4.989  17.365  0.00  0.00    +0.000 HD
BRANCH  13  16
ATOM     16  C   UNL     1      51.820   2.594  17.796  0.00  0.00    +0.000 A 
ATOM     17  C   UNL     1      53.144   2.813  18.136  0.00  0.00    +0.000 A 
ATOM     18  S   UNL     1      54.057   1.376  17.950  0.00  0.00    +0.000 S 
ATOM     19  C   UNL     1      52.640   0.565  17.429  0.00  0.00    +0.000 A 
ATOM     20  N   UNL     1      51.539   1.285  17.381  0.00  0.00    +0.000 NA
ENDBRANCH  13  16
ENDBRANCH  11  12
ENDBRANCH   8  11
ENDBRANCH   2   5
BRANCH   1  22
ATOM     21  C   UNL     1      44.653   8.014  11.479  0.00  0.00    +0.000 C 
ATOM     22  C   UNL     1      45.862   7.102  11.244  0.00  0.00    +0.000 C 
BRANCH  22  23
ATOM     23  C   UNL     1      45.457   5.762  10.648  0.00  0.00    +0.000 A 
ATOM     24  C   UNL     1      45.704   5.428   9.324  0.00  0.00    +0.000 A 
ATOM     25  S   UNL     1      45.037   3.927   8.859  0.00  0.00    +0.000 S 
ATOM     26  C   UNL     1      44.417   3.652  10.419  0.00  0.00    +0.000 A 
ATOM     27  N   UNL     1      43.700   2.529  10.699  0.00  0.00    +0.000 NA
ATOM     28  C   UNL     1      43.288   2.453  11.922  0.00  0.00    +0.000 A 
ATOM     29  N   UNL     1      43.540   3.389  12.890  0.00  0.00    +0.000 N 
ATOM     30  C   UNL     1      44.316   4.508  12.670  0.00  0.00    +0.000 A 
ATOM     31  O   UNL     1      44.647   5.242  13.597  0.00  0.00    +0.000 OA
ATOM     32  C   UNL     1      44.744   4.675  11.293  0.00  0.00    +0.000 A 
ATOM     33  H   UNL     1      43.232   3.243  13.840  0.00  0.00    +0.000 HD
ENDBRANCH  22  23
ENDBRANCH   1  22
TORSDOF 6
ENDMDL
MODEL 5
REMARK VINA RESULT:    -7.183      2.552      3.252
REMARK INTER + INTRA:         -10.355
REMARK INTER:                  -9.525
REMARK INTRA:                  -0.830
REMARK UNBOUND:                -0.653
REMARK  Name = 
REMARK  7 active torsions:
REMARK  status: ('A' for Active; 'I' for Inactive)
REMARK    1  A    between atoms: C_1  and  C_2
REMARK    2  A    between atoms: C_2  and  N_3
REMARK    3  A    between atoms: C_2  and  C_21
REMARK    4  A    between atoms: C_4  and  C_6
REMARK    5  A    between atoms: C_9  and  C_10
REMARK    6  A    between atoms: C_10  and  N_11
REMARK    7  A    between atoms: C_12  and  C_14
REMARK                            x       y       z     vdW  Elec       q    Type
REMARK                         _______ _______ _______ _____ _____    ______ ____
ROOT
ATOM      1  N   UNL     1      48.238   6.886  14.976  0.00  0.00    +0.000 N 
ATOM      2  C   UNL     1      47.587   7.778  14.147  0.00  0.00    +0.000 C 
ATOM      3  O   UNL     1      47.709   8.995  14.220  0.00  0.00    +0.000 OA
ATOM      4  H   UNL     1      47.924   5.926  15.003  0.00  0.00    +0.000 HD
ENDROOT
BRANCH   2   5
ATOM      5  C   UNL     1      46.660   7.197  13.149  0.00  0.00    +0.000 A 
ATOM      6  C   UNL     1      45.761   7.963  12.408  0.00  0.00    +0.000 A 
ATOM      7  C   UNL     1      44.954   7.338  11.455  0.00  0.00    +0.000 A 
ATOM      8  C   UNL     1      45.053   5.957  11.272  0.00  0.00    +0.000 A 
ATOM      9  N   UNL     1      45.899   5.192  12.011  0.00  0.00    +0.000 NA
ATOM     10  C   UNL     1      46.667   5.824  12.938  0.00  0.00    +0.000 A 
BRANCH   8  11
ATOM     11  C   UNL     1      44.219   5.259  10.219  0.00  0.00    +0.000 C 
BRANCH  11  12
ATOM     12  N   UNL     1      45.009   4.472   9.296  0.00  0.00    +0.000 N 
ATOM     13  C   UNL     1      44.998   3.099   9.290  0.00  0.00    +0.000 C 
ATOM     14  O   UNL     1      44.336   2.425  10.076  0.00  0.00    +0.000 OA
ATOM     15  H   UNL     1      45.544   4.936   8.569  0.00  0.00    +0.000 HD
BRANCH  13  16
ATOM     16  C   UNL     1      45.855   2.507   8.258  0.00  0.00    +0.000 A 
ATOM     17  C   UNL     1      46.395   3.222   7.201  0.00  0.00    +0.000 A 
ATOM     18  S   UNL     1      47.339   2.198   6.205  0.00  0.00    +0.000 S 
ATOM     19  C   UNL     1      46.966   0.881   7.236  0.00  0.00    +0.000 A 
ATOM     20  N   UNL     1      46.189   1.146   8.264  0.00  0.00    +0.000 NA
ENDBRANCH  13  16
ENDBRANCH  11  12
ENDBRANCH   8  11
ENDBRANCH   2   5
BRANCH   1  22
ATOM     21  C   UNL     1      50.617   7.407  15.511  0.00  0.00    +0.000 C 
ATOM     22  C   UNL     1      49.167   7.326  16.001  0.00  0.00    +0.000 C 
BRANCH  22  23
ATOM     23  C   UNL     1      49.029   6.442  17.231  0.00  0.00    +0.000 A 
ATOM     24  C   UNL     1      49.385   5.101  17.232  0.00  0.00    +0.000 A 
ATOM     25  S   UNL     1      49.013   4.293  18.688  0.00  0.00    +0.000 S 
ATOM     26  C   UNL     1      48.388   5.713  19.385  0.00  0.00    +0.000 A 
ATOM     27  N   UNL     1      47.869   5.704  20.645  0.00  0.00    +0.000 NA
ATOM     28  C   UNL     1      47.428   6.851  21.045  0.00  0.00    +0.000 A 
ATOM     29  N   UNL     1      47.472   8.005  20.307  0.00  0.00    +0.000 N 
ATOM     30  C   UNL     1      48.046   8.076  19.056  0.00  0.00    +0.000 A 
ATOM     31  O   UNL     1      48.205   9.155  18.491  0.00  0.00    +0.000 OA
ATOM     32  C   UNL     1      48.493   6.797  18.532  0.00  0.00    +0.000 A 
ATOM     33  H   UNL     1      47.156   8.880  20.701  0.00  0.00    +0.000 HD
ENDBRANCH  22  23
ENDBRANCH   1  22
TORSDOF 6
ENDMDL
MODEL 6
REMARK VINA RESULT:    -7.003      2.375      3.648
REMARK INTER + INTRA:         -10.112
REMARK INTER:                  -9.152
REMARK INTRA:                  -0.959
REMARK UNBOUND:                -0.653
REMARK  Name = 
REMARK  7 active torsions:
REMARK  status: ('A' for Active; 'I' for Inactive)
REMARK    1  A    between atoms: C_1  and  C_2
REMARK    2  A    between atoms: C_2  and  N_3
REMARK    3  A    between atoms: C_2  and  C_21
REMARK    4  A    between atoms: C_4  and  C_6
REMARK    5  A    between atoms: C_9  and  C_10
REMARK    6  A    between atoms: C_10  and  N_11
REMARK    7  A    between atoms: C_12  and  C_14
REMARK                            x       y       z     vdW  Elec       q    Type
REMARK                         _______ _______ _______ _____ _____    ______ ____
ROOT
ATOM      1  N   UNL     1      47.857   5.958  16.105  0.00  0.00    +0.000 N 
ATOM      2  C   UNL     1      47.605   4.808  15.383  0.00  0.00    +0.000 C 
ATOM      3  O   UNL     1      47.992   3.693  15.714  0.00  0.00    +0.000 OA
ATOM      4  H   UNL     1      47.701   6.854  15.667  0.00  0.00    +0.000 HD
ENDROOT
BRANCH   2   5
ATOM      5  C   UNL     1      46.859   4.975  14.114  0.00  0.00    +0.000 A 
ATOM      6  C   UNL     1      47.085   6.029  13.231  0.00  0.00    +0.000 A 
ATOM      7  C   UNL     1      46.366   6.084  12.035  0.00  0.00    +0.000 A 
ATOM      8  C   UNL     1      45.427   5.090  11.752  0.00  0.00    +0.000 A 
ATOM      9  N   UNL     1      45.170   4.076  12.620  0.00  0.00    +0.000 NA
ATOM     10  C   UNL     1      45.877   4.051  13.781  0.00  0.00    +0.000 A 
BRANCH   8  11
ATOM     11  C   UNL     1      44.663   5.102  10.446  0.00  0.00    +0.000 C 
BRANCH  11  12
ATOM     12  N   UNL     1      45.365   4.438   9.369  0.00  0.00    +0.000 N 
ATOM     13  C   UNL     1      45.190   3.108   9.076  0.00  0.00    +0.000 C 
ATOM     14  O   UNL     1      44.443   2.368   9.712  0.00  0.00    +0.000 OA
ATOM     15  H   UNL     1      45.960   4.976   8.749  0.00  0.00    +0.000 HD
BRANCH  13  16
ATOM     16  C   UNL     1      45.983   2.647   7.932  0.00  0.00    +0.000 A 
ATOM     17  C   UNL     1      46.243   3.421   6.812  0.00  0.00    +0.000 A 
ATOM     18  S   UNL     1      47.199   2.550   5.690  0.00  0.00    +0.000 S 
ATOM     19  C   UNL     1      47.200   1.210   6.758  0.00  0.00    +0.000 A 
ATOM     20  N   UNL     1      46.540   1.362   7.886  0.00  0.00    +0.000 NA
ENDBRANCH  13  16
ENDBRANCH  11  12
ENDBRANCH   8  11
ENDBRANCH   2   5
BRANCH   1  22
ATOM     21  C   UNL     1      47.763   5.370  18.527  0.00  0.00    +0.000 C 
ATOM     22  C   UNL     1      48.584   5.933  17.361  0.00  0.00    +0.000 C 
BRANCH  22  23
ATOM     23  C   UNL     1      49.129   7.320  17.666  0.00  0.00    +0.000 A 
ATOM     24  C   UNL     1      48.973   7.930  18.903  0.00  0.00    +0.000 A 
ATOM     25  S   UNL     1      49.553   9.534  18.955  0.00  0.00    +0.000 S 
ATOM     26  C   UNL     1      50.060   9.466  17.332  0.00  0.00    +0.000 A 
ATOM     27  N   UNL     1      50.632  10.547  16.733  0.00  0.00    +0.000 NA
ATOM     28  C   UNL     1      50.965  10.355  15.500  0.00  0.00    +0.000 A 
ATOM     29  N   UNL     1      50.792   9.178  14.817  0.00  0.00    +0.000 N 
ATOM     30  C   UNL     1      50.279   8.040  15.402  0.00  0.00    +0.000 A 
ATOM     31  O   UNL     1      50.280   6.966  14.807  0.00  0.00    +0.000 OA
ATOM     32  C   UNL     1      49.823   8.225  16.768  0.00  0.00    +0.000 A 
ATOM     33  H   UNL     1      51.122   9.080  13.869  0.00  0.00    +0.000 HD
ENDBRANCH  22  23
ENDBRANCH   1  22
TORSDOF 6
ENDMDL
MODEL 7
REMARK VINA RESULT:    -6.981      3.201      4.056
REMARK INTER + INTRA:         -10.082
REMARK INTER:                  -9.373
REMARK INTRA:                  -0.709
REMARK UNBOUND:                -0.653
REMARK  Name = 
REMARK  7 active torsions:
REMARK  status: ('A' for Active; 'I' for Inactive)
REMARK    1  A    between atoms: C_1  and  C_2
REMARK    2  A    between atoms: C_2  and  N_3
REMARK    3  A    between atoms: C_2  and  C_21
REMARK    4  A    between atoms: C_4  and  C_6
REMARK    5  A    between atoms: C_9  and  C_10
REMARK    6  A    between atoms: C_10  and  N_11
REMARK    7  A    between atoms: C_12  and  C_14
REMARK                            x       y       z     vdW  Elec       q    Type
REMARK                         _______ _______ _______ _____ _____    ______ ____
ROOT
ATOM      1  N   UNL     1      47.320   7.728  14.049  0.00  0.00    +0.000 N 
ATOM      2  C   UNL     1      46.181   7.989  13.315  0.00  0.00    +0.000 C 
ATOM      3  O   UNL     1      45.712   9.110  13.154  0.00  0.00    +0.000 OA
ATOM      4  H   UNL     1      47.520   6.776  14.320  0.00  0.00    +0.000 HD
ENDROOT
BRANCH   2   5
ATOM      5  C   UNL     1      45.482   6.816  12.740  0.00  0.00    +0.000 A 
ATOM      6  C   UNL     1      44.411   6.927  11.854  0.00  0.00    +0.000 A 
ATOM      7  C   UNL     1      43.839   5.768  11.325  0.00  0.00    +0.000 A 
ATOM      8  C   UNL     1      44.343   4.521  11.701  0.00  0.00    +0.000 A 
ATOM      9  N   UNL     1      45.363   4.396  12.590  0.00  0.00    +0.000 NA
ATOM     10  C   UNL     1      45.896   5.540  13.098  0.00  0.00    +0.000 A 
BRANCH   8  11
ATOM     11  C   UNL     1      43.770   3.250  11.113  0.00  0.00    +0.000 C 
BRANCH  11  12
ATOM     12  N   UNL     1      44.660   2.606  10.171  0.00  0.00    +0.000 N 
ATOM     13  C   UNL     1      44.904   3.107   8.916  0.00  0.00    +0.000 C 
ATOM     14  O   UNL     1      44.374   4.128   8.481  0.00  0.00    +0.000 OA
ATOM     15  H   UNL     1      45.190   1.790  10.457  0.00  0.00    +0.000 HD
BRANCH  13  16
ATOM     16  C   UNL     1      45.855   2.309   8.137  0.00  0.00    +0.000 A 
ATOM     17  C   UNL     1      46.649   2.826   7.126  0.00  0.00    +0.000 A 
ATOM     18  S   UNL     1      47.631   1.599   6.447  0.00  0.00    +0.000 S 
ATOM     19  C   UNL     1      46.938   0.468   7.533  0.00  0.00    +0.000 A 
ATOM     20  N   UNL     1      46.028   0.936   8.361  0.00  0.00    +0.000 NA
ENDBRANCH  13  16
ENDBRANCH  11  12
ENDBRANCH   8  11
ENDBRANCH   2   5
BRANCH   1  22
ATOM     21  C   UNL     1      49.162   9.381  13.748  0.00  0.00    +0.000 C 
ATOM     22  C   UNL     1      48.093   8.787  14.672  0.00  0.00    +0.000 C 
BRANCH  22  23
ATOM     23  C   UNL     1      48.685   8.288  15.981  0.00  0.00    +0.000 A 
ATOM     24  C   UNL     1      49.025   6.958  16.189  0.00  0.00    +0.000 A 
ATOM     25  S   UNL     1      49.544   6.624  17.781  0.00  0.00    +0.000 S 
ATOM     26  C   UNL     1      49.360   8.250  18.246  0.00  0.00    +0.000 A 
ATOM     27  N   UNL     1      49.622   8.646  19.522  0.00  0.00    +0.000 NA
ATOM     28  C   UNL     1      49.438   9.907  19.734  0.00  0.00    +0.000 A 
ATOM     29  N   UNL     1      49.030  10.808  18.785  0.00  0.00    +0.000 N 
ATOM     30  C   UNL     1      48.818  10.465  17.467  0.00  0.00    +0.000 A 
ATOM     31  O   UNL     1      48.604  11.324  16.615  0.00  0.00    +0.000 OA
ATOM     32  C   UNL     1      48.943   9.045  17.192  0.00  0.00    +0.000 A 
ATOM     33  H   UNL     1      48.956  11.790  19.006  0.00  0.00    +0.000 HD
ENDBRANCH  22  23
ENDBRANCH   1  22
TORSDOF 6
ENDMDL
MODEL 8
REMARK VINA RESULT:    -6.564      2.444      3.259
REMARK INTER + INTRA:          -9.520
REMARK INTER:                  -8.547
REMARK INTRA:                  -0.972
REMARK UNBOUND:                -0.653
REMARK  Name = 
REMARK  7 active torsions:
REMARK  status: ('A' for Active; 'I' for Inactive)
REMARK    1  A    between atoms: C_1  and  C_2
REMARK    2  A    between atoms: C_2  and  N_3
REMARK    3  A    between atoms: C_2  and  C_21
REMARK    4  A    between atoms: C_4  and  C_6
REMARK    5  A    between atoms: C_9  and  C_10
REMARK    6  A    between atoms: C_10  and  N_11
REMARK    7  A    between atoms: C_12  and  C_14
REMARK                            x       y       z     vdW  Elec       q    Type
REMARK                         _______ _______ _______ _____ _____    ______ ____
ROOT
ATOM      1  N   UNL     1      48.217   6.707  16.128  0.00  0.00    +0.000 N 
ATOM      2  C   UNL     1      47.979   5.424  15.676  0.00  0.00    +0.000 C 
ATOM      3  O   UNL     1      48.407   4.415  16.223  0.00  0.00    +0.000 OA
ATOM      4  H   UNL     1      48.024   7.485  15.515  0.00  0.00    +0.000 HD
ENDROOT
BRANCH   2   5
ATOM      5  C   UNL     1      47.195   5.299  14.425  0.00  0.00    +0.000 A 
ATOM      6  C   UNL     1      46.600   4.107  14.016  0.00  0.00    +0.000 A 
ATOM      7  C   UNL     1      45.840   4.090  12.844  0.00  0.00    +0.000 A 
ATOM      8  C   UNL     1      45.701   5.263  12.099  0.00  0.00    +0.000 A 
ATOM      9  N   UNL     1      46.305   6.424  12.467  0.00  0.00    +0.000 NA
ATOM     10  C   UNL     1      47.046   6.411  13.606  0.00  0.00    +0.000 A 
BRANCH   8  11
ATOM     11  C   UNL     1      44.851   5.284  10.847  0.00  0.00    +0.000 C 
BRANCH  11  12
ATOM     12  N   UNL     1      45.471   4.611   9.726  0.00  0.00    +0.000 N 
ATOM     13  C   UNL     1      45.007   3.420   9.224  0.00  0.00    +0.000 C 
ATOM     14  O   UNL     1      44.044   2.817   9.694  0.00  0.00    +0.000 OA
ATOM     15  H   UNL     1      46.237   5.057   9.232  0.00  0.00    +0.000 HD
BRANCH  13  16
ATOM     16  C   UNL     1      45.770   2.928   8.073  0.00  0.00    +0.000 A 
ATOM     17  C   UNL     1      46.329   1.663   8.004  0.00  0.00    +0.000 A 
ATOM     18  S   UNL     1      47.141   1.446   6.512  0.00  0.00    +0.000 S 
ATOM     19  C   UNL     1      46.701   3.041   6.062  0.00  0.00    +0.000 A 
ATOM     20  N   UNL     1      45.997   3.722   6.941  0.00  0.00    +0.000 NA
ENDBRANCH  13  16
ENDBRANCH  11  12
ENDBRANCH   8  11
ENDBRANCH   2   5
BRANCH   1  22
ATOM     21  C   UNL     1      48.109   7.424  18.514  0.00  0.00    +0.000 C 
ATOM     22  C   UNL     1      48.977   6.967  17.337  0.00  0.00    +0.000 C 
BRANCH  22  23
ATOM     23  C   UNL     1      50.095   7.955  17.036  0.00  0.00    +0.000 A 
ATOM     24  C   UNL     1      49.929   9.328  17.145  0.00  0.00    +0.000 A 
ATOM     25  S   UNL     1      51.284  10.226  16.626  0.00  0.00    +0.000 S 
ATOM     26  C   UNL     1      52.157   8.812  16.262  0.00  0.00    +0.000 A 
ATOM     27  N   UNL     1      53.414   8.880  15.743  0.00  0.00    +0.000 NA
ATOM     28  C   UNL     1      53.956   7.729  15.513  0.00  0.00    +0.000 A 
ATOM     29  N   UNL     1      53.361   6.521  15.767  0.00  0.00    +0.000 N 
ATOM     30  C   UNL     1      52.118   6.404  16.352  0.00  0.00    +0.000 A 
ATOM     31  O   UNL     1      51.684   5.310  16.705  0.00  0.00    +0.000 OA
ATOM     32  C   UNL     1      51.438   7.669  16.565  0.00  0.00    +0.000 A 
ATOM     33  H   UNL     1      53.862   5.658  15.611  0.00  0.00    +0.000 HD
ENDBRANCH  22  23
ENDBRANCH   1  22
TORSDOF 6
ENDMDL
MODEL 9
REMARK VINA RESULT:    -6.469      2.687      9.791
REMARK INTER + INTRA:          -9.391
REMARK INTER:                  -8.582
REMARK INTRA:                  -0.809
REMARK UNBOUND:                -0.653
REMARK  Name = 
REMARK  7 active torsions:
REMARK  status: ('A' for Active; 'I' for Inactive)
REMARK    1  A    between atoms: C_1  and  C_2
REMARK    2  A    between atoms: C_2  and  N_3
REMARK    3  A    between atoms: C_2  and  C_21
REMARK    4  A    between atoms: C_4  and  C_6
REMARK    5  A    between atoms: C_9  and  C_10
REMARK    6  A    between atoms: C_10  and  N_11
REMARK    7  A    between atoms: C_12  and  C_14
REMARK                            x       y       z     vdW  Elec       q    Type
REMARK                         _______ _______ _______ _____ _____    ______ ____
ROOT
ATOM      1  N   UNL     1      46.160   5.919  13.665  0.00  0.00    +0.000 N 
ATOM      2  C   UNL     1      47.461   5.547  13.941  0.00  0.00    +0.000 C 
ATOM      3  O   UNL     1      48.320   5.372  13.085  0.00  0.00    +0.000 OA
ATOM      4  H   UNL     1      45.462   5.829  14.389  0.00  0.00    +0.000 HD
ENDROOT
BRANCH   2   5
ATOM      5  C   UNL     1      47.792   5.309  15.366  0.00  0.00    +0.000 A 
ATOM      6  C   UNL     1      47.280   4.238  16.097  0.00  0.00    +0.000 A 
ATOM      7  C   UNL     1      47.680   4.065  17.424  0.00  0.00    +0.000 A 
ATOM      8  C   UNL     1      48.575   4.972  17.995  0.00  0.00    +0.000 A 
ATOM      9  N   UNL     1      49.055   6.040  17.305  0.00  0.00    +0.000 NA
ATOM     10  C   UNL     1      48.642   6.191  16.019  0.00  0.00    +0.000 A 
BRANCH   8  11
ATOM     11  C   UNL     1      49.057   4.785  19.418  0.00  0.00    +0.000 C 
BRANCH  11  12
ATOM     12  N   UNL     1      50.309   5.459  19.688  0.00  0.00    +0.000 N 
ATOM     13  C   UNL     1      51.530   4.915  19.376  0.00  0.00    +0.000 C 
ATOM     14  O   UNL     1      51.664   3.807  18.862  0.00  0.00    +0.000 OA
ATOM     15  H   UNL     1      50.302   6.405  20.057  0.00  0.00    +0.000 HD
BRANCH  13  16
ATOM     16  C   UNL     1      52.665   5.779  19.716  0.00  0.00    +0.000 A 
ATOM     17  C   UNL     1      52.730   6.550  20.865  0.00  0.00    +0.000 A 
ATOM     18  S   UNL     1      54.203   7.422  20.920  0.00  0.00    +0.000 S 
ATOM     19  C   UNL     1      54.651   6.723  19.420  0.00  0.00    +0.000 A 
ATOM     20  N   UNL     1      53.785   5.892  18.881  0.00  0.00    +0.000 NA
ENDBRANCH  13  16
ENDBRANCH  11  12
ENDBRANCH   8  11
ENDBRANCH   2   5
BRANCH   1  22
ATOM     21  C   UNL     1      44.907   7.475  12.174  0.00  0.00    +0.000 C 
ATOM     22  C   UNL     1      45.706   6.175  12.310  0.00  0.00    +0.000 C 
BRANCH  22  23
ATOM     23  C   UNL     1      44.930   4.972  11.794  0.00  0.00    +0.000 A 
ATOM     24  C   UNL     1      44.068   4.238  12.597  0.00  0.00    +0.000 A 
ATOM     25  S   UNL     1      43.420   2.860  11.827  0.00  0.00    +0.000 S 
ATOM     26  C   UNL     1      44.245   3.208  10.380  0.00  0.00    +0.000 A 
ATOM     27  N   UNL     1      44.138   2.385   9.300  0.00  0.00    +0.000 NA
ATOM     28  C   UNL     1      44.820   2.770   8.271  0.00  0.00    +0.000 A 
ATOM     29  N   UNL     1      45.584   3.906   8.221  0.00  0.00    +0.000 N 
ATOM     30  C   UNL     1      45.668   4.801   9.266  0.00  0.00    +0.000 A 
ATOM     31  O   UNL     1      46.237   5.882   9.132  0.00  0.00    +0.000 OA
ATOM     32  C   UNL     1      44.977   4.378  10.471  0.00  0.00    +0.000 A 
ATOM     33  H   UNL     1      46.051   4.175   7.367  0.00  0.00    +0.000 HD
ENDBRANCH  22  23
ENDBRANCH   1  22
TORSDOF 6
ENDMDL
