MODEL 1
REMARK VINA RESULT:    -8.284      0.000      0.000
REMARK INTER + INTRA:         -13.591
REMARK INTER:                 -12.159
REMARK INTRA:                  -1.432
REMARK UNBOUND:                -1.432
REMARK  Name = 
REMARK  9 active torsions:
REMARK  status: ('A' for Active; 'I' for Inactive)
REMARK    1  A    between atoms: C_2  and  C_22
REMARK    2  A    between atoms: N_3  and  C_4
REMARK    3  A    between atoms: C_4  and  C_5
REMARK    4  A    between atoms: C_8  and  C_9
REMARK    5  A    between atoms: C_9  and  O_10
REMARK    6  A    between atoms: C_9  and  C_11
REMARK    7  A    between atoms: C_9  and  C_13
REMARK    8  A    between atoms: C_11  and  O_12
REMARK    9  A    between atoms: C_13  and  C_14
REMARK                            x       y       z     vdW  Elec       q    Type
REMARK                         _______ _______ _______ _____ _____    ______ ____
ROOT
ATOM      1  C   UNL     1      47.295   6.273  12.958  0.00  0.00    +0.000 A 
ATOM      2  C   UNL     1      46.795   6.713  11.733  0.00  0.00    +0.000 A 
ATOM      3  C   UNL     1      45.729   6.049  11.137  0.00  0.00    +0.000 A 
ATOM      4  C   UNL     1      45.198   4.926  11.764  0.00  0.00    +0.000 A 
ATOM      5  N   UNL     1      45.706   4.442  12.936  0.00  0.00    +0.000 NA
ATOM      6  C   UNL     1      46.725   5.130  13.504  0.00  0.00    +0.000 A 
ENDROOT
BRANCH   1   7
ATOM      7  C   UNL     1      48.423   6.993  13.629  0.00  0.00    +0.000 C 
BRANCH   7  10
ATOM      8  O   UNL     1      50.491   6.659  15.529  0.00  0.00    +0.000 OA
ATOM      9  C   UNL     1      49.343   6.850  15.916  0.00  0.00    +0.000 C 
ATOM     10  N   UNL     1      48.282   6.985  15.059  0.00  0.00    +0.000 N 
ATOM     11  H   UNL     1      47.374   7.245  15.424  0.00  0.00    +0.000 HD
BRANCH   9  12
ATOM     12  C   UNL     1      49.014   6.916  17.343  0.00  0.00    +0.000 A 
ATOM     13  C   UNL     1      48.616   8.117  17.914  0.00  0.00    +0.000 A 
ATOM     14  S   UNL     1      48.271   7.998  19.580  0.00  0.00    +0.000 S 
ATOM     15  C   UNL     1      48.600   6.327  19.586  0.00  0.00    +0.000 A 
ATOM     16  N   UNL     1      48.464   5.590  20.720  0.00  0.00    +0.000 NA
ATOM     17  C   UNL     1      48.707   4.331  20.571  0.00  0.00    +0.000 A 
ATOM     18  N   UNL     1      49.085   3.741  19.391  0.00  0.00    +0.000 N 
ATOM     19  C   UNL     1      49.302   4.456  18.237  0.00  0.00    +0.000 A 
ATOM     20  O   UNL     1      49.759   3.916  17.237  0.00  0.00    +0.000 OA
ATOM     21  C   UNL     1      48.997   5.872  18.341  0.00  0.00    +0.000 A 
ATOM     22  H   UNL     1      49.290   2.755  19.348  0.00  0.00    +0.000 HD
ENDBRANCH   9  12
ENDBRANCH   7  10
ENDBRANCH   1   7
BRANCH   4  23
ATOM     23  C   UNL     1      44.005   4.154  11.199  0.00  0.00    +0.000 C 
BRANCH  23  24
ATOM     24  O   UNL     1      44.105   2.770  11.633  0.00  0.00    +0.000 OA
ATOM     25  H   UNL     1      43.406   2.691  12.320  0.00  0.00    +0.000 HD
ENDBRANCH  23  24
BRANCH  23  26
ATOM     26  C   UNL     1      42.689   4.677  11.835  0.00  0.00    +0.000 C 
BRANCH  26  27
ATOM     27  O   UNL     1      42.918   5.535  12.958  0.00  0.00    +0.000 OA
ATOM     28  H   UNL     1      42.858   6.446  12.612  0.00  0.00    +0.000 HD
ENDBRANCH  26  27
ENDBRANCH  23  26
BRANCH  23  29
ATOM     29  C   UNL     1      43.856   4.207   9.658  0.00  0.00    +0.000 C 
BRANCH  29  30
ATOM     30  C   UNL     1      44.914   3.466   8.872  0.00  0.00    +0.000 A 
ATOM     31  C   UNL     1      45.782   4.146   8.021  0.00  0.00    +0.000 A 
ATOM     32  C   UNL     1      46.741   3.427   7.317  0.00  0.00    +0.000 A 
ATOM     33  C   UNL     1      46.820   2.052   7.489  0.00  0.00    +0.000 A 
ATOM     34  C   UNL     1      45.935   1.453   8.365  0.00  0.00    +0.000 A 
ATOM     35  N   UNL     1      44.990   2.123   9.059  0.00  0.00    +0.000 NA
ENDBRANCH  29  30
ENDBRANCH  23  29
ENDBRANCH   4  23
TORSDOF 9
ENDMDL
MODEL 2
REMARK VINA RESULT:    -8.112      1.339      2.007
REMARK INTER + INTRA:         -13.338
REMARK INTER:                 -11.841
REMARK INTRA:                  -1.498
REMARK UNBOUND:                -1.432
REMARK  Name = 
REMARK  9 active torsions:
REMARK  status: ('A' for Active; 'I' for Inactive)
REMARK    1  A    between atoms: C_2  and  C_22
REMARK    2  A    between atoms: N_3  and  C_4
REMARK    3  A    between atoms: C_4  and  C_5
REMARK    4  A    between atoms: C_8  and  C_9
REMARK    5  A    between atoms: C_9  and  O_10
REMARK    6  A    between atoms: C_9  and  C_11
REMARK    7  A    between atoms: C_9  and  C_13
REMARK    8  A    between atoms: C_11  and  O_12
REMARK    9  A    between atoms: C_13  and  C_14
REMARK                            x       y       z     vdW  Elec       q    Type
REMARK                         _______ _______ _______ _____ _____    ______ ____
ROOT
ATOM      1  C   UNL     1      47.237   6.035  13.231  0.00  0.00    +0.000 A 
ATOM      2  C   UNL     1      46.858   6.564  11.998  0.00  0.00    +0.000 A 
ATOM      3  C   UNL     1      45.813   5.988  11.286  0.00  0.00    +0.000 A 
ATOM      4  C   UNL     1      45.178   4.865  11.807  0.00  0.00    +0.000 A 
ATOM      5  N   UNL     1      45.566   4.296  12.986  0.00  0.00    +0.000 NA
ATOM      6  C   UNL     1      46.569   4.898  13.668  0.00  0.00    +0.000 A 
ENDROOT
BRANCH   1   7
ATOM      7  C   UNL     1      48.342   6.659  14.025  0.00  0.00    +0.000 C 
BRANCH   7  10
ATOM      8  O   UNL     1      50.410   6.302  15.922  0.00  0.00    +0.000 OA
ATOM      9  C   UNL     1      49.242   6.290  16.296  0.00  0.00    +0.000 C 
ATOM     10  N   UNL     1      48.184   6.419  15.434  0.00  0.00    +0.000 N 
ATOM     11  H   UNL     1      47.245   6.507  15.804  0.00  0.00    +0.000 HD
BRANCH   9  12
ATOM     12  C   UNL     1      48.889   6.099  17.706  0.00  0.00    +0.000 A 
ATOM     13  C   UNL     1      49.134   4.883  18.328  0.00  0.00    +0.000 A 
ATOM     14  S   UNL     1      48.664   4.851  19.967  0.00  0.00    +0.000 S 
ATOM     15  C   UNL     1      48.158   6.476  19.913  0.00  0.00    +0.000 A 
ATOM     16  N   UNL     1      47.667   7.094  21.019  0.00  0.00    +0.000 NA
ATOM     17  C   UNL     1      47.360   8.337  20.844  0.00  0.00    +0.000 A 
ATOM     18  N   UNL     1      47.490   9.015  19.659  0.00  0.00    +0.000 N 
ATOM     19  C   UNL     1      47.915   8.413  18.498  0.00  0.00    +0.000 A 
ATOM     20  O   UNL     1      47.899   9.016  17.432  0.00  0.00    +0.000 OA
ATOM     21  C   UNL     1      48.317   7.026  18.653  0.00  0.00    +0.000 A 
ATOM     22  H   UNL     1      47.202   9.978  19.580  0.00  0.00    +0.000 HD
ENDBRANCH   9  12
ENDBRANCH   7  10
ENDBRANCH   1   7
BRANCH   4  23
ATOM     23  C   UNL     1      43.997   4.188  11.110  0.00  0.00    +0.000 C 
BRANCH  23  24
ATOM     24  O   UNL     1      43.992   2.781  11.477  0.00  0.00    +0.000 OA
ATOM     25  H   UNL     1      44.869   2.649  11.902  0.00  0.00    +0.000 HD
ENDBRANCH  23  24
BRANCH  23  26
ATOM     26  C   UNL     1      42.662   4.750  11.667  0.00  0.00    +0.000 C 
BRANCH  26  27
ATOM     27  O   UNL     1      42.814   5.378  12.946  0.00  0.00    +0.000 OA
ATOM     28  H   UNL     1      42.472   4.737  13.597  0.00  0.00    +0.000 HD
ENDBRANCH  26  27
ENDBRANCH  23  26
BRANCH  23  29
ATOM     29  C   UNL     1      43.977   4.324   9.567  0.00  0.00    +0.000 C 
BRANCH  29  30
ATOM     30  C   UNL     1      44.988   3.481   8.823  0.00  0.00    +0.000 A 
ATOM     31  C   UNL     1      45.928   4.070   7.980  0.00  0.00    +0.000 A 
ATOM     32  C   UNL     1      46.840   3.259   7.314  0.00  0.00    +0.000 A 
ATOM     33  C   UNL     1      46.803   1.886   7.515  0.00  0.00    +0.000 A 
ATOM     34  C   UNL     1      45.852   1.381   8.381  0.00  0.00    +0.000 A 
ATOM     35  N   UNL     1      44.949   2.142   9.039  0.00  0.00    +0.000 NA
ENDBRANCH  29  30
ENDBRANCH  23  29
ENDBRANCH   4  23
TORSDOF 9
ENDMDL
MODEL 3
REMARK VINA RESULT:    -7.873      1.906      2.290
REMARK INTER + INTRA:         -12.987
REMARK INTER:                 -11.386
REMARK INTRA:                  -1.601
REMARK UNBOUND:                -1.432
REMARK  Name = 
REMARK  9 active torsions:
REMARK  status: ('A' for Active; 'I' for Inactive)
REMARK    1  A    between atoms: C_2  and  C_22
REMARK    2  A    between atoms: N_3  and  C_4
REMARK    3  A    between atoms: C_4  and  C_5
REMARK    4  A    between atoms: C_8  and  C_9
REMARK    5  A    between atoms: C_9  and  O_10
REMARK    6  A    between atoms: C_9  and  C_11
REMARK    7  A    between atoms: C_9  and  C_13
REMARK    8  A    between atoms: C_11  and  O_12
REMARK    9  A    between atoms: C_13  and  C_14
REMARK                            x       y       z     vdW  Elec       q    Type
REMARK                         _______ _______ _______ _____ _____    ______ ____
ROOT
ATOM      1  C   UNL     1      47.533   6.864  12.577  0.00  0.00    +0.000 A 
ATOM      2  C   UNL     1      47.535   5.659  13.277  0.00  0.00    +0.000 A 
ATOM      3  C   UNL     1      46.489   4.758  13.115  0.00  0.00    +0.000 A 
ATOM      4  C   UNL     1      45.432   5.094  12.274  0.00  0.00    +0.000 A 
ATOM      5  N   UNL     1      45.381   6.291  11.620  0.00  0.00    +0.000 NA
ATOM      6  C   UNL     1      46.429   7.133  11.777  0.00  0.00    +0.000 A 
ENDROOT
BRANCH   1   7
ATOM      7  C   UNL     1      48.665   7.834  12.717  0.00  0.00    +0.000 C 
BRANCH   7  10
ATOM      8  O   UNL     1      48.927   8.492  15.455  0.00  0.00    +0.000 OA
ATOM      9  C   UNL     1      49.707   7.692  14.951  0.00  0.00    +0.000 C 
ATOM     10  N   UNL     1      49.669   7.350  13.624  0.00  0.00    +0.000 N 
ATOM     11  H   UNL     1      50.267   6.607  13.282  0.00  0.00    +0.000 HD
BRANCH   9  12
ATOM     12  C   UNL     1      50.773   7.061  15.736  0.00  0.00    +0.000 A 
ATOM     13  C   UNL     1      52.086   7.493  15.604  0.00  0.00    +0.000 A 
ATOM     14  S   UNL     1      53.183   6.648  16.599  0.00  0.00    +0.000 S 
ATOM     15  C   UNL     1      51.935   5.706  17.273  0.00  0.00    +0.000 A 
ATOM     16  N   UNL     1      52.195   4.783  18.236  0.00  0.00    +0.000 NA
ATOM     17  C   UNL     1      51.150   4.171  18.685  0.00  0.00    +0.000 A 
ATOM     18  N   UNL     1      49.867   4.391  18.250  0.00  0.00    +0.000 N 
ATOM     19  C   UNL     1      49.565   5.263  17.232  0.00  0.00    +0.000 A 
ATOM     20  O   UNL     1      48.427   5.341  16.785  0.00  0.00    +0.000 OA
ATOM     21  C   UNL     1      50.701   6.011  16.724  0.00  0.00    +0.000 A 
ATOM     22  H   UNL     1      49.097   3.856  18.621  0.00  0.00    +0.000 HD
ENDBRANCH   9  12
ENDBRANCH   7  10
ENDBRANCH   1   7
BRANCH   4  23
ATOM     23  C   UNL     1      44.258   4.151  12.009  0.00  0.00    +0.000 C 
BRANCH  23  24
ATOM     24  O   UNL     1      44.659   2.803  12.374  0.00  0.00    +0.000 OA
ATOM     25  H   UNL     1      44.021   2.554  13.081  0.00  0.00    +0.000 HD
ENDBRANCH  23  24
BRANCH  23  26
ATOM     26  C   UNL     1      43.083   4.490  12.966  0.00  0.00    +0.000 C 
BRANCH  26  27
ATOM     27  O   UNL     1      43.048   5.875  13.334  0.00  0.00    +0.000 OA
ATOM     28  H   UNL     1      42.231   6.232  12.937  0.00  0.00    +0.000 HD
ENDBRANCH  26  27
ENDBRANCH  23  26
BRANCH  23  29
ATOM     29  C   UNL     1      43.721   4.160  10.556  0.00  0.00    +0.000 C 
BRANCH  29  30
ATOM     30  C   UNL     1      44.635   3.553   9.517  0.00  0.00    +0.000 A 
ATOM     31  C   UNL     1      45.309   4.357   8.600  0.00  0.00    +0.000 A 
ATOM     32  C   UNL     1      46.142   3.759   7.661  0.00  0.00    +0.000 A 
ATOM     33  C   UNL     1      46.292   2.379   7.667  0.00  0.00    +0.000 A 
ATOM     34  C   UNL     1      45.604   1.654   8.620  0.00  0.00    +0.000 A 
ATOM     35  N   UNL     1      44.785   2.204   9.542  0.00  0.00    +0.000 NA
ENDBRANCH  29  30
ENDBRANCH  23  29
ENDBRANCH   4  23
TORSDOF 9
ENDMDL
MODEL 4
REMARK VINA RESULT:    -7.220      1.650      2.163
REMARK INTER + INTRA:         -12.028
REMARK INTER:                 -10.617
REMARK INTRA:                  -1.411
REMARK UNBOUND:                -1.432
REMARK  Name = 
REMARK  9 active torsions:
REMARK  status: ('A' for Active; 'I' for Inactive)
REMARK    1  A    between atoms: C_2  and  C_22
REMARK    2  A    between atoms: N_3  and  C_4
REMARK    3  A    between atoms: C_4  and  C_5
REMARK    4  A    between atoms: C_8  and  C_9
REMARK    5  A    between atoms: C_9  and  O_10
REMARK    6  A    between atoms: C_9  and  C_11
REMARK    7  A    between atoms: C_9  and  C_13
REMARK    8  A    between atoms: C_11  and  O_12
REMARK    9  A    between atoms: C_13  and  C_14
REMARK                            x       y       z     vdW  Elec       q    Type
REMARK                         _______ _______ _______ _____ _____    ______ ____
ROOT
ATOM      1  C   UNL     1      47.332   6.329  13.092  0.00  0.00    +0.000 A 
ATOM      2  C   UNL     1      46.947   5.072  13.556  0.00  0.00    +0.000 A 
ATOM      3  C   UNL     1      45.790   4.475  13.069  0.00  0.00    +0.000 A 
ATOM      4  C   UNL     1      45.013   5.164  12.142  0.00  0.00    +0.000 A 
ATOM      5  N   UNL     1      45.341   6.418  11.713  0.00  0.00    +0.000 NA
ATOM      6  C   UNL     1      46.489   6.959  12.186  0.00  0.00    +0.000 A 
ENDROOT
BRANCH   1   7
ATOM      7  C   UNL     1      48.590   6.975  13.584  0.00  0.00    +0.000 C 
BRANCH   7  10
ATOM      8  O   UNL     1      50.902   7.667  15.059  0.00  0.00    +0.000 OA
ATOM      9  C   UNL     1      50.040   6.970  15.583  0.00  0.00    +0.000 C 
ATOM     10  N   UNL     1      48.910   6.562  14.923  0.00  0.00    +0.000 N 
ATOM     11  H   UNL     1      48.182   6.075  15.431  0.00  0.00    +0.000 HD
BRANCH   9  12
ATOM     12  C   UNL     1      50.175   6.488  16.961  0.00  0.00    +0.000 A 
ATOM     13  C   UNL     1      50.964   5.380  17.238  0.00  0.00    +0.000 A 
ATOM     14  S   UNL     1      51.006   4.972  18.894  0.00  0.00    +0.000 S 
ATOM     15  C   UNL     1      50.007   6.289  19.302  0.00  0.00    +0.000 A 
ATOM     16  N   UNL     1      49.671   6.540  20.595  0.00  0.00    +0.000 NA
ATOM     17  C   UNL     1      48.943   7.594  20.763  0.00  0.00    +0.000 A 
ATOM     18  N   UNL     1      48.510   8.414  19.752  0.00  0.00    +0.000 N 
ATOM     19  C   UNL     1      48.766   8.162  18.426  0.00  0.00    +0.000 A 
ATOM     20  O   UNL     1      48.260   8.844  17.543  0.00  0.00    +0.000 OA
ATOM     21  C   UNL     1      49.622   7.013  18.187  0.00  0.00    +0.000 A 
ATOM     22  H   UNL     1      47.916   9.206  19.947  0.00  0.00    +0.000 HD
ENDBRANCH   9  12
ENDBRANCH   7  10
ENDBRANCH   1   7
BRANCH   4  23
ATOM     23  C   UNL     1      43.745   4.571  11.528  0.00  0.00    +0.000 C 
BRANCH  23  24
ATOM     24  O   UNL     1      43.641   3.181  11.939  0.00  0.00    +0.000 OA
ATOM     25  H   UNL     1      44.436   2.761  11.540  0.00  0.00    +0.000 HD
ENDBRANCH  23  24
BRANCH  23  26
ATOM     26  C   UNL     1      42.493   5.261  12.133  0.00  0.00    +0.000 C 
BRANCH  26  27
ATOM     27  O   UNL     1      42.236   6.548  11.559  0.00  0.00    +0.000 OA
ATOM     28  H   UNL     1      42.859   6.633  10.812  0.00  0.00    +0.000 HD
ENDBRANCH  26  27
ENDBRANCH  23  26
BRANCH  23  29
ATOM     29  C   UNL     1      43.655   4.666   9.984  0.00  0.00    +0.000 C 
BRANCH  29  30
ATOM     30  C   UNL     1      44.622   3.792   9.217  0.00  0.00    +0.000 A 
ATOM     31  C   UNL     1      45.556   4.351   8.348  0.00  0.00    +0.000 A 
ATOM     32  C   UNL     1      46.427   3.512   7.662  0.00  0.00    +0.000 A 
ATOM     33  C   UNL     1      46.355   2.141   7.870  0.00  0.00    +0.000 A 
ATOM     34  C   UNL     1      45.414   1.667   8.762  0.00  0.00    +0.000 A 
ATOM     35  N   UNL     1      44.550   2.455   9.440  0.00  0.00    +0.000 NA
ENDBRANCH  29  30
ENDBRANCH  23  29
ENDBRANCH   4  23
TORSDOF 9
ENDMDL
MODEL 5
REMARK VINA RESULT:    -7.145      4.106      4.896
REMARK INTER + INTRA:         -11.919
REMARK INTER:                 -10.363
REMARK INTRA:                  -1.557
REMARK UNBOUND:                -1.432
REMARK  Name = 
REMARK  9 active torsions:
REMARK  status: ('A' for Active; 'I' for Inactive)
REMARK    1  A    between atoms: C_2  and  C_22
REMARK    2  A    between atoms: N_3  and  C_4
REMARK    3  A    between atoms: C_4  and  C_5
REMARK    4  A    between atoms: C_8  and  C_9
REMARK    5  A    between atoms: C_9  and  O_10
REMARK    6  A    between atoms: C_9  and  C_11
REMARK    7  A    between atoms: C_9  and  C_13
REMARK    8  A    between atoms: C_11  and  O_12
REMARK    9  A    between atoms: C_13  and  C_14
REMARK                            x       y       z     vdW  Elec       q    Type
REMARK                         _______ _______ _______ _____ _____    ______ ____
ROOT
ATOM      1  C   UNL     1      46.237   6.918  12.733  0.00  0.00    +0.000 A 
ATOM      2  C   UNL     1      46.089   6.931  11.347  0.00  0.00    +0.000 A 
ATOM      3  C   UNL     1      45.587   5.813  10.690  0.00  0.00    +0.000 A 
ATOM      4  C   UNL     1      45.270   4.680  11.433  0.00  0.00    +0.000 A 
ATOM      5  N   UNL     1      45.458   4.624  12.784  0.00  0.00    +0.000 NA
ATOM      6  C   UNL     1      45.921   5.740  13.396  0.00  0.00    +0.000 A 
ENDROOT
BRANCH   1   7
ATOM      7  C   UNL     1      46.750   8.123  13.460  0.00  0.00    +0.000 C 
BRANCH   7  10
ATOM      8  O   UNL     1      48.226  10.535  13.501  0.00  0.00    +0.000 OA
ATOM      9  C   UNL     1      48.819   9.468  13.385  0.00  0.00    +0.000 C 
ATOM     10  N   UNL     1      48.173   8.261  13.320  0.00  0.00    +0.000 N 
ATOM     11  H   UNL     1      48.713   7.404  13.329  0.00  0.00    +0.000 HD
BRANCH   9  12
ATOM     12  C   UNL     1      50.280   9.411  13.272  0.00  0.00    +0.000 A 
ATOM     13  C   UNL     1      51.077  10.112  14.166  0.00  0.00    +0.000 A 
ATOM     14  S   UNL     1      52.748   9.921  13.883  0.00  0.00    +0.000 S 
ATOM     15  C   UNL     1      52.463   8.859  12.582  0.00  0.00    +0.000 A 
ATOM     16  N   UNL     1      53.494   8.292  11.901  0.00  0.00    +0.000 NA
ATOM     17  C   UNL     1      53.133   7.477  10.967  0.00  0.00    +0.000 A 
ATOM     18  N   UNL     1      51.832   7.184  10.644  0.00  0.00    +0.000 N 
ATOM     19  C   UNL     1      50.759   7.785  11.257  0.00  0.00    +0.000 A 
ATOM     20  O   UNL     1      49.616   7.595  10.859  0.00  0.00    +0.000 OA
ATOM     21  C   UNL     1      51.111   8.677  12.348  0.00  0.00    +0.000 A 
ATOM     22  H   UNL     1      51.617   6.561   9.881  0.00  0.00    +0.000 HD
ENDBRANCH   9  12
ENDBRANCH   7  10
ENDBRANCH   1   7
BRANCH   4  23
ATOM     23  C   UNL     1      44.681   3.419  10.801  0.00  0.00    +0.000 C 
BRANCH  23  24
ATOM     24  O   UNL     1      45.547   2.296  11.120  0.00  0.00    +0.000 OA
ATOM     25  H   UNL     1      46.192   2.283  10.378  0.00  0.00    +0.000 HD
ENDBRANCH  23  24
BRANCH  23  26
ATOM     26  C   UNL     1      43.322   3.077  11.470  0.00  0.00    +0.000 C 
BRANCH  26  27
ATOM     27  O   UNL     1      43.464   2.213  12.604  0.00  0.00    +0.000 OA
ATOM     28  H   UNL     1      44.410   2.245  12.844  0.00  0.00    +0.000 HD
ENDBRANCH  26  27
ENDBRANCH  23  26
BRANCH  23  29
ATOM     29  C   UNL     1      44.464   3.490   9.268  0.00  0.00    +0.000 C 
BRANCH  29  30
ATOM     30  C   UNL     1      45.539   2.843   8.425  0.00  0.00    +0.000 A 
ATOM     31  C   UNL     1      46.358   3.609   7.599  0.00  0.00    +0.000 A 
ATOM     32  C   UNL     1      47.335   2.975   6.839  0.00  0.00    +0.000 A 
ATOM     33  C   UNL     1      47.480   1.597   6.932  0.00  0.00    +0.000 A 
ATOM     34  C   UNL     1      46.640   0.911   7.788  0.00  0.00    +0.000 A 
ATOM     35  N   UNL     1      45.679   1.497   8.534  0.00  0.00    +0.000 NA
ENDBRANCH  29  30
ENDBRANCH  23  29
ENDBRANCH   4  23
TORSDOF 9
ENDMDL
MODEL 6
REMARK VINA RESULT:    -6.917      2.707      3.555
REMARK INTER + INTRA:         -11.583
REMARK INTER:                 -10.033
REMARK INTRA:                  -1.550
REMARK UNBOUND:                -1.432
REMARK  Name = 
REMARK  9 active torsions:
REMARK  status: ('A' for Active; 'I' for Inactive)
REMARK    1  A    between atoms: C_2  and  C_22
REMARK    2  A    between atoms: N_3  and  C_4
REMARK    3  A    between atoms: C_4  and  C_5
REMARK    4  A    between atoms: C_8  and  C_9
REMARK    5  A    between atoms: C_9  and  O_10
REMARK    6  A    between atoms: C_9  and  C_11
REMARK    7  A    between atoms: C_9  and  C_13
REMARK    8  A    between atoms: C_11  and  O_12
REMARK    9  A    between atoms: C_13  and  C_14
REMARK                            x       y       z     vdW  Elec       q    Type
REMARK                         _______ _______ _______ _____ _____    ______ ____
ROOT
ATOM      1  C   UNL     1      46.940   7.119  12.296  0.00  0.00    +0.000 A 
ATOM      2  C   UNL     1      47.161   5.875  12.886  0.00  0.00    +0.000 A 
ATOM      3  C   UNL     1      46.344   4.797  12.563  0.00  0.00    +0.000 A 
ATOM      4  C   UNL     1      45.292   4.990  11.673  0.00  0.00    +0.000 A 
ATOM      5  N   UNL     1      45.022   6.211  11.124  0.00  0.00    +0.000 NA
ATOM      6  C   UNL     1      45.854   7.233  11.438  0.00  0.00    +0.000 A 
ENDROOT
BRANCH   1   7
ATOM      7  C   UNL     1      47.827   8.284  12.610  0.00  0.00    +0.000 C 
BRANCH   7  10
ATOM      8  O   UNL     1      48.110   8.933  15.348  0.00  0.00    +0.000 OA
ATOM      9  C   UNL     1      48.959   8.234  14.804  0.00  0.00    +0.000 C 
ATOM     10  N   UNL     1      48.912   7.907  13.474  0.00  0.00    +0.000 N 
ATOM     11  H   UNL     1      49.579   7.243  13.099  0.00  0.00    +0.000 HD
BRANCH   9  12
ATOM     12  C   UNL     1      50.117   7.721  15.541  0.00  0.00    +0.000 A 
ATOM     13  C   UNL     1      49.948   7.138  16.790  0.00  0.00    +0.000 A 
ATOM     14  S   UNL     1      51.405   6.595  17.490  0.00  0.00    +0.000 S 
ATOM     15  C   UNL     1      52.306   7.081  16.129  0.00  0.00    +0.000 A 
ATOM     16  N   UNL     1      53.648   6.872  16.066  0.00  0.00    +0.000 NA
ATOM     17  C   UNL     1      54.196   7.252  14.961  0.00  0.00    +0.000 A 
ATOM     18  N   UNL     1      53.526   7.834  13.915  0.00  0.00    +0.000 N 
ATOM     19  C   UNL     1      52.184   8.127  13.961  0.00  0.00    +0.000 A 
ATOM     20  O   UNL     1      51.644   8.759  13.060  0.00  0.00    +0.000 OA
ATOM     21  C   UNL     1      51.511   7.677  15.166  0.00  0.00    +0.000 A 
ATOM     22  H   UNL     1      54.019   8.137  13.089  0.00  0.00    +0.000 HD
ENDBRANCH   9  12
ENDBRANCH   7  10
ENDBRANCH   1   7
BRANCH   4  23
ATOM     23  C   UNL     1      44.365   3.855  11.235  0.00  0.00    +0.000 C 
BRANCH  23  24
ATOM     24  O   UNL     1      44.970   2.592  11.624  0.00  0.00    +0.000 OA
ATOM     25  H   UNL     1      45.551   2.369  10.862  0.00  0.00    +0.000 HD
ENDBRANCH  23  24
BRANCH  23  26
ATOM     26  C   UNL     1      43.035   3.923  12.032  0.00  0.00    +0.000 C 
BRANCH  26  27
ATOM     27  O   UNL     1      42.272   5.099  11.740  0.00  0.00    +0.000 OA
ATOM     28  H   UNL     1      41.883   5.379  12.591  0.00  0.00    +0.000 HD
ENDBRANCH  26  27
ENDBRANCH  23  26
BRANCH  23  29
ATOM     29  C   UNL     1      44.027   3.828   9.724  0.00  0.00    +0.000 C 
BRANCH  29  30
ATOM     30  C   UNL     1      45.102   3.264   8.822  0.00  0.00    +0.000 A 
ATOM     31  C   UNL     1      45.833   4.093   7.975  0.00  0.00    +0.000 A 
ATOM     32  C   UNL     1      46.813   3.534   7.162  0.00  0.00    +0.000 A 
ATOM     33  C   UNL     1      47.049   2.167   7.225  0.00  0.00    +0.000 A 
ATOM     34  C   UNL     1      46.294   1.416   8.105  0.00  0.00    +0.000 A 
ATOM     35  N   UNL     1      45.332   1.929   8.903  0.00  0.00    +0.000 NA
ENDBRANCH  29  30
ENDBRANCH  23  29
ENDBRANCH   4  23
TORSDOF 9
ENDMDL
MODEL 7
REMARK VINA RESULT:    -6.618      3.170      8.711
REMARK INTER + INTRA:         -11.145
REMARK INTER:                  -9.512
REMARK INTRA:                  -1.633
REMARK UNBOUND:                -1.432
REMARK  Name = 
REMARK  9 active torsions:
REMARK  status: ('A' for Active; 'I' for Inactive)
REMARK    1  A    between atoms: C_2  and  C_22
REMARK    2  A    between atoms: N_3  and  C_4
REMARK    3  A    between atoms: C_4  and  C_5
REMARK    4  A    between atoms: C_8  and  C_9
REMARK    5  A    between atoms: C_9  and  O_10
REMARK    6  A    between atoms: C_9  and  C_11
REMARK    7  A    between atoms: C_9  and  C_13
REMARK    8  A    between atoms: C_11  and  O_12
REMARK    9  A    between atoms: C_13  and  C_14
REMARK                            x       y       z     vdW  Elec       q    Type
REMARK                         _______ _______ _______ _____ _____    ______ ____
ROOT
ATOM      1  C   UNL     1      48.895   7.535  13.583  0.00  0.00    +0.000 A 
ATOM      2  C   UNL     1      48.243   6.745  14.528  0.00  0.00    +0.000 A 
ATOM      3  C   UNL     1      48.892   6.389  15.705  0.00  0.00    +0.000 A 
ATOM      4  C   UNL     1      50.205   6.806  15.905  0.00  0.00    +0.000 A 
ATOM      5  N   UNL     1      50.883   7.534  14.970  0.00  0.00    +0.000 NA
ATOM      6  C   UNL     1      50.212   7.887  13.848  0.00  0.00    +0.000 A 
ENDROOT
BRANCH   1   7
ATOM      7  C   UNL     1      48.202   7.951  12.323  0.00  0.00    +0.000 C 
BRANCH   7  10
ATOM      8  O   UNL     1      45.428   7.881  11.775  0.00  0.00    +0.000 OA
ATOM      9  C   UNL     1      46.126   6.919  11.471  0.00  0.00    +0.000 C 
ATOM     10  N   UNL     1      47.469   6.862  11.736  0.00  0.00    +0.000 N 
ATOM     11  H   UNL     1      48.018   6.093  11.372  0.00  0.00    +0.000 HD
BRANCH   9  12
ATOM     12  C   UNL     1      45.558   5.733  10.824  0.00  0.00    +0.000 A 
ATOM     13  C   UNL     1      45.799   5.488   9.479  0.00  0.00    +0.000 A 
ATOM     14  S   UNL     1      45.063   4.061   8.905  0.00  0.00    +0.000 S 
ATOM     15  C   UNL     1      44.432   3.699  10.444  0.00  0.00    +0.000 A 
ATOM     16  N   UNL     1      43.709   2.568  10.657  0.00  0.00    +0.000 NA
ATOM     17  C   UNL     1      43.329   2.400  11.880  0.00  0.00    +0.000 A 
ATOM     18  N   UNL     1      43.597   3.267  12.909  0.00  0.00    +0.000 N 
ATOM     19  C   UNL     1      44.264   4.455  12.728  0.00  0.00    +0.000 A 
ATOM     20  O   UNL     1      44.375   5.262  13.642  0.00  0.00    +0.000 OA
ATOM     21  C   UNL     1      44.754   4.669  11.378  0.00  0.00    +0.000 A 
ATOM     22  H   UNL     1      43.243   3.093  13.837  0.00  0.00    +0.000 HD
ENDBRANCH   9  12
ENDBRANCH   7  10
ENDBRANCH   1   7
BRANCH   4  23
ATOM     23  C   UNL     1      50.983   6.492  17.182  0.00  0.00    +0.000 C 
BRANCH  23  24
ATOM     24  O   UNL     1      52.325   6.074  16.812  0.00  0.00    +0.000 OA
ATOM     25  H   UNL     1      52.829   6.137  17.654  0.00  0.00    +0.000 HD
ENDBRANCH  23  24
BRANCH  23  26
ATOM     26  C   UNL     1      51.184   7.789  18.011  0.00  0.00    +0.000 C 
BRANCH  26  27
ATOM     27  O   UNL     1      50.399   8.885  17.526  0.00  0.00    +0.000 OA
ATOM     28  H   UNL     1      50.628   8.976  16.581  0.00  0.00    +0.000 HD
ENDBRANCH  26  27
ENDBRANCH  23  26
BRANCH  23  29
ATOM     29  C   UNL     1      50.339   5.422  18.100  0.00  0.00    +0.000 C 
BRANCH  29  30
ATOM     30  C   UNL     1      50.787   3.999  17.860  0.00  0.00    +0.000 A 
ATOM     31  C   UNL     1      49.942   3.076  17.248  0.00  0.00    +0.000 A 
ATOM     32  C   UNL     1      50.392   1.776  17.045  0.00  0.00    +0.000 A 
ATOM     33  C   UNL     1      51.677   1.433  17.444  0.00  0.00    +0.000 A 
ATOM     34  C   UNL     1      52.461   2.410  18.027  0.00  0.00    +0.000 A 
ATOM     35  N   UNL     1      52.050   3.679  18.242  0.00  0.00    +0.000 NA
ENDBRANCH  29  30
ENDBRANCH  23  29
ENDBRANCH   4  23
TORSDOF 9
ENDMDL
MODEL 8
REMARK VINA RESULT:    -6.480      3.968      5.713
REMARK INTER + INTRA:         -10.942
REMARK INTER:                  -9.642
REMARK INTRA:                  -1.300
REMARK UNBOUND:                -1.432
REMARK  Name = 
REMARK  9 active torsions:
REMARK  status: ('A' for Active; 'I' for Inactive)
REMARK    1  A    between atoms: C_2  and  C_22
REMARK    2  A    between atoms: N_3  and  C_4
REMARK    3  A    between atoms: C_4  and  C_5
REMARK    4  A    between atoms: C_8  and  C_9
REMARK    5  A    between atoms: C_9  and  O_10
REMARK    6  A    between atoms: C_9  and  C_11
REMARK    7  A    between atoms: C_9  and  C_13
REMARK    8  A    between atoms: C_11  and  O_12
REMARK    9  A    between atoms: C_13  and  C_14
REMARK                            x       y       z     vdW  Elec       q    Type
REMARK                         _______ _______ _______ _____ _____    ______ ____
ROOT
ATOM      1  C   UNL     1      48.166   6.976  13.552  0.00  0.00    +0.000 A 
ATOM      2  C   UNL     1      47.662   7.223  12.275  0.00  0.00    +0.000 A 
ATOM      3  C   UNL     1      46.639   6.431  11.766  0.00  0.00    +0.000 A 
ATOM      4  C   UNL     1      46.155   5.376  12.534  0.00  0.00    +0.000 A 
ATOM      5  N   UNL     1      46.669   5.081  13.764  0.00  0.00    +0.000 NA
ATOM      6  C   UNL     1      47.645   5.889  14.242  0.00  0.00    +0.000 A 
ENDROOT
BRANCH   1   7
ATOM      7  C   UNL     1      49.248   7.836  14.128  0.00  0.00    +0.000 C 
BRANCH   7  10
ATOM      8  O   UNL     1      51.291   9.778  13.899  0.00  0.00    +0.000 OA
ATOM      9  C   UNL     1      51.434   8.687  13.357  0.00  0.00    +0.000 C 
ATOM     10  N   UNL     1      50.475   7.708  13.391  0.00  0.00    +0.000 N 
ATOM     11  H   UNL     1      50.684   6.790  13.017  0.00  0.00    +0.000 HD
BRANCH   9  12
ATOM     12  C   UNL     1      52.643   8.362  12.595  0.00  0.00    +0.000 A 
ATOM     13  C   UNL     1      53.897   8.569  13.154  0.00  0.00    +0.000 A 
ATOM     14  S   UNL     1      55.182   8.127  12.124  0.00  0.00    +0.000 S 
ATOM     15  C   UNL     1      54.106   7.603  10.913  0.00  0.00    +0.000 A 
ATOM     16  N   UNL     1      54.566   7.069   9.750  0.00  0.00    +0.000 NA
ATOM     17  C   UNL     1      53.640   6.677   8.940  0.00  0.00    +0.000 A 
ATOM     18  N   UNL     1      52.294   6.779   9.182  0.00  0.00    +0.000 N 
ATOM     19  C   UNL     1      51.783   7.373  10.312  0.00  0.00    +0.000 A 
ATOM     20  O   UNL     1      50.578   7.559  10.438  0.00  0.00    +0.000 OA
ATOM     21  C   UNL     1      52.785   7.790  11.277  0.00  0.00    +0.000 A 
ATOM     22  H   UNL     1      51.620   6.481   8.493  0.00  0.00    +0.000 HD
ENDBRANCH   9  12
ENDBRANCH   7  10
ENDBRANCH   1   7
BRANCH   4  23
ATOM     23  C   UNL     1      45.010   4.476  12.070  0.00  0.00    +0.000 C 
BRANCH  23  24
ATOM     24  O   UNL     1      45.445   3.092  12.164  0.00  0.00    +0.000 OA
ATOM     25  H   UNL     1      46.372   3.118  11.836  0.00  0.00    +0.000 HD
ENDBRANCH  23  24
BRANCH  23  26
ATOM     26  C   UNL     1      43.817   4.587  13.057  0.00  0.00    +0.000 C 
BRANCH  26  27
ATOM     27  O   UNL     1      42.860   5.579  12.662  0.00  0.00    +0.000 OA
ATOM     28  H   UNL     1      42.042   5.365  13.150  0.00  0.00    +0.000 HD
ENDBRANCH  26  27
ENDBRANCH  23  26
BRANCH  23  29
ATOM     29  C   UNL     1      44.487   4.761  10.640  0.00  0.00    +0.000 C 
BRANCH  29  30
ATOM     30  C   UNL     1      45.128   3.953   9.535  0.00  0.00    +0.000 A 
ATOM     31  C   UNL     1      45.858   4.575   8.524  0.00  0.00    +0.000 A 
ATOM     32  C   UNL     1      46.432   3.795   7.527  0.00  0.00    +0.000 A 
ATOM     33  C   UNL     1      46.278   2.416   7.569  0.00  0.00    +0.000 A 
ATOM     34  C   UNL     1      45.555   1.874   8.615  0.00  0.00    +0.000 A 
ATOM     35  N   UNL     1      44.981   2.605   9.595  0.00  0.00    +0.000 NA
ENDBRANCH  29  30
ENDBRANCH  23  29
ENDBRANCH   4  23
TORSDOF 9
ENDMDL
MODEL 9
REMARK VINA RESULT:    -6.365      2.938      9.209
REMARK INTER + INTRA:         -10.774
REMARK INTER:                  -9.583
REMARK INTRA:                  -1.191
REMARK UNBOUND:                -1.432
REMARK  Name = 
REMARK  9 active torsions:
REMARK  status: ('A' for Active; 'I' for Inactive)
REMARK    1  A    between atoms: C_2  and  C_22
REMARK    2  A    between atoms: N_3  and  C_4
REMARK    3  A    between atoms: C_4  and  C_5
REMARK    4  A    between atoms: C_8  and  C_9
REMARK    5  A    between atoms: C_9  and  O_10
REMARK    6  A    between atoms: C_9  and  C_11
REMARK    7  A    between atoms: C_9  and  C_13
REMARK    8  A    between atoms: C_11  and  O_12
REMARK    9  A    between atoms: C_13  and  C_14
REMARK                            x       y       z     vdW  Elec       q    Type
REMARK                         _______ _______ _______ _____ _____    ______ ____
ROOT
ATOM      1  C   UNL     1      48.233   7.220  13.916  0.00  0.00    +0.000 A 
ATOM      2  C   UNL     1      49.319   8.063  14.146  0.00  0.00    +0.000 A 
ATOM      3  C   UNL     1      50.201   7.793  15.185  0.00  0.00    +0.000 A 
ATOM      4  C   UNL     1      49.964   6.694  16.005  0.00  0.00    +0.000 A 
ATOM      5  N   UNL     1      48.877   5.885  15.833  0.00  0.00    +0.000 NA
ATOM      6  C   UNL     1      48.053   6.160  14.795  0.00  0.00    +0.000 A 
ENDROOT
BRANCH   1   7
ATOM      7  C   UNL     1      47.288   7.480  12.783  0.00  0.00    +0.000 C 
BRANCH   7  10
ATOM      8  O   UNL     1      44.754   7.358  11.533  0.00  0.00    +0.000 OA
ATOM      9  C   UNL     1      45.358   6.317  11.772  0.00  0.00    +0.000 C 
ATOM     10  N   UNL     1      46.572   6.291  12.408  0.00  0.00    +0.000 N 
ATOM     11  H   UNL     1      47.076   5.416  12.488  0.00  0.00    +0.000 HD
BRANCH   9  12
ATOM     12  C   UNL     1      44.800   5.008  11.421  0.00  0.00    +0.000 A 
ATOM     13  C   UNL     1      44.012   4.318  12.331  0.00  0.00    +0.000 A 
ATOM     14  S   UNL     1      43.448   2.819  11.745  0.00  0.00    +0.000 S 
ATOM     15  C   UNL     1      44.202   3.061  10.237  0.00  0.00    +0.000 A 
ATOM     16  N   UNL     1      44.086   2.145   9.240  0.00  0.00    +0.000 NA
ATOM     17  C   UNL     1      44.674   2.477   8.139  0.00  0.00    +0.000 A 
ATOM     18  N   UNL     1      45.378   3.638   7.947  0.00  0.00    +0.000 N 
ATOM     19  C   UNL     1      45.581   4.560   8.946  0.00  0.00    +0.000 A 
ATOM     20  O   UNL     1      46.318   5.524   8.777  0.00  0.00    +0.000 OA
ATOM     21  C   UNL     1      44.900   4.256  10.192  0.00  0.00    +0.000 A 
ATOM     22  H   UNL     1      45.842   3.823   7.071  0.00  0.00    +0.000 HD
ENDBRANCH   9  12
ENDBRANCH   7  10
ENDBRANCH   1   7
BRANCH   4  23
ATOM     23  C   UNL     1      50.899   6.301  17.149  0.00  0.00    +0.000 C 
BRANCH  23  24
ATOM     24  O   UNL     1      52.180   5.913  16.583  0.00  0.00    +0.000 OA
ATOM     25  H   UNL     1      52.052   6.033  15.615  0.00  0.00    +0.000 HD
ENDBRANCH  23  24
BRANCH  23  26
ATOM     26  C   UNL     1      51.210   7.544  18.026  0.00  0.00    +0.000 C 
BRANCH  26  27
ATOM     27  O   UNL     1      50.219   7.774  19.034  0.00  0.00    +0.000 OA
ATOM     28  H   UNL     1      50.638   8.368  19.686  0.00  0.00    +0.000 HD
ENDBRANCH  26  27
ENDBRANCH  23  26
BRANCH  23  29
ATOM     29  C   UNL     1      50.373   5.173  18.071  0.00  0.00    +0.000 C 
BRANCH  29  30
ATOM     30  C   UNL     1      51.087   3.846  17.954  0.00  0.00    +0.000 A 
ATOM     31  C   UNL     1      50.460   2.745  17.375  0.00  0.00    +0.000 A 
ATOM     32  C   UNL     1      51.152   1.542  17.286  0.00  0.00    +0.000 A 
ATOM     33  C   UNL     1      52.454   1.471  17.762  0.00  0.00    +0.000 A 
ATOM     34  C   UNL     1      53.012   2.612  18.306  0.00  0.00    +0.000 A 
ATOM     35  N   UNL     1      52.364   3.793  18.411  0.00  0.00    +0.000 NA
ENDBRANCH  29  30
ENDBRANCH  23  29
ENDBRANCH   4  23
TORSDOF 9
ENDMDL
