MODEL 1
REMARK VINA RESULT:    -6.696      0.000      0.000
REMARK INTER + INTRA:         -10.446
REMARK INTER:                  -9.240
REMARK INTRA:                  -1.206
REMARK UNBOUND:                -1.206
REMARK  Name = 
REMARK  7 active torsions:
REMARK  status: ('A' for Active; 'I' for Inactive)
REMARK    1  A    between atoms: N_1  and  C_2
REMARK    2  A    between atoms: C_2  and  C_3
REMARK    3  A    between atoms: C_6  and  C_7
REMARK    4  A    between atoms: C_7  and  C_8
REMARK    5  A    between atoms: C_11  and  C_12
REMARK    6  A    between atoms: C_12  and  N_13
REMARK    7  A    between atoms: C_14  and  C_16
REMARK                            x       y       z     vdW  Elec       q    Type
REMARK                         _______ _______ _______ _____ _____    ______ ____
ROOT
ATOM      1  C   UNL     1      49.357   7.885  15.563  0.00  0.00    +0.000 A 
ATOM      2  C   UNL     1      48.373   8.831  15.286  0.00  0.00    +0.000 A 
ATOM      3  C   UNL     1      47.742   8.814  14.044  0.00  0.00    +0.000 A 
ATOM      4  C   UNL     1      48.121   7.874  13.085  0.00  0.00    +0.000 A 
ATOM      5  C   UNL     1      49.122   6.977  13.443  0.00  0.00    +0.000 A 
ATOM      6  N   UNL     1      49.738   6.958  14.651  0.00  0.00    +0.000 NA
ENDROOT
BRANCH   1   7
ATOM      7  C   UNL     1      49.970   7.809  16.945  0.00  0.00    +0.000 C 
BRANCH   7  11
ATOM      8  C   UNL     1      49.993   5.065  19.559  0.00  0.00    +0.000 C 
ATOM      9  C   UNL     1      49.294   4.979  18.189  0.00  0.00    +0.000 C 
ATOM     10  C   UNL     1      48.310   6.126  17.959  0.00  0.00    +0.000 C 
ATOM     11  C   UNL     1      48.976   7.505  18.090  0.00  0.00    +0.000 C 
ATOM     12  C   UNL     1      49.668   7.613  19.464  0.00  0.00    +0.000 C 
ATOM     13  C   UNL     1      50.626   6.454  19.755  0.00  0.00    +0.000 C 
BRANCH   8  14
ATOM     14  C   UNL     1      49.051   4.703  20.726  0.00  0.00    +0.000 C 
BRANCH  14  15
ATOM     15  N   UNL     1      48.346   3.452  20.464  0.00  0.00    +0.000 NA
ATOM     16  H   UNL     1      48.546   2.780  21.204  0.00  0.00    +0.000 HD
ATOM     17  H   UNL     1      48.684   3.039  19.596  0.00  0.00    +0.000 HD
ENDBRANCH  14  15
ENDBRANCH   8  14
ENDBRANCH   7  11
ENDBRANCH   1   7
BRANCH   4  18
ATOM     18  C   UNL     1      47.451   7.818  11.741  0.00  0.00    +0.000 C 
BRANCH  18  19
ATOM     19  N   UNL     1      46.796   6.553  11.516  0.00  0.00    +0.000 N 
ATOM     20  C   UNL     1      45.438   6.427  11.683  0.00  0.00    +0.000 C 
ATOM     21  O   UNL     1      44.732   7.381  11.989  0.00  0.00    +0.000 OA
ATOM     22  H   UNL     1      47.376   5.718  11.500  0.00  0.00    +0.000 HD
BRANCH  20  23
ATOM     23  C   UNL     1      44.858   5.098  11.417  0.00  0.00    +0.000 A 
ATOM     24  C   UNL     1      44.134   4.460  12.414  0.00  0.00    +0.000 A 
ATOM     25  S   UNL     1      43.507   2.947  11.941  0.00  0.00    +0.000 S 
ATOM     26  C   UNL     1      44.220   3.071  10.401  0.00  0.00    +0.000 A 
ATOM     27  N   UNL     1      44.093   2.069   9.490  0.00  0.00    +0.000 NA
ATOM     28  C   UNL     1      44.703   2.285   8.373  0.00  0.00    +0.000 A 
ATOM     29  N   UNL     1      45.423   3.415   8.083  0.00  0.00    +0.000 N 
ATOM     30  C   UNL     1      45.553   4.465   8.962  0.00  0.00    +0.000 A 
ATOM     31  O   UNL     1      46.165   5.484   8.654  0.00  0.00    +0.000 OA
ATOM     32  C   UNL     1      44.903   4.264  10.241  0.00  0.00    +0.000 A 
ATOM     33  H   UNL     1      45.863   3.528   7.180  0.00  0.00    +0.000 HD
ENDBRANCH  20  23
ENDBRANCH  18  19
ENDBRANCH   4  18
TORSDOF 7
ENDMDL
MODEL 2
REMARK VINA RESULT:    -6.416      3.742      8.332
REMARK INTER + INTRA:         -10.060
REMARK INTER:                  -8.952
REMARK INTRA:                  -1.108
REMARK UNBOUND:                -1.206
REMARK  Name = 
REMARK  7 active torsions:
REMARK  status: ('A' for Active; 'I' for Inactive)
REMARK    1  A    between atoms: N_1  and  C_2
REMARK    2  A    between atoms: C_2  and  C_3
REMARK    3  A    between atoms: C_6  and  C_7
REMARK    4  A    between atoms: C_7  and  C_8
REMARK    5  A    between atoms: C_11  and  C_12
REMARK    6  A    between atoms: C_12  and  N_13
REMARK    7  A    between atoms: C_14  and  C_16
REMARK                            x       y       z     vdW  Elec       q    Type
REMARK                         _______ _______ _______ _____ _____    ______ ____
ROOT
ATOM      1  C   UNL     1      47.328   7.380  12.674  0.00  0.00    +0.000 A 
ATOM      2  C   UNL     1      48.536   6.696  12.784  0.00  0.00    +0.000 A 
ATOM      3  C   UNL     1      49.406   7.014  13.826  0.00  0.00    +0.000 A 
ATOM      4  C   UNL     1      49.074   8.030  14.722  0.00  0.00    +0.000 A 
ATOM      5  C   UNL     1      47.855   8.669  14.527  0.00  0.00    +0.000 A 
ATOM      6  N   UNL     1      46.980   8.365  13.536  0.00  0.00    +0.000 NA
ENDROOT
BRANCH   1   7
ATOM      7  C   UNL     1      46.317   6.969  11.626  0.00  0.00    +0.000 C 
BRANCH   7  11
ATOM      8  C   UNL     1      44.855   3.474  11.701  0.00  0.00    +0.000 C 
ATOM      9  C   UNL     1      44.633   4.503  10.578  0.00  0.00    +0.000 C 
ATOM     10  C   UNL     1      44.074   5.828  11.098  0.00  0.00    +0.000 C 
ATOM     11  C   UNL     1      44.966   6.458  12.178  0.00  0.00    +0.000 C 
ATOM     12  C   UNL     1      45.185   5.443  13.319  0.00  0.00    +0.000 C 
ATOM     13  C   UNL     1      45.699   4.084  12.834  0.00  0.00    +0.000 C 
BRANCH   8  14
ATOM     14  C   UNL     1      43.531   2.888  12.235  0.00  0.00    +0.000 C 
BRANCH  14  15
ATOM     15  N   UNL     1      43.141   1.699  11.483  0.00  0.00    +0.000 NA
ATOM     16  H   UNL     1      42.508   1.129  12.041  0.00  0.00    +0.000 HD
ATOM     17  H   UNL     1      43.961   1.125  11.293  0.00  0.00    +0.000 HD
ENDBRANCH  14  15
ENDBRANCH   8  14
ENDBRANCH   7  11
ENDBRANCH   1   7
BRANCH   4  18
ATOM     18  C   UNL     1      49.982   8.389  15.865  0.00  0.00    +0.000 C 
BRANCH  18  19
ATOM     19  N   UNL     1      50.834   7.289  16.245  0.00  0.00    +0.000 N 
ATOM     20  C   UNL     1      50.507   6.485  17.310  0.00  0.00    +0.000 C 
ATOM     21  O   UNL     1      49.473   6.645  17.950  0.00  0.00    +0.000 OA
ATOM     22  H   UNL     1      51.787   7.288  15.893  0.00  0.00    +0.000 HD
BRANCH  20  23
ATOM     23  C   UNL     1      51.431   5.378  17.613  0.00  0.00    +0.000 A 
ATOM     24  C   UNL     1      52.712   5.665  18.065  0.00  0.00    +0.000 A 
ATOM     25  S   UNL     1      53.647   4.278  18.396  0.00  0.00    +0.000 S 
ATOM     26  C   UNL     1      52.389   3.245  17.903  0.00  0.00    +0.000 A 
ATOM     27  N   UNL     1      52.551   1.895  17.908  0.00  0.00    +0.000 NA
ATOM     28  C   UNL     1      51.525   1.233  17.487  0.00  0.00    +0.000 A 
ATOM     29  N   UNL     1      50.350   1.800  17.068  0.00  0.00    +0.000 N 
ATOM     30  C   UNL     1      50.131   3.158  17.073  0.00  0.00    +0.000 A 
ATOM     31  O   UNL     1      49.049   3.632  16.736  0.00  0.00    +0.000 OA
ATOM     32  C   UNL     1      51.261   3.949  17.517  0.00  0.00    +0.000 A 
ATOM     33  H   UNL     1      49.577   1.222  16.766  0.00  0.00    +0.000 HD
ENDBRANCH  20  23
ENDBRANCH  18  19
ENDBRANCH   4  18
TORSDOF 7
ENDMDL
MODEL 3
REMARK VINA RESULT:    -6.292      3.200      9.263
REMARK INTER + INTRA:          -9.889
REMARK INTER:                  -8.872
REMARK INTRA:                  -1.017
REMARK UNBOUND:                -1.206
REMARK  Name = 
REMARK  7 active torsions:
REMARK  status: ('A' for Active; 'I' for Inactive)
REMARK    1  A    between atoms: N_1  and  C_2
REMARK    2  A    between atoms: C_2  and  C_3
REMARK    3  A    between atoms: C_6  and  C_7
REMARK    4  A    between atoms: C_7  and  C_8
REMARK    5  A    between atoms: C_11  and  C_12
REMARK    6  A    between atoms: C_12  and  N_13
REMARK    7  A    between atoms: C_14  and  C_16
REMARK                            x       y       z     vdW  Elec       q    Type
REMARK                         _______ _______ _______ _____ _____    ______ ____
ROOT
ATOM      1  C   UNL     1      45.085   4.903  11.217  0.00  0.00    +0.000 A 
ATOM      2  C   UNL     1      46.392   5.365  11.351  0.00  0.00    +0.000 A 
ATOM      3  C   UNL     1      46.614   6.638  11.873  0.00  0.00    +0.000 A 
ATOM      4  C   UNL     1      45.530   7.443  12.224  0.00  0.00    +0.000 A 
ATOM      5  C   UNL     1      44.261   6.906  12.043  0.00  0.00    +0.000 A 
ATOM      6  N   UNL     1      44.016   5.663  11.557  0.00  0.00    +0.000 NA
ENDROOT
BRANCH   1   7
ATOM      7  C   UNL     1      44.825   3.481  10.767  0.00  0.00    +0.000 C 
BRANCH   7  11
ATOM      8  C   UNL     1      46.698   2.675   7.573  0.00  0.00    +0.000 C 
ATOM      9  C   UNL     1      46.425   4.094   8.106  0.00  0.00    +0.000 C 
ATOM     10  C   UNL     1      44.938   4.354   8.351  0.00  0.00    +0.000 C 
ATOM     11  C   UNL     1      44.315   3.332   9.315  0.00  0.00    +0.000 C 
ATOM     12  C   UNL     1      44.567   1.905   8.785  0.00  0.00    +0.000 C 
ATOM     13  C   UNL     1      46.041   1.621   8.481  0.00  0.00    +0.000 C 
BRANCH   8  14
ATOM     14  C   UNL     1      46.265   2.504   6.102  0.00  0.00    +0.000 C 
BRANCH  14  15
ATOM     15  N   UNL     1      47.178   3.200   5.200  0.00  0.00    +0.000 NA
ATOM     16  H   UNL     1      46.734   3.333   4.293  0.00  0.00    +0.000 HD
ATOM     17  H   UNL     1      48.006   2.628   5.038  0.00  0.00    +0.000 HD
ENDBRANCH  14  15
ENDBRANCH   8  14
ENDBRANCH   7  11
ENDBRANCH   1   7
BRANCH   4  18
ATOM     18  C   UNL     1      45.733   8.815  12.804  0.00  0.00    +0.000 C 
BRANCH  18  19
ATOM     19  N   UNL     1      46.557   8.786  13.987  0.00  0.00    +0.000 N 
ATOM     20  C   UNL     1      47.859   9.223  13.946  0.00  0.00    +0.000 C 
ATOM     21  O   UNL     1      48.356   9.684  12.925  0.00  0.00    +0.000 OA
ATOM     22  H   UNL     1      46.252   8.199  14.759  0.00  0.00    +0.000 HD
BRANCH  20  23
ATOM     23  C   UNL     1      48.617   9.167  15.209  0.00  0.00    +0.000 A 
ATOM     24  C   UNL     1      49.012  10.350  15.818  0.00  0.00    +0.000 A 
ATOM     25  S   UNL     1      49.853  10.117  17.282  0.00  0.00    +0.000 S 
ATOM     26  C   UNL     1      49.760   8.425  17.131  0.00  0.00    +0.000 A 
ATOM     27  N   UNL     1      50.326   7.608  18.058  0.00  0.00    +0.000 NA
ATOM     28  C   UNL     1      50.200   6.348  17.807  0.00  0.00    +0.000 A 
ATOM     29  N   UNL     1      49.552   5.832  16.714  0.00  0.00    +0.000 N 
ATOM     30  C   UNL     1      48.939   6.619  15.767  0.00  0.00    +0.000 A 
ATOM     31  O   UNL     1      48.326   6.124  14.825  0.00  0.00    +0.000 OA
ATOM     32  C   UNL     1      49.071   8.044  15.992  0.00  0.00    +0.000 A 
ATOM     33  H   UNL     1      49.474   4.832  16.586  0.00  0.00    +0.000 HD
ENDBRANCH  20  23
ENDBRANCH  18  19
ENDBRANCH   4  18
TORSDOF 7
ENDMDL
MODEL 4
REMARK VINA RESULT:    -6.279      4.670      9.372
REMARK INTER + INTRA:          -9.870
REMARK INTER:                  -9.066
REMARK INTRA:                  -0.804
REMARK UNBOUND:                -1.206
REMARK  Name = 
REMARK  7 active torsions:
REMARK  status: ('A' for Active; 'I' for Inactive)
REMARK    1  A    between atoms: N_1  and  C_2
REMARK    2  A    between atoms: C_2  and  C_3
REMARK    3  A    between atoms: C_6  and  C_7
REMARK    4  A    between atoms: C_7  and  C_8
REMARK    5  A    between atoms: C_11  and  C_12
REMARK    6  A    between atoms: C_12  and  N_13
REMARK    7  A    between atoms: C_14  and  C_16
REMARK                            x       y       z     vdW  Elec       q    Type
REMARK                         _______ _______ _______ _____ _____    ______ ____
ROOT
ATOM      1  C   UNL     1      47.196   4.231  14.208  0.00  0.00    +0.000 A 
ATOM      2  C   UNL     1      47.705   5.525  14.286  0.00  0.00    +0.000 A 
ATOM      3  C   UNL     1      48.254   5.970  15.487  0.00  0.00    +0.000 A 
ATOM      4  C   UNL     1      48.260   5.130  16.601  0.00  0.00    +0.000 A 
ATOM      5  C   UNL     1      47.718   3.860  16.436  0.00  0.00    +0.000 A 
ATOM      6  N   UNL     1      47.197   3.394  15.273  0.00  0.00    +0.000 NA
ENDROOT
BRANCH   1   7
ATOM      7  C   UNL     1      46.706   3.687  12.884  0.00  0.00    +0.000 C 
BRANCH   7  11
ATOM      8  C   UNL     1      44.497   6.347  11.333  0.00  0.00    +0.000 C 
ATOM      9  C   UNL     1      44.850   6.248  12.829  0.00  0.00    +0.000 C 
ATOM     10  C   UNL     1      44.498   4.886  13.427  0.00  0.00    +0.000 C 
ATOM     11  C   UNL     1      45.174   3.725  12.681  0.00  0.00    +0.000 C 
ATOM     12  C   UNL     1      44.817   3.801  11.182  0.00  0.00    +0.000 C 
ATOM     13  C   UNL     1      45.109   5.168  10.555  0.00  0.00    +0.000 C 
BRANCH   8  14
ATOM     14  C   UNL     1      42.978   6.456  11.091  0.00  0.00    +0.000 C 
BRANCH  14  15
ATOM     15  N   UNL     1      42.550   7.851  11.052  0.00  0.00    +0.000 NA
ATOM     16  H   UNL     1      43.240   8.438  11.517  0.00  0.00    +0.000 HD
ATOM     17  H   UNL     1      41.678   7.960  11.568  0.00  0.00    +0.000 HD
ENDBRANCH  14  15
ENDBRANCH   8  14
ENDBRANCH   7  11
ENDBRANCH   1   7
BRANCH   4  18
ATOM     18  C   UNL     1      48.857   5.572  17.908  0.00  0.00    +0.000 C 
BRANCH  18  19
ATOM     19  N   UNL     1      49.955   4.730  18.312  0.00  0.00    +0.000 N 
ATOM     20  C   UNL     1      51.218   4.935  17.809  0.00  0.00    +0.000 C 
ATOM     21  O   UNL     1      51.466   5.853  17.035  0.00  0.00    +0.000 OA
ATOM     22  H   UNL     1      49.731   3.841  18.750  0.00  0.00    +0.000 HD
BRANCH  20  23
ATOM     23  C   UNL     1      52.278   4.033  18.293  0.00  0.00    +0.000 A 
ATOM     24  C   UNL     1      53.314   4.549  19.059  0.00  0.00    +0.000 A 
ATOM     25  S   UNL     1      54.443   3.375  19.562  0.00  0.00    +0.000 S 
ATOM     26  C   UNL     1      53.612   2.142  18.736  0.00  0.00    +0.000 A 
ATOM     27  N   UNL     1      54.078   0.865  18.734  0.00  0.00    +0.000 NA
ATOM     28  C   UNL     1      53.363   0.037  18.049  0.00  0.00    +0.000 A 
ATOM     29  N   UNL     1      52.219   0.371  17.371  0.00  0.00    +0.000 N 
ATOM     30  C   UNL     1      51.694   1.642  17.369  0.00  0.00    +0.000 A 
ATOM     31  O   UNL     1      50.642   1.898  16.791  0.00  0.00    +0.000 OA
ATOM     32  C   UNL     1      52.473   2.616  18.108  0.00  0.00    +0.000 A 
ATOM     33  H   UNL     1      51.695  -0.332  16.866  0.00  0.00    +0.000 HD
ENDBRANCH  20  23
ENDBRANCH  18  19
ENDBRANCH   4  18
TORSDOF 7
ENDMDL
MODEL 5
REMARK VINA RESULT:    -6.167      3.573      5.498
REMARK INTER + INTRA:          -9.717
REMARK INTER:                  -8.675
REMARK INTRA:                  -1.041
REMARK UNBOUND:                -1.206
REMARK  Name = 
REMARK  7 active torsions:
REMARK  status: ('A' for Active; 'I' for Inactive)
REMARK    1  A    between atoms: N_1  and  C_2
REMARK    2  A    between atoms: C_2  and  C_3
REMARK    3  A    between atoms: C_6  and  C_7
REMARK    4  A    between atoms: C_7  and  C_8
REMARK    5  A    between atoms: C_11  and  C_12
REMARK    6  A    between atoms: C_12  and  N_13
REMARK    7  A    between atoms: C_14  and  C_16
REMARK                            x       y       z     vdW  Elec       q    Type
REMARK                         _______ _______ _______ _____ _____    ______ ____
ROOT
ATOM      1  C   UNL     1      51.167   4.011  18.232  0.00  0.00    +0.000 A 
ATOM      2  C   UNL     1      50.888   2.874  17.477  0.00  0.00    +0.000 A 
ATOM      3  C   UNL     1      49.585   2.655  17.034  0.00  0.00    +0.000 A 
ATOM      4  C   UNL     1      48.574   3.554  17.375  0.00  0.00    +0.000 A 
ATOM      5  C   UNL     1      48.942   4.653  18.143  0.00  0.00    +0.000 A 
ATOM      6  N   UNL     1      50.205   4.903  18.570  0.00  0.00    +0.000 NA
ENDROOT
BRANCH   1   7
ATOM      7  C   UNL     1      52.595   4.331  18.621  0.00  0.00    +0.000 C 
BRANCH   7  11
ATOM      8  C   UNL     1      54.545   7.526  18.028  0.00  0.00    +0.000 C 
ATOM      9  C   UNL     1      53.115   7.254  17.526  0.00  0.00    +0.000 C 
ATOM     10  C   UNL     1      53.018   5.977  16.691  0.00  0.00    +0.000 C 
ATOM     11  C   UNL     1      53.520   4.739  17.452  0.00  0.00    +0.000 C 
ATOM     12  C   UNL     1      54.959   4.990  17.948  0.00  0.00    +0.000 C 
ATOM     13  C   UNL     1      55.109   6.288  18.748  0.00  0.00    +0.000 C 
BRANCH   8  14
ATOM     14  C   UNL     1      55.486   8.001  16.902  0.00  0.00    +0.000 C 
BRANCH  14  15
ATOM     15  N   UNL     1      55.133   9.345  16.453  0.00  0.00    +0.000 NA
ATOM     16  H   UNL     1      54.414   9.735  17.061  0.00  0.00    +0.000 HD
ATOM     17  H   UNL     1      54.732   9.303  15.517  0.00  0.00    +0.000 HD
ENDBRANCH  14  15
ENDBRANCH   8  14
ENDBRANCH   7  11
ENDBRANCH   1   7
BRANCH   4  18
ATOM     18  C   UNL     1      47.162   3.356  16.901  0.00  0.00    +0.000 C 
BRANCH  18  19
ATOM     19  N   UNL     1      46.766   4.361  15.945  0.00  0.00    +0.000 N 
ATOM     20  C   UNL     1      46.865   4.123  14.596  0.00  0.00    +0.000 C 
ATOM     21  O   UNL     1      47.253   3.047  14.155  0.00  0.00    +0.000 OA
ATOM     22  H   UNL     1      46.675   5.318  16.278  0.00  0.00    +0.000 HD
BRANCH  20  23
ATOM     23  C   UNL     1      46.423   5.205  13.698  0.00  0.00    +0.000 A 
ATOM     24  C   UNL     1      47.261   6.289  13.476  0.00  0.00    +0.000 A 
ATOM     25  S   UNL     1      46.618   7.439  12.394  0.00  0.00    +0.000 S 
ATOM     26  C   UNL     1      45.178   6.551  12.219  0.00  0.00    +0.000 A 
ATOM     27  N   UNL     1      44.166   7.008  11.434  0.00  0.00    +0.000 NA
ATOM     28  C   UNL     1      43.124   6.246  11.411  0.00  0.00    +0.000 A 
ATOM     29  N   UNL     1      43.005   5.065  12.097  0.00  0.00    +0.000 N 
ATOM     30  C   UNL     1      44.013   4.550  12.878  0.00  0.00    +0.000 A 
ATOM     31  O   UNL     1      43.893   3.465  13.441  0.00  0.00    +0.000 OA
ATOM     32  C   UNL     1      45.199   5.378  12.955  0.00  0.00    +0.000 A 
ATOM     33  H   UNL     1      42.165   4.507  12.021  0.00  0.00    +0.000 HD
ENDBRANCH  20  23
ENDBRANCH  18  19
ENDBRANCH   4  18
TORSDOF 7
ENDMDL
MODEL 6
REMARK VINA RESULT:    -6.143      4.816      9.181
REMARK INTER + INTRA:          -9.683
REMARK INTER:                  -8.889
REMARK INTRA:                  -0.794
REMARK UNBOUND:                -1.206
REMARK  Name = 
REMARK  7 active torsions:
REMARK  status: ('A' for Active; 'I' for Inactive)
REMARK    1  A    between atoms: N_1  and  C_2
REMARK    2  A    between atoms: C_2  and  C_3
REMARK    3  A    between atoms: C_6  and  C_7
REMARK    4  A    between atoms: C_7  and  C_8
REMARK    5  A    between atoms: C_11  and  C_12
REMARK    6  A    between atoms: C_12  and  N_13
REMARK    7  A    between atoms: C_14  and  C_16
REMARK                            x       y       z     vdW  Elec       q    Type
REMARK                         _______ _______ _______ _____ _____    ______ ____
ROOT
ATOM      1  C   UNL     1      45.048   4.840  11.310  0.00  0.00    +0.000 A 
ATOM      2  C   UNL     1      46.212   5.192  11.988  0.00  0.00    +0.000 A 
ATOM      3  C   UNL     1      46.334   6.479  12.510  0.00  0.00    +0.000 A 
ATOM      4  C   UNL     1      45.308   7.405  12.322  0.00  0.00    +0.000 A 
ATOM      5  C   UNL     1      44.188   6.971  11.620  0.00  0.00    +0.000 A 
ATOM      6  N   UNL     1      44.034   5.719  11.120  0.00  0.00    +0.000 NA
ENDROOT
BRANCH   1   7
ATOM      7  C   UNL     1      44.844   3.416  10.841  0.00  0.00    +0.000 C 
BRANCH   7  11
ATOM      8  C   UNL     1      46.682   2.757   7.594  0.00  0.00    +0.000 C 
ATOM      9  C   UNL     1      46.353   4.151   8.159  0.00  0.00    +0.000 C 
ATOM     10  C   UNL     1      44.861   4.334   8.439  0.00  0.00    +0.000 C 
ATOM     11  C   UNL     1      44.309   3.267   9.398  0.00  0.00    +0.000 C 
ATOM     12  C   UNL     1      44.618   1.863   8.837  0.00  0.00    +0.000 C 
ATOM     13  C   UNL     1      46.097   1.656   8.496  0.00  0.00    +0.000 C 
BRANCH   8  14
ATOM     14  C   UNL     1      46.225   2.590   6.130  0.00  0.00    +0.000 C 
BRANCH  14  15
ATOM     15  N   UNL     1      47.221   3.122   5.203  0.00  0.00    +0.000 NA
ATOM     16  H   UNL     1      47.294   4.132   5.317  0.00  0.00    +0.000 HD
ATOM     17  H   UNL     1      46.922   2.957   4.243  0.00  0.00    +0.000 HD
ENDBRANCH  14  15
ENDBRANCH   8  14
ENDBRANCH   7  11
ENDBRANCH   1   7
BRANCH   4  18
ATOM     18  C   UNL     1      45.400   8.796  12.883  0.00  0.00    +0.000 C 
BRANCH  18  19
ATOM     19  N   UNL     1      46.706   9.073  13.428  0.00  0.00    +0.000 N 
ATOM     20  C   UNL     1      47.622   9.807  12.714  0.00  0.00    +0.000 C 
ATOM     21  O   UNL     1      47.358  10.280  11.614  0.00  0.00    +0.000 OA
ATOM     22  H   UNL     1      47.022   8.502  14.208  0.00  0.00    +0.000 HD
BRANCH  20  23
ATOM     23  C   UNL     1      48.924  10.050  13.360  0.00  0.00    +0.000 A 
ATOM     24  C   UNL     1      49.039  11.064  14.300  0.00  0.00    +0.000 A 
ATOM     25  S   UNL     1      50.599  11.200  14.974  0.00  0.00    +0.000 S 
ATOM     26  C   UNL     1      51.189   9.937  13.999  0.00  0.00    +0.000 A 
ATOM     27  N   UNL     1      52.494   9.559  14.059  0.00  0.00    +0.000 NA
ATOM     28  C   UNL     1      52.811   8.605  13.248  0.00  0.00    +0.000 A 
ATOM     29  N   UNL     1      51.938   7.991  12.388  0.00  0.00    +0.000 N 
ATOM     30  C   UNL     1      50.604   8.319  12.315  0.00  0.00    +0.000 A 
ATOM     31  O   UNL     1      49.839   7.717  11.567  0.00  0.00    +0.000 OA
ATOM     32  C   UNL     1      50.201   9.401  13.190  0.00  0.00    +0.000 A 
ATOM     33  H   UNL     1      52.249   7.236  11.791  0.00  0.00    +0.000 HD
ENDBRANCH  20  23
ENDBRANCH  18  19
ENDBRANCH   4  18
TORSDOF 7
ENDMDL
MODEL 7
REMARK VINA RESULT:    -6.072      3.123      8.105
REMARK INTER + INTRA:          -9.585
REMARK INTER:                  -8.386
REMARK INTRA:                  -1.199
REMARK UNBOUND:                -1.206
REMARK  Name = 
REMARK  7 active torsions:
REMARK  status: ('A' for Active; 'I' for Inactive)
REMARK    1  A    between atoms: N_1  and  C_2
REMARK    2  A    between atoms: C_2  and  C_3
REMARK    3  A    between atoms: C_6  and  C_7
REMARK    4  A    between atoms: C_7  and  C_8
REMARK    5  A    between atoms: C_11  and  C_12
REMARK    6  A    between atoms: C_12  and  N_13
REMARK    7  A    between atoms: C_14  and  C_16
REMARK                            x       y       z     vdW  Elec       q    Type
REMARK                         _______ _______ _______ _____ _____    ______ ____
ROOT
ATOM      1  C   UNL     1      46.316   7.608  11.939  0.00  0.00    +0.000 A 
ATOM      2  C   UNL     1      47.557   7.004  11.755  0.00  0.00    +0.000 A 
ATOM      3  C   UNL     1      48.620   7.364  12.582  0.00  0.00    +0.000 A 
ATOM      4  C   UNL     1      48.438   8.343  13.560  0.00  0.00    +0.000 A 
ATOM      5  C   UNL     1      47.169   8.903  13.663  0.00  0.00    +0.000 A 
ATOM      6  N   UNL     1      46.112   8.556  12.886  0.00  0.00    +0.000 NA
ENDROOT
BRANCH   1   7
ATOM      7  C   UNL     1      45.120   7.146  11.135  0.00  0.00    +0.000 C 
BRANCH   7  11
ATOM      8  C   UNL     1      44.440   3.428  11.409  0.00  0.00    +0.000 C 
ATOM      9  C   UNL     1      43.789   4.375  10.384  0.00  0.00    +0.000 C 
ATOM     10  C   UNL     1      43.093   5.566  11.044  0.00  0.00    +0.000 C 
ATOM     11  C   UNL     1      44.043   6.379  11.937  0.00  0.00    +0.000 C 
ATOM     12  C   UNL     1      44.692   5.446  12.981  0.00  0.00    +0.000 C 
ATOM     13  C   UNL     1      45.358   4.213  12.363  0.00  0.00    +0.000 C 
BRANCH   8  14
ATOM     14  C   UNL     1      43.400   2.593  12.185  0.00  0.00    +0.000 C 
BRANCH  14  15
ATOM     15  N   UNL     1      42.968   1.435  11.408  0.00  0.00    +0.000 NA
ATOM     16  H   UNL     1      42.876   1.692  10.427  0.00  0.00    +0.000 HD
ATOM     17  H   UNL     1      42.046   1.134  11.720  0.00  0.00    +0.000 HD
ENDBRANCH  14  15
ENDBRANCH   8  14
ENDBRANCH   7  11
ENDBRANCH   1   7
BRANCH   4  18
ATOM     18  C   UNL     1      49.557   8.746  14.478  0.00  0.00    +0.000 C 
BRANCH  18  19
ATOM     19  N   UNL     1      49.624   7.906  15.649  0.00  0.00    +0.000 N 
ATOM     20  C   UNL     1      48.955   8.251  16.798  0.00  0.00    +0.000 C 
ATOM     21  O   UNL     1      48.254   9.254  16.864  0.00  0.00    +0.000 OA
ATOM     22  H   UNL     1      50.372   7.218  15.694  0.00  0.00    +0.000 HD
BRANCH  20  23
ATOM     23  C   UNL     1      49.072   7.322  17.937  0.00  0.00    +0.000 A 
ATOM     24  C   UNL     1      49.448   7.814  19.180  0.00  0.00    +0.000 A 
ATOM     25  S   UNL     1      49.511   6.621  20.396  0.00  0.00    +0.000 S 
ATOM     26  C   UNL     1      49.082   5.397  19.294  0.00  0.00    +0.000 A 
ATOM     27  N   UNL     1      48.989   4.100  19.692  0.00  0.00    +0.000 NA
ATOM     28  C   UNL     1      48.679   3.274  18.750  0.00  0.00    +0.000 A 
ATOM     29  N   UNL     1      48.447   3.630  17.446  0.00  0.00    +0.000 N 
ATOM     30  C   UNL     1      48.501   4.932  17.005  0.00  0.00    +0.000 A 
ATOM     31  O   UNL     1      48.242   5.223  15.841  0.00  0.00    +0.000 OA
ATOM     32  C   UNL     1      48.867   5.897  18.022  0.00  0.00    +0.000 A 
ATOM     33  H   UNL     1      48.191   2.933  16.759  0.00  0.00    +0.000 HD
ENDBRANCH  20  23
ENDBRANCH  18  19
ENDBRANCH   4  18
TORSDOF 7
ENDMDL
MODEL 8
REMARK VINA RESULT:    -5.913      4.250      6.369
REMARK INTER + INTRA:          -9.366
REMARK INTER:                  -8.513
REMARK INTRA:                  -0.852
REMARK UNBOUND:                -1.206
REMARK  Name = 
REMARK  7 active torsions:
REMARK  status: ('A' for Active; 'I' for Inactive)
REMARK    1  A    between atoms: N_1  and  C_2
REMARK    2  A    between atoms: C_2  and  C_3
REMARK    3  A    between atoms: C_6  and  C_7
REMARK    4  A    between atoms: C_7  and  C_8
REMARK    5  A    between atoms: C_11  and  C_12
REMARK    6  A    between atoms: C_12  and  N_13
REMARK    7  A    between atoms: C_14  and  C_16
REMARK                            x       y       z     vdW  Elec       q    Type
REMARK                         _______ _______ _______ _____ _____    ______ ____
ROOT
ATOM      1  C   UNL     1      50.823   8.595  11.405  0.00  0.00    +0.000 A 
ATOM      2  C   UNL     1      50.022   9.734  11.352  0.00  0.00    +0.000 A 
ATOM      3  C   UNL     1      48.680   9.639  11.716  0.00  0.00    +0.000 A 
ATOM      4  C   UNL     1      48.148   8.407  12.098  0.00  0.00    +0.000 A 
ATOM      5  C   UNL     1      49.018   7.322  12.108  0.00  0.00    +0.000 A 
ATOM      6  N   UNL     1      50.332   7.389  11.779  0.00  0.00    +0.000 NA
ENDROOT
BRANCH   1   7
ATOM      7  C   UNL     1      52.308   8.699  11.132  0.00  0.00    +0.000 C 
BRANCH   7  11
ATOM      8  C   UNL     1      54.921   6.461   9.544  0.00  0.00    +0.000 C 
ATOM      9  C   UNL     1      55.161   7.907  10.018  0.00  0.00    +0.000 C 
ATOM     10  C   UNL     1      54.186   8.901   9.387  0.00  0.00    +0.000 C 
ATOM     11  C   UNL     1      52.718   8.530   9.651  0.00  0.00    +0.000 C 
ATOM     12  C   UNL     1      52.458   7.089   9.167  0.00  0.00    +0.000 C 
ATOM     13  C   UNL     1      53.446   6.067   9.738  0.00  0.00    +0.000 C 
BRANCH   8  14
ATOM     14  C   UNL     1      55.381   6.232   8.089  0.00  0.00    +0.000 C 
BRANCH  14  15
ATOM     15  N   UNL     1      54.877   4.964   7.571  0.00  0.00    +0.000 NA
ATOM     16  H   UNL     1      54.050   5.128   6.999  0.00  0.00    +0.000 HD
ATOM     17  H   UNL     1      54.583   4.368   8.344  0.00  0.00    +0.000 HD
ENDBRANCH  14  15
ENDBRANCH   8  14
ENDBRANCH   7  11
ENDBRANCH   1   7
BRANCH   4  18
ATOM     18  C   UNL     1      46.709   8.273  12.510  0.00  0.00    +0.000 C 
BRANCH  18  19
ATOM     19  N   UNL     1      46.214   6.933  12.312  0.00  0.00    +0.000 N 
ATOM     20  C   UNL     1      45.056   6.711  11.606  0.00  0.00    +0.000 C 
ATOM     21  O   UNL     1      44.424   7.627  11.092  0.00  0.00    +0.000 OA
ATOM     22  H   UNL     1      46.577   6.201  12.917  0.00  0.00    +0.000 HD
BRANCH  20  23
ATOM     23  C   UNL     1      44.637   5.307  11.444  0.00  0.00    +0.000 A 
ATOM     24  C   UNL     1      43.922   4.689  12.461  0.00  0.00    +0.000 A 
ATOM     25  S   UNL     1      43.489   3.078  12.110  0.00  0.00    +0.000 S 
ATOM     26  C   UNL     1      44.283   3.134  10.606  0.00  0.00    +0.000 A 
ATOM     27  N   UNL     1      44.321   2.044   9.795  0.00  0.00    +0.000 NA
ATOM     28  C   UNL     1      44.976   2.220   8.696  0.00  0.00    +0.000 A 
ATOM     29  N   UNL     1      45.590   3.390   8.332  0.00  0.00    +0.000 N 
ATOM     30  C   UNL     1      45.552   4.527   9.107  0.00  0.00    +0.000 A 
ATOM     31  O   UNL     1      46.071   5.574   8.731  0.00  0.00    +0.000 OA
ATOM     32  C   UNL     1      44.846   4.376  10.363  0.00  0.00    +0.000 A 
ATOM     33  H   UNL     1      46.073   3.466   7.447  0.00  0.00    +0.000 HD
ENDBRANCH  20  23
ENDBRANCH  18  19
ENDBRANCH   4  18
TORSDOF 7
ENDMDL
MODEL 9
REMARK VINA RESULT:    -4.620      3.367      8.712
REMARK INTER + INTRA:          -7.581
REMARK INTER:                  -6.655
REMARK INTRA:                  -0.926
REMARK UNBOUND:                -1.206
REMARK  Name = 
REMARK  7 active torsions:
REMARK  status: ('A' for Active; 'I' for Inactive)
REMARK    1  A    between atoms: N_1  and  C_2
REMARK    2  A    between atoms: C_2  and  C_3
REMARK    3  A    between atoms: C_6  and  C_7
REMARK    4  A    between atoms: C_7  and  C_8
REMARK    5  A    between atoms: C_11  and  C_12
REMARK    6  A    between atoms: C_12  and  N_13
REMARK    7  A    between atoms: C_14  and  C_16
REMARK                            x       y       z     vdW  Elec       q    Type
REMARK                         _______ _______ _______ _____ _____    ______ ____
ROOT
ATOM      1  C   UNL     1      46.679   7.593  12.176  0.00  0.00    +0.000 A 
ATOM      2  C   UNL     1      47.885   7.008  11.797  0.00  0.00    +0.000 A 
ATOM      3  C   UNL     1      49.023   7.230  12.570  0.00  0.00    +0.000 A 
ATOM      4  C   UNL     1      48.950   8.056  13.691  0.00  0.00    +0.000 A 
ATOM      5  C   UNL     1      47.709   8.610  13.987  0.00  0.00    +0.000 A 
ATOM      6  N   UNL     1      46.581   8.393  13.265  0.00  0.00    +0.000 NA
ENDROOT
BRANCH   1   7
ATOM      7  C   UNL     1      45.408   7.268  11.422  0.00  0.00    +0.000 C 
BRANCH   7  11
ATOM      8  C   UNL     1      44.463   3.599  11.391  0.00  0.00    +0.000 C 
ATOM      9  C   UNL     1      43.812   4.689  10.521  0.00  0.00    +0.000 C 
ATOM     10  C   UNL     1      43.263   5.851  11.348  0.00  0.00    +0.000 C 
ATOM     11  C   UNL     1      44.339   6.501  12.233  0.00  0.00    +0.000 C 
ATOM     12  C   UNL     1      44.990   5.423  13.124  0.00  0.00    +0.000 C 
ATOM     13  C   UNL     1      45.509   4.216  12.336  0.00  0.00    +0.000 C 
BRANCH   8  14
ATOM     14  C   UNL     1      43.424   2.763  12.167  0.00  0.00    +0.000 C 
BRANCH  14  15
ATOM     15  N   UNL     1      43.058   1.559  11.426  0.00  0.00    +0.000 NA
ATOM     16  H   UNL     1      42.277   1.760  10.803  0.00  0.00    +0.000 HD
ATOM     17  H   UNL     1      42.738   0.840  12.073  0.00  0.00    +0.000 HD
ENDBRANCH  14  15
ENDBRANCH   8  14
ENDBRANCH   7  11
ENDBRANCH   1   7
BRANCH   4  18
ATOM     18  C   UNL     1      50.154   8.306  14.556  0.00  0.00    +0.000 C 
BRANCH  18  19
ATOM     19  N   UNL     1      49.842   8.201  15.960  0.00  0.00    +0.000 N 
ATOM     20  C   UNL     1      49.626   6.975  16.541  0.00  0.00    +0.000 C 
ATOM     21  O   UNL     1      49.725   5.931  15.906  0.00  0.00    +0.000 OA
ATOM     22  H   UNL     1      49.525   9.042  16.436  0.00  0.00    +0.000 HD
BRANCH  20  23
ATOM     23  C   UNL     1      49.328   6.969  17.984  0.00  0.00    +0.000 A 
ATOM     24  C   UNL     1      49.822   5.942  18.777  0.00  0.00    +0.000 A 
ATOM     25  S   UNL     1      49.413   6.094  20.425  0.00  0.00    +0.000 S 
ATOM     26  C   UNL     1      48.523   7.514  20.131  0.00  0.00    +0.000 A 
ATOM     27  N   UNL     1      47.872   8.152  21.139  0.00  0.00    +0.000 NA
ATOM     28  C   UNL     1      47.217   9.202  20.770  0.00  0.00    +0.000 A 
ATOM     29  N   UNL     1      47.161   9.674  19.485  0.00  0.00    +0.000 N 
ATOM     30  C   UNL     1      47.827   9.078  18.439  0.00  0.00    +0.000 A 
ATOM     31  O   UNL     1      47.795   9.554  17.307  0.00  0.00    +0.000 OA
ATOM     32  C   UNL     1      48.561   7.881  18.796  0.00  0.00    +0.000 A 
ATOM     33  H   UNL     1      46.642  10.514  19.267  0.00  0.00    +0.000 HD
ENDBRANCH  20  23
ENDBRANCH  18  19
ENDBRANCH   4  18
TORSDOF 7
ENDMDL
