MODEL 1
REMARK VINA RESULT:    -8.789      0.000      0.000
REMARK INTER + INTRA:         -16.150
REMARK INTER:                 -14.440
REMARK INTRA:                  -1.710
REMARK UNBOUND:                -1.710
REMARK  Name = 
REMARK  11 active torsions:
REMARK  status: ('A' for Active; 'I' for Inactive)
REMARK    1  A    between atoms: C_2  and  C_24
REMARK    2  A    between atoms: N_3  and  C_4
REMARK    3  A    between atoms: C_4  and  C_5
REMARK    4  A    between atoms: C_8  and  C_9
REMARK    5  A    between atoms: C_9  and  N_10
REMARK    6  A    between atoms: N_10  and  C_11
REMARK    7  A    between atoms: C_11  and  C_12
REMARK    8  A    between atoms: C_15  and  C_16
REMARK    9  A    between atoms: C_31  and  O_32
REMARK   10  A    between atoms: O_32  and  C_33
REMARK   11  A    between atoms: C_33  and  C_34
REMARK                            x       y       z     vdW  Elec       q    Type
REMARK                         _______ _______ _______ _____ _____    ______ ____
ROOT
ATOM      1  C   UNL     1      47.615   7.666  13.311  0.00  0.00    +0.000 C 
ENDROOT
BRANCH   1   2
ATOM      2  C   UNL     1      46.557   6.595  13.157  0.00  0.00    +0.000 A 
ATOM      3  C   UNL     1      46.890   5.250  13.287  0.00  0.00    +0.000 A 
ATOM      4  C   UNL     1      45.882   4.290  13.190  0.00  0.00    +0.000 A 
ATOM      5  C   UNL     1      44.561   4.682  12.960  0.00  0.00    +0.000 A 
ATOM      6  C   UNL     1      44.328   6.045  12.815  0.00  0.00    +0.000 A 
ATOM      7  N   UNL     1      45.286   7.002  12.900  0.00  0.00    +0.000 NA
BRANCH   5   8
ATOM      8  C   UNL     1      43.445   3.674  12.860  0.00  0.00    +0.000 C 
BRANCH   8   9
ATOM      9  N   UNL     1      43.462   2.997  11.563  0.00  0.00    +0.000 NA
ATOM     10  H   UNL     1      42.620   2.429  11.473  0.00  0.00    +0.000 HD
BRANCH   9  11
ATOM     11  C   UNL     1      43.525   3.944  10.451  0.00  0.00    +0.000 C 
BRANCH  11  12
ATOM     12  C   UNL     1      44.546   3.503   9.434  0.00  0.00    +0.000 A 
ATOM     13  C   UNL     1      44.949   2.168   9.334  0.00  0.00    +0.000 A 
ATOM     14  C   UNL     1      45.874   1.789   8.362  0.00  0.00    +0.000 A 
ATOM     15  C   UNL     1      46.394   2.755   7.501  0.00  0.00    +0.000 A 
ATOM     16  N   UNL     1      46.027   4.067   7.599  0.00  0.00    +0.000 NA
ATOM     17  C   UNL     1      45.125   4.404   8.550  0.00  0.00    +0.000 A 
BRANCH  15  18
ATOM     18  C   UNL     1      47.382   2.349   6.415  0.00  0.00    +0.000 C 
ATOM     19  F   UNL     1      47.391   1.003   6.169  0.00  0.00    +0.000 F 
ATOM     20  F   UNL     1      47.122   2.931   5.208  0.00  0.00    +0.000 F 
ATOM     21  F   UNL     1      48.674   2.668   6.717  0.00  0.00    +0.000 F 
ENDBRANCH  15  18
ENDBRANCH  11  12
ENDBRANCH   9  11
ENDBRANCH   8   9
ENDBRANCH   5   8
ENDBRANCH   1   2
BRANCH   1  24
ATOM     22  O   UNL     1      49.781   6.748  14.838  0.00  0.00    +0.000 OA
ATOM     23  C   UNL     1      48.989   7.530  15.352  0.00  0.00    +0.000 C 
ATOM     24  N   UNL     1      47.881   8.009  14.692  0.00  0.00    +0.000 N 
ATOM     25  H   UNL     1      47.373   8.788  15.083  0.00  0.00    +0.000 HD
BRANCH  23  26
ATOM     26  C   UNL     1      49.143   8.032  16.715  0.00  0.00    +0.000 A 
ATOM     27  C   UNL     1      49.641   9.277  17.084  0.00  0.00    +0.000 A 
ATOM     28  N   UNL     1      49.589   9.376  18.452  0.00  0.00    +0.000 N 
ATOM     29  C   UNL     1      49.089   8.220  18.979  0.00  0.00    +0.000 A 
ATOM     30  N   UNL     1      48.933   7.983  20.290  0.00  0.00    +0.000 NA
ATOM     31  C   UNL     1      48.424   6.758  20.513  0.00  0.00    +0.000 A 
ATOM     32  N   UNL     1      48.060   5.833  19.605  0.00  0.00    +0.000 NA
ATOM     33  C   UNL     1      48.232   6.137  18.300  0.00  0.00    +0.000 A 
ATOM     34  C   UNL     1      48.780   7.367  17.931  0.00  0.00    +0.000 A 
ATOM     35  H   UNL     1      49.865  10.173  19.009  0.00  0.00    +0.000 HD
BRANCH  33  36
ATOM     36  O   UNL     1      47.911   5.205  17.342  0.00  0.00    +0.000 OA
BRANCH  36  37
ATOM     37  C   UNL     1      48.869   4.149  17.238  0.00  0.00    +0.000 C 
BRANCH  37  38
ATOM     38  C   UNL     1      48.263   2.827  16.791  0.00  0.00    +0.000 C 
ATOM     39  F   UNL     1      49.163   1.824  16.695  0.00  0.00    +0.000 F 
ATOM     40  F   UNL     1      47.280   2.422  17.629  0.00  0.00    +0.000 F 
ATOM     41  F   UNL     1      47.696   2.963  15.563  0.00  0.00    +0.000 F 
ENDBRANCH  37  38
ENDBRANCH  36  37
ENDBRANCH  33  36
ENDBRANCH  23  26
ENDBRANCH   1  24
TORSDOF 11
ENDMDL
MODEL 2
REMARK VINA RESULT:    -8.467      1.796      2.143
REMARK INTER + INTRA:         -15.622
REMARK INTER:                 -13.801
REMARK INTRA:                  -1.821
REMARK UNBOUND:                -1.710
REMARK  Name = 
REMARK  11 active torsions:
REMARK  status: ('A' for Active; 'I' for Inactive)
REMARK    1  A    between atoms: C_2  and  C_24
REMARK    2  A    between atoms: N_3  and  C_4
REMARK    3  A    between atoms: C_4  and  C_5
REMARK    4  A    between atoms: C_8  and  C_9
REMARK    5  A    between atoms: C_9  and  N_10
REMARK    6  A    between atoms: N_10  and  C_11
REMARK    7  A    between atoms: C_11  and  C_12
REMARK    8  A    between atoms: C_15  and  C_16
REMARK    9  A    between atoms: C_31  and  O_32
REMARK   10  A    between atoms: O_32  and  C_33
REMARK   11  A    between atoms: C_33  and  C_34
REMARK                            x       y       z     vdW  Elec       q    Type
REMARK                         _______ _______ _______ _____ _____    ______ ____
ROOT
ATOM      1  C   UNL     1      47.937   8.068  13.097  0.00  0.00    +0.000 C 
ENDROOT
BRANCH   1   2
ATOM      2  C   UNL     1      46.860   7.005  13.046  0.00  0.00    +0.000 A 
ATOM      3  C   UNL     1      47.192   5.658  13.167  0.00  0.00    +0.000 A 
ATOM      4  C   UNL     1      46.171   4.707  13.165  0.00  0.00    +0.000 A 
ATOM      5  C   UNL     1      44.839   5.108  13.040  0.00  0.00    +0.000 A 
ATOM      6  C   UNL     1      44.607   6.472  12.895  0.00  0.00    +0.000 A 
ATOM      7  N   UNL     1      45.577   7.421  12.888  0.00  0.00    +0.000 NA
BRANCH   5   8
ATOM      8  C   UNL     1      43.710   4.110  13.046  0.00  0.00    +0.000 C 
BRANCH   8   9
ATOM      9  N   UNL     1      43.799   3.209  11.897  0.00  0.00    +0.000 NA
ATOM     10  H   UNL     1      43.130   2.449  12.018  0.00  0.00    +0.000 HD
BRANCH   9  11
ATOM     11  C   UNL     1      43.524   3.897  10.637  0.00  0.00    +0.000 C 
BRANCH  11  12
ATOM     12  C   UNL     1      44.518   3.489   9.580  0.00  0.00    +0.000 A 
ATOM     13  C   UNL     1      44.878   2.151   9.393  0.00  0.00    +0.000 A 
ATOM     14  C   UNL     1      45.779   1.805   8.386  0.00  0.00    +0.000 A 
ATOM     15  C   UNL     1      46.316   2.806   7.578  0.00  0.00    +0.000 A 
ATOM     16  N   UNL     1      45.990   4.120   7.760  0.00  0.00    +0.000 NA
ATOM     17  C   UNL     1      45.111   4.425   8.743  0.00  0.00    +0.000 A 
BRANCH  15  18
ATOM     18  C   UNL     1      47.277   2.438   6.454  0.00  0.00    +0.000 C 
ATOM     19  F   UNL     1      48.583   2.717   6.748  0.00  0.00    +0.000 F 
ATOM     20  F   UNL     1      47.256   1.110   6.143  0.00  0.00    +0.000 F 
ATOM     21  F   UNL     1      47.022   3.102   5.290  0.00  0.00    +0.000 F 
ENDBRANCH  15  18
ENDBRANCH  11  12
ENDBRANCH   9  11
ENDBRANCH   8   9
ENDBRANCH   5   8
ENDBRANCH   1   2
BRANCH   1  24
ATOM     22  O   UNL     1      48.622   8.414  15.795  0.00  0.00    +0.000 OA
ATOM     23  C   UNL     1      49.395   7.802  15.066  0.00  0.00    +0.000 C 
ATOM     24  N   UNL     1      49.159   7.610  13.725  0.00  0.00    +0.000 N 
ATOM     25  H   UNL     1      49.721   6.944  13.216  0.00  0.00    +0.000 HD
BRANCH  23  26
ATOM     26  C   UNL     1      50.642   7.216  15.549  0.00  0.00    +0.000 A 
ATOM     27  C   UNL     1      51.925   7.542  15.124  0.00  0.00    +0.000 A 
ATOM     28  N   UNL     1      52.824   6.797  15.846  0.00  0.00    +0.000 N 
ATOM     29  C   UNL     1      52.154   5.982  16.714  0.00  0.00    +0.000 A 
ATOM     30  N   UNL     1      52.739   5.108  17.546  0.00  0.00    +0.000 NA
ATOM     31  C   UNL     1      51.829   4.439  18.278  0.00  0.00    +0.000 A 
ATOM     32  N   UNL     1      50.490   4.581  18.268  0.00  0.00    +0.000 NA
ATOM     33  C   UNL     1      49.964   5.486  17.414  0.00  0.00    +0.000 A 
ATOM     34  C   UNL     1      50.797   6.228  16.575  0.00  0.00    +0.000 A 
ATOM     35  H   UNL     1      53.831   6.830  15.773  0.00  0.00    +0.000 HD
BRANCH  33  36
ATOM     36  O   UNL     1      48.599   5.632  17.343  0.00  0.00    +0.000 OA
BRANCH  36  37
ATOM     37  C   UNL     1      47.884   4.599  18.024  0.00  0.00    +0.000 C 
BRANCH  37  38
ATOM     38  C   UNL     1      47.363   3.512  17.094  0.00  0.00    +0.000 C 
ATOM     39  F   UNL     1      46.789   2.475  17.743  0.00  0.00    +0.000 F 
ATOM     40  F   UNL     1      46.458   4.002  16.215  0.00  0.00    +0.000 F 
ATOM     41  F   UNL     1      48.383   2.998  16.359  0.00  0.00    +0.000 F 
ENDBRANCH  37  38
ENDBRANCH  36  37
ENDBRANCH  33  36
ENDBRANCH  23  26
ENDBRANCH   1  24
TORSDOF 11
ENDMDL
MODEL 3
REMARK VINA RESULT:    -8.257      2.266      2.829
REMARK INTER + INTRA:         -15.278
REMARK INTER:                 -12.801
REMARK INTRA:                  -2.477
REMARK UNBOUND:                -1.710
REMARK  Name = 
REMARK  11 active torsions:
REMARK  status: ('A' for Active; 'I' for Inactive)
REMARK    1  A    between atoms: C_2  and  C_24
REMARK    2  A    between atoms: N_3  and  C_4
REMARK    3  A    between atoms: C_4  and  C_5
REMARK    4  A    between atoms: C_8  and  C_9
REMARK    5  A    between atoms: C_9  and  N_10
REMARK    6  A    between atoms: N_10  and  C_11
REMARK    7  A    between atoms: C_11  and  C_12
REMARK    8  A    between atoms: C_15  and  C_16
REMARK    9  A    between atoms: C_31  and  O_32
REMARK   10  A    between atoms: O_32  and  C_33
REMARK   11  A    between atoms: C_33  and  C_34
REMARK                            x       y       z     vdW  Elec       q    Type
REMARK                         _______ _______ _______ _____ _____    ______ ____
ROOT
ATOM      1  C   UNL     1      49.808   8.580  13.099  0.00  0.00    +0.000 C 
ENDROOT
BRANCH   1   2
ATOM      2  C   UNL     1      48.401   8.149  12.746  0.00  0.00    +0.000 A 
ATOM      3  C   UNL     1      48.163   7.374  11.615  0.00  0.00    +0.000 A 
ATOM      4  C   UNL     1      46.861   6.951  11.345  0.00  0.00    +0.000 A 
ATOM      5  C   UNL     1      45.816   7.310  12.200  0.00  0.00    +0.000 A 
ATOM      6  C   UNL     1      46.145   8.110  13.289  0.00  0.00    +0.000 A 
ATOM      7  N   UNL     1      47.400   8.541  13.577  0.00  0.00    +0.000 NA
BRANCH   5   8
ATOM      8  C   UNL     1      44.400   6.863  11.947  0.00  0.00    +0.000 C 
BRANCH   8   9
ATOM      9  N   UNL     1      44.276   6.228  10.635  0.00  0.00    +0.000 NA
ATOM     10  H   UNL     1      45.116   6.423  10.090  0.00  0.00    +0.000 HD
BRANCH   9  11
ATOM     11  C   UNL     1      44.095   4.781  10.739  0.00  0.00    +0.000 C 
BRANCH  11  12
ATOM     12  C   UNL     1      44.892   4.067   9.677  0.00  0.00    +0.000 A 
ATOM     13  C   UNL     1      44.929   2.672   9.605  0.00  0.00    +0.000 A 
ATOM     14  C   UNL     1      45.652   2.045   8.591  0.00  0.00    +0.000 A 
ATOM     15  C   UNL     1      46.339   2.824   7.661  0.00  0.00    +0.000 A 
ATOM     16  N   UNL     1      46.330   4.188   7.730  0.00  0.00    +0.000 NA
ATOM     17  C   UNL     1      45.617   4.768   8.722  0.00  0.00    +0.000 A 
BRANCH  15  18
ATOM     18  C   UNL     1      47.108   2.151   6.530  0.00  0.00    +0.000 C 
ATOM     19  F   UNL     1      48.465   2.276   6.651  0.00  0.00    +0.000 F 
ATOM     20  F   UNL     1      46.878   0.809   6.448  0.00  0.00    +0.000 F 
ATOM     21  F   UNL     1      46.810   2.661   5.300  0.00  0.00    +0.000 F 
ENDBRANCH  15  18
ENDBRANCH  11  12
ENDBRANCH   9  11
ENDBRANCH   8   9
ENDBRANCH   5   8
ENDBRANCH   1   2
BRANCH   1  24
ATOM     22  O   UNL     1      50.033   9.138  15.838  0.00  0.00    +0.000 OA
ATOM     23  C   UNL     1      50.471   8.073  15.418  0.00  0.00    +0.000 C 
ATOM     24  N   UNL     1      50.433   7.727  14.088  0.00  0.00    +0.000 N 
ATOM     25  H   UNL     1      50.627   6.773  13.822  0.00  0.00    +0.000 HD
BRANCH  23  26
ATOM     26  C   UNL     1      51.074   7.067  16.287  0.00  0.00    +0.000 A 
ATOM     27  C   UNL     1      52.307   7.162  16.925  0.00  0.00    +0.000 A 
ATOM     28  N   UNL     1      52.493   6.028  17.677  0.00  0.00    +0.000 N 
ATOM     29  C   UNL     1      51.422   5.195  17.526  0.00  0.00    +0.000 A 
ATOM     30  N   UNL     1      51.303   3.991  18.108  0.00  0.00    +0.000 NA
ATOM     31  C   UNL     1      50.145   3.394  17.775  0.00  0.00    +0.000 A 
ATOM     32  N   UNL     1      49.159   3.874  16.992  0.00  0.00    +0.000 NA
ATOM     33  C   UNL     1      49.335   5.097  16.445  0.00  0.00    +0.000 A 
ATOM     34  C   UNL     1      50.509   5.813  16.688  0.00  0.00    +0.000 A 
ATOM     35  H   UNL     1      53.287   5.820  18.265  0.00  0.00    +0.000 HD
BRANCH  33  36
ATOM     36  O   UNL     1      48.372   5.607  15.607  0.00  0.00    +0.000 OA
BRANCH  36  37
ATOM     37  C   UNL     1      47.190   4.805  15.553  0.00  0.00    +0.000 C 
BRANCH  37  38
ATOM     38  C   UNL     1      46.927   4.210  14.177  0.00  0.00    +0.000 C 
ATOM     39  F   UNL     1      47.709   4.730  13.205  0.00  0.00    +0.000 F 
ATOM     40  F   UNL     1      47.101   2.868  14.174  0.00  0.00    +0.000 F 
ATOM     41  F   UNL     1      45.640   4.437  13.807  0.00  0.00    +0.000 F 
ENDBRANCH  37  38
ENDBRANCH  36  37
ENDBRANCH  33  36
ENDBRANCH  23  26
ENDBRANCH   1  24
TORSDOF 11
ENDMDL
MODEL 4
REMARK VINA RESULT:    -7.092      1.946      2.352
REMARK INTER + INTRA:         -13.362
REMARK INTER:                 -12.571
REMARK INTRA:                  -0.791
REMARK UNBOUND:                -1.710
REMARK  Name = 
REMARK  11 active torsions:
REMARK  status: ('A' for Active; 'I' for Inactive)
REMARK    1  A    between atoms: C_2  and  C_24
REMARK    2  A    between atoms: N_3  and  C_4
REMARK    3  A    between atoms: C_4  and  C_5
REMARK    4  A    between atoms: C_8  and  C_9
REMARK    5  A    between atoms: C_9  and  N_10
REMARK    6  A    between atoms: N_10  and  C_11
REMARK    7  A    between atoms: C_11  and  C_12
REMARK    8  A    between atoms: C_15  and  C_16
REMARK    9  A    between atoms: C_31  and  O_32
REMARK   10  A    between atoms: O_32  and  C_33
REMARK   11  A    between atoms: C_33  and  C_34
REMARK                            x       y       z     vdW  Elec       q    Type
REMARK                         _______ _______ _______ _____ _____    ______ ____
ROOT
ATOM      1  C   UNL     1      48.645   6.449  13.114  0.00  0.00    +0.000 C 
ENDROOT
BRANCH   1   2
ATOM      2  C   UNL     1      47.274   5.818  13.008  0.00  0.00    +0.000 A 
ATOM      3  C   UNL     1      47.126   4.435  13.075  0.00  0.00    +0.000 A 
ATOM      4  C   UNL     1      45.843   3.888  13.025  0.00  0.00    +0.000 A 
ATOM      5  C   UNL     1      44.730   4.723  12.906  0.00  0.00    +0.000 A 
ATOM      6  C   UNL     1      44.977   6.089  12.817  0.00  0.00    +0.000 A 
ATOM      7  N   UNL     1      46.211   6.651  12.858  0.00  0.00    +0.000 NA
BRANCH   5   8
ATOM      8  C   UNL     1      43.329   4.169  12.861  0.00  0.00    +0.000 C 
BRANCH   8   9
ATOM      9  N   UNL     1      42.967   3.765  11.502  0.00  0.00    +0.000 NA
ATOM     10  H   UNL     1      41.953   3.813  11.399  0.00  0.00    +0.000 HD
BRANCH   9  11
ATOM     11  C   UNL     1      43.595   4.614  10.491  0.00  0.00    +0.000 C 
BRANCH  11  12
ATOM     12  C   UNL     1      44.479   3.797   9.584  0.00  0.00    +0.000 A 
ATOM     13  C   UNL     1      45.184   4.382   8.529  0.00  0.00    +0.000 A 
ATOM     14  C   UNL     1      46.017   3.601   7.728  0.00  0.00    +0.000 A 
ATOM     15  C   UNL     1      46.130   2.236   7.989  0.00  0.00    +0.000 A 
ATOM     16  N   UNL     1      45.432   1.644   9.003  0.00  0.00    +0.000 NA
ATOM     17  C   UNL     1      44.634   2.428   9.765  0.00  0.00    +0.000 A 
BRANCH  15  18
ATOM     18  C   UNL     1      47.060   1.377   7.141  0.00  0.00    +0.000 C 
ATOM     19  F   UNL     1      47.082   0.064   7.524  0.00  0.00    +0.000 F 
ATOM     20  F   UNL     1      46.718   1.358   5.820  0.00  0.00    +0.000 F 
ATOM     21  F   UNL     1      48.361   1.785   7.188  0.00  0.00    +0.000 F 
ENDBRANCH  15  18
ENDBRANCH  11  12
ENDBRANCH   9  11
ENDBRANCH   8   9
ENDBRANCH   5   8
ENDBRANCH   1   2
BRANCH   1  24
ATOM     22  O   UNL     1      48.534   5.597  15.783  0.00  0.00    +0.000 OA
ATOM     23  C   UNL     1      48.754   6.781  15.553  0.00  0.00    +0.000 C 
ATOM     24  N   UNL     1      48.795   7.295  14.278  0.00  0.00    +0.000 N 
ATOM     25  H   UNL     1      49.166   8.223  14.133  0.00  0.00    +0.000 HD
BRANCH  23  26
ATOM     26  C   UNL     1      48.994   7.761  16.608  0.00  0.00    +0.000 A 
ATOM     27  C   UNL     1      48.208   8.872  16.895  0.00  0.00    +0.000 A 
ATOM     28  N   UNL     1      48.749   9.517  17.979  0.00  0.00    +0.000 N 
ATOM     29  C   UNL     1      49.877   8.864  18.387  0.00  0.00    +0.000 A 
ATOM     30  N   UNL     1      50.658   9.253  19.407  0.00  0.00    +0.000 NA
ATOM     31  C   UNL     1      51.700   8.420  19.576  0.00  0.00    +0.000 A 
ATOM     32  N   UNL     1      51.990   7.302  18.883  0.00  0.00    +0.000 NA
ATOM     33  C   UNL     1      51.158   6.959  17.875  0.00  0.00    +0.000 A 
ATOM     34  C   UNL     1      50.051   7.756  17.574  0.00  0.00    +0.000 A 
ATOM     35  H   UNL     1      48.387  10.346  18.430  0.00  0.00    +0.000 HD
BRANCH  33  36
ATOM     36  O   UNL     1      51.439   5.848  17.116  0.00  0.00    +0.000 OA
BRANCH  36  37
ATOM     37  C   UNL     1      51.011   4.627  17.723  0.00  0.00    +0.000 C 
BRANCH  37  38
ATOM     38  C   UNL     1      52.135   3.614  17.897  0.00  0.00    +0.000 C 
ATOM     39  F   UNL     1      52.422   3.342  19.189  0.00  0.00    +0.000 F 
ATOM     40  F   UNL     1      51.848   2.443  17.281  0.00  0.00    +0.000 F 
ATOM     41  F   UNL     1      53.278   4.082  17.331  0.00  0.00    +0.000 F 
ENDBRANCH  37  38
ENDBRANCH  36  37
ENDBRANCH  33  36
ENDBRANCH  23  26
ENDBRANCH   1  24
TORSDOF 11
ENDMDL
MODEL 5
REMARK VINA RESULT:    -6.450      5.015      7.562
REMARK INTER + INTRA:         -12.307
REMARK INTER:                 -10.350
REMARK INTRA:                  -1.957
REMARK UNBOUND:                -1.710
REMARK  Name = 
REMARK  11 active torsions:
REMARK  status: ('A' for Active; 'I' for Inactive)
REMARK    1  A    between atoms: C_2  and  C_24
REMARK    2  A    between atoms: N_3  and  C_4
REMARK    3  A    between atoms: C_4  and  C_5
REMARK    4  A    between atoms: C_8  and  C_9
REMARK    5  A    between atoms: C_9  and  N_10
REMARK    6  A    between atoms: N_10  and  C_11
REMARK    7  A    between atoms: C_11  and  C_12
REMARK    8  A    between atoms: C_15  and  C_16
REMARK    9  A    between atoms: C_31  and  O_32
REMARK   10  A    between atoms: O_32  and  C_33
REMARK   11  A    between atoms: C_33  and  C_34
REMARK                            x       y       z     vdW  Elec       q    Type
REMARK                         _______ _______ _______ _____ _____    ______ ____
ROOT
ATOM      1  C   UNL     1      49.770   7.759  13.306  0.00  0.00    +0.000 C 
ENDROOT
BRANCH   1   2
ATOM      2  C   UNL     1      50.542   8.525  12.254  0.00  0.00    +0.000 A 
ATOM      3  C   UNL     1      51.344   7.851  11.336  0.00  0.00    +0.000 A 
ATOM      4  C   UNL     1      52.004   8.582  10.347  0.00  0.00    +0.000 A 
ATOM      5  C   UNL     1      51.859   9.971  10.289  0.00  0.00    +0.000 A 
ATOM      6  C   UNL     1      51.062  10.559  11.264  0.00  0.00    +0.000 A 
ATOM      7  N   UNL     1      50.411   9.877  12.241  0.00  0.00    +0.000 NA
BRANCH   5   8
ATOM      8  C   UNL     1      52.547  10.791   9.228  0.00  0.00    +0.000 C 
BRANCH   8   9
ATOM      9  N   UNL     1      53.897  10.291   8.970  0.00  0.00    +0.000 NA
ATOM     10  H   UNL     1      54.050   9.446   9.519  0.00  0.00    +0.000 HD
BRANCH   9  11
ATOM     11  C   UNL     1      54.109   9.990   7.555  0.00  0.00    +0.000 C 
BRANCH  11  12
ATOM     12  C   UNL     1      54.110   8.501   7.322  0.00  0.00    +0.000 A 
ATOM     13  C   UNL     1      54.860   7.637   8.123  0.00  0.00    +0.000 A 
ATOM     14  C   UNL     1      54.815   6.261   7.898  0.00  0.00    +0.000 A 
ATOM     15  C   UNL     1      54.021   5.765   6.865  0.00  0.00    +0.000 A 
ATOM     16  N   UNL     1      53.299   6.598   6.059  0.00  0.00    +0.000 NA
ATOM     17  C   UNL     1      53.360   7.927   6.304  0.00  0.00    +0.000 A 
BRANCH  15  18
ATOM     18  C   UNL     1      53.939   4.261   6.628  0.00  0.00    +0.000 C 
ATOM     19  F   UNL     1      54.805   3.544   7.407  0.00  0.00    +0.000 F 
ATOM     20  F   UNL     1      52.705   3.742   6.895  0.00  0.00    +0.000 F 
ATOM     21  F   UNL     1      54.229   3.903   5.344  0.00  0.00    +0.000 F 
ENDBRANCH  15  18
ENDBRANCH  11  12
ENDBRANCH   9  11
ENDBRANCH   8   9
ENDBRANCH   5   8
ENDBRANCH   1   2
BRANCH   1  24
ATOM     22  O   UNL     1      47.148   8.499  13.970  0.00  0.00    +0.000 OA
ATOM     23  C   UNL     1      47.316   7.598  13.156  0.00  0.00    +0.000 C 
ATOM     24  N   UNL     1      48.563   7.147  12.793  0.00  0.00    +0.000 N 
ATOM     25  H   UNL     1      48.654   6.545  11.987  0.00  0.00    +0.000 HD
BRANCH  23  26
ATOM     26  C   UNL     1      46.210   6.915  12.491  0.00  0.00    +0.000 A 
ATOM     27  C   UNL     1      45.272   7.497  11.644  0.00  0.00    +0.000 A 
ATOM     28  N   UNL     1      44.424   6.514  11.198  0.00  0.00    +0.000 N 
ATOM     29  C   UNL     1      44.775   5.316  11.750  0.00  0.00    +0.000 A 
ATOM     30  N   UNL     1      44.130   4.159  11.538  0.00  0.00    +0.000 NA
ATOM     31  C   UNL     1      44.699   3.146  12.216  0.00  0.00    +0.000 A 
ATOM     32  N   UNL     1      45.790   3.184  13.005  0.00  0.00    +0.000 NA
ATOM     33  C   UNL     1      46.400   4.378  13.170  0.00  0.00    +0.000 A 
ATOM     34  C   UNL     1      45.893   5.519  12.543  0.00  0.00    +0.000 A 
ATOM     35  H   UNL     1      43.653   6.631  10.555  0.00  0.00    +0.000 HD
BRANCH  33  36
ATOM     36  O   UNL     1      47.492   4.470  13.999  0.00  0.00    +0.000 OA
BRANCH  36  37
ATOM     37  C   UNL     1      47.145   4.694  15.367  0.00  0.00    +0.000 C 
BRANCH  37  38
ATOM     38  C   UNL     1      47.695   3.633  16.310  0.00  0.00    +0.000 C 
ATOM     39  F   UNL     1      46.826   3.266  17.277  0.00  0.00    +0.000 F 
ATOM     40  F   UNL     1      48.065   2.517  15.641  0.00  0.00    +0.000 F 
ATOM     41  F   UNL     1      48.807   4.097  16.939  0.00  0.00    +0.000 F 
ENDBRANCH  37  38
ENDBRANCH  36  37
ENDBRANCH  33  36
ENDBRANCH  23  26
ENDBRANCH   1  24
TORSDOF 11
ENDMDL
MODEL 6
REMARK VINA RESULT:    -6.082      2.090      3.306
REMARK INTER + INTRA:         -11.703
REMARK INTER:                  -9.889
REMARK INTRA:                  -1.814
REMARK UNBOUND:                -1.710
REMARK  Name = 
REMARK  11 active torsions:
REMARK  status: ('A' for Active; 'I' for Inactive)
REMARK    1  A    between atoms: C_2  and  C_24
REMARK    2  A    between atoms: N_3  and  C_4
REMARK    3  A    between atoms: C_4  and  C_5
REMARK    4  A    between atoms: C_8  and  C_9
REMARK    5  A    between atoms: C_9  and  N_10
REMARK    6  A    between atoms: N_10  and  C_11
REMARK    7  A    between atoms: C_11  and  C_12
REMARK    8  A    between atoms: C_15  and  C_16
REMARK    9  A    between atoms: C_31  and  O_32
REMARK   10  A    between atoms: O_32  and  C_33
REMARK   11  A    between atoms: C_33  and  C_34
REMARK                            x       y       z     vdW  Elec       q    Type
REMARK                         _______ _______ _______ _____ _____    ______ ____
ROOT
ATOM      1  C   UNL     1      50.080   8.782  14.299  0.00  0.00    +0.000 C 
ENDROOT
BRANCH   1   2
ATOM      2  C   UNL     1      48.740   8.980  13.625  0.00  0.00    +0.000 A 
ATOM      3  C   UNL     1      48.661   9.598  12.380  0.00  0.00    +0.000 A 
ATOM      4  C   UNL     1      47.415   9.722  11.763  0.00  0.00    +0.000 A 
ATOM      5  C   UNL     1      46.269   9.232  12.394  0.00  0.00    +0.000 A 
ATOM      6  C   UNL     1      46.442   8.657  13.648  0.00  0.00    +0.000 A 
ATOM      7  N   UNL     1      47.638   8.526  14.276  0.00  0.00    +0.000 NA
BRANCH   5   8
ATOM      8  C   UNL     1      44.910   9.337  11.753  0.00  0.00    +0.000 C 
BRANCH   8   9
ATOM      9  N   UNL     1      44.564   8.102  11.049  0.00  0.00    +0.000 NA
ATOM     10  H   UNL     1      45.103   8.049  10.185  0.00  0.00    +0.000 HD
BRANCH   9  11
ATOM     11  C   UNL     1      44.834   6.914  11.858  0.00  0.00    +0.000 C 
BRANCH  11  12
ATOM     12  C   UNL     1      45.001   5.700  10.982  0.00  0.00    +0.000 A 
ATOM     13  C   UNL     1      44.653   4.423  11.429  0.00  0.00    +0.000 A 
ATOM     14  C   UNL     1      44.792   3.324  10.582  0.00  0.00    +0.000 A 
ATOM     15  C   UNL     1      45.286   3.516   9.292  0.00  0.00    +0.000 A 
ATOM     16  N   UNL     1      45.651   4.755   8.846  0.00  0.00    +0.000 NA
ATOM     17  C   UNL     1      45.501   5.802   9.690  0.00  0.00    +0.000 A 
BRANCH  15  18
ATOM     18  C   UNL     1      45.415   2.329   8.345  0.00  0.00    +0.000 C 
ATOM     19  F   UNL     1      45.556   2.696   7.035  0.00  0.00    +0.000 F 
ATOM     20  F   UNL     1      46.497   1.542   8.614  0.00  0.00    +0.000 F 
ATOM     21  F   UNL     1      44.331   1.501   8.371  0.00  0.00    +0.000 F 
ENDBRANCH  15  18
ENDBRANCH  11  12
ENDBRANCH   9  11
ENDBRANCH   8   9
ENDBRANCH   5   8
ENDBRANCH   1   2
BRANCH   1  24
ATOM     22  O   UNL     1      51.831   6.939  15.483  0.00  0.00    +0.000 OA
ATOM     23  C   UNL     1      50.896   7.371  16.147  0.00  0.00    +0.000 C 
ATOM     24  N   UNL     1      49.970   8.253  15.642  0.00  0.00    +0.000 N 
ATOM     25  H   UNL     1      49.340   8.723  16.275  0.00  0.00    +0.000 HD
BRANCH  23  26
ATOM     26  C   UNL     1      50.673   6.995  17.540  0.00  0.00    +0.000 A 
ATOM     27  C   UNL     1      51.190   7.636  18.661  0.00  0.00    +0.000 A 
ATOM     28  N   UNL     1      50.717   7.000  19.781  0.00  0.00    +0.000 N 
ATOM     29  C   UNL     1      49.925   5.950  19.414  0.00  0.00    +0.000 A 
ATOM     30  N   UNL     1      49.329   5.107  20.272  0.00  0.00    +0.000 NA
ATOM     31  C   UNL     1      48.615   4.168  19.625  0.00  0.00    +0.000 A 
ATOM     32  N   UNL     1      48.439   4.028  18.297  0.00  0.00    +0.000 NA
ATOM     33  C   UNL     1      49.058   4.916  17.488  0.00  0.00    +0.000 A 
ATOM     34  C   UNL     1      49.855   5.926  18.031  0.00  0.00    +0.000 A 
ATOM     35  H   UNL     1      50.906   7.251  20.741  0.00  0.00    +0.000 HD
BRANCH  33  36
ATOM     36  O   UNL     1      48.938   4.785  16.125  0.00  0.00    +0.000 OA
BRANCH  36  37
ATOM     37  C   UNL     1      47.771   5.419  15.597  0.00  0.00    +0.000 C 
BRANCH  37  38
ATOM     38  C   UNL     1      47.149   4.665  14.430  0.00  0.00    +0.000 C 
ATOM     39  F   UNL     1      47.517   5.142  13.221  0.00  0.00    +0.000 F 
ATOM     40  F   UNL     1      47.461   3.348  14.467  0.00  0.00    +0.000 F 
ATOM     41  F   UNL     1      45.795   4.747  14.488  0.00  0.00    +0.000 F 
ENDBRANCH  37  38
ENDBRANCH  36  37
ENDBRANCH  33  36
ENDBRANCH  23  26
ENDBRANCH   1  24
TORSDOF 11
ENDMDL
