MODEL 1
REMARK VINA RESULT:    -8.522      0.000      0.000
REMARK INTER + INTRA:         -12.903
REMARK INTER:                 -11.511
REMARK INTRA:                  -1.392
REMARK UNBOUND:                -1.392
REMARK  Name = 
REMARK  6 active torsions:
REMARK  status: ('A' for Active; 'I' for Inactive)
REMARK    1  A    between atoms: C_2  and  C_19
REMARK    2  A    between atoms: N_3  and  C_4
REMARK    3  A    between atoms: C_4  and  C_5
REMARK    4  A    between atoms: C_8  and  C_9
REMARK    5  A    between atoms: C_9  and  N_10
REMARK    6  A    between atoms: N_10  and  C_11
REMARK                            x       y       z     vdW  Elec       q    Type
REMARK                         _______ _______ _______ _____ _____    ______ ____
ROOT
ATOM      1  C   UNL     1      46.595   8.394  12.940  0.00  0.00    +0.000 C 
ENDROOT
BRANCH   1   2
ATOM      2  C   UNL     1      45.757   7.491  12.023  0.00  0.00    +0.000 C 
ATOM      3  C   UNL     1      44.790   6.614  12.836  0.00  0.00    +0.000 C 
ATOM      4  C   UNL     1      44.025   5.635  11.953  0.00  0.00    +0.000 C 
ATOM      5  C   UNL     1      44.969   4.755  11.122  0.00  0.00    +0.000 C 
ATOM      6  C   UNL     1      45.923   5.635  10.295  0.00  0.00    +0.000 C 
ATOM      7  C   UNL     1      46.690   6.620  11.172  0.00  0.00    +0.000 C 
BRANCH   5   8
ATOM      8  C   UNL     1      44.142   3.815  10.225  0.00  0.00    +0.000 C 
BRANCH   8   9
ATOM      9  N   UNL     1      44.244   4.212   8.822  0.00  0.00    +0.000 NA
ATOM     10  H   UNL     1      44.742   5.099   8.755  0.00  0.00    +0.000 HD
BRANCH   9  11
ATOM     11  C   UNL     1      44.891   3.217   7.959  0.00  0.00    +0.000 C 
ATOM     12  C   UNL     1      45.418   2.089   8.866  0.00  0.00    +0.000 C 
ATOM     13  C   UNL     1      46.179   1.027   8.076  0.00  0.00    +0.000 C 
ATOM     14  C   UNL     1      47.310   1.641   7.258  0.00  0.00    +0.000 C 
ATOM     15  C   UNL     1      46.792   2.740   6.342  0.00  0.00    +0.000 C 
ATOM     16  C   UNL     1      46.037   3.811   7.122  0.00  0.00    +0.000 C 
ENDBRANCH   9  11
ENDBRANCH   8   9
ENDBRANCH   5   8
ENDBRANCH   1   2
BRANCH   1  19
ATOM     17  O   UNL     1      49.251   7.702  13.511  0.00  0.00    +0.000 OA
ATOM     18  C   UNL     1      48.385   7.435  14.337  0.00  0.00    +0.000 C 
ATOM     19  N   UNL     1      47.049   7.705  14.129  0.00  0.00    +0.000 N 
ATOM     20  H   UNL     1      46.394   7.573  14.886  0.00  0.00    +0.000 HD
BRANCH  18  21
ATOM     21  C   UNL     1      48.693   6.758  15.596  0.00  0.00    +0.000 A 
ATOM     22  C   UNL     1      49.447   7.323  16.614  0.00  0.00    +0.000 A 
ATOM     23  S   UNL     1      49.510   6.354  18.021  0.00  0.00    +0.000 S 
ATOM     24  C   UNL     1      48.532   5.155  17.309  0.00  0.00    +0.000 A 
ATOM     25  N   UNL     1      48.159   4.047  18.004  0.00  0.00    +0.000 NA
ATOM     26  C   UNL     1      47.396   3.241  17.342  0.00  0.00    +0.000 A 
ATOM     27  N   UNL     1      46.993   3.430  16.044  0.00  0.00    +0.000 N 
ATOM     28  C   UNL     1      47.440   4.477  15.266  0.00  0.00    +0.000 A 
ATOM     29  O   UNL     1      47.253   4.480  14.055  0.00  0.00    +0.000 OA
ATOM     30  C   UNL     1      48.206   5.466  16.003  0.00  0.00    +0.000 A 
ATOM     31  H   UNL     1      46.461   2.725  15.557  0.00  0.00    +0.000 HD
ENDBRANCH  18  21
ENDBRANCH   1  19
TORSDOF 6
ENDMDL
MODEL 2
REMARK VINA RESULT:    -8.397      2.256      3.003
REMARK INTER + INTRA:         -12.734
REMARK INTER:                 -11.765
REMARK INTRA:                  -0.969
REMARK UNBOUND:                -1.392
REMARK  Name = 
REMARK  6 active torsions:
REMARK  status: ('A' for Active; 'I' for Inactive)
REMARK    1  A    between atoms: C_2  and  C_19
REMARK    2  A    between atoms: N_3  and  C_4
REMARK    3  A    between atoms: C_4  and  C_5
REMARK    4  A    between atoms: C_8  and  C_9
REMARK    5  A    between atoms: C_9  and  N_10
REMARK    6  A    between atoms: N_10  and  C_11
REMARK                            x       y       z     vdW  Elec       q    Type
REMARK                         _______ _______ _______ _____ _____    ______ ____
ROOT
ATOM      1  C   UNL     1      46.255   4.694  14.901  0.00  0.00    +0.000 C 
ENDROOT
BRANCH   1   2
ATOM      2  C   UNL     1      46.331   4.583  13.370  0.00  0.00    +0.000 C 
ATOM      3  C   UNL     1      46.160   5.958  12.703  0.00  0.00    +0.000 C 
ATOM      4  C   UNL     1      46.127   5.856  11.182  0.00  0.00    +0.000 C 
ATOM      5  C   UNL     1      45.035   4.891  10.698  0.00  0.00    +0.000 C 
ATOM      6  C   UNL     1      45.218   3.511  11.353  0.00  0.00    +0.000 C 
ATOM      7  C   UNL     1      45.257   3.606  12.875  0.00  0.00    +0.000 C 
BRANCH   5   8
ATOM      8  C   UNL     1      45.073   4.800   9.161  0.00  0.00    +0.000 C 
BRANCH   8   9
ATOM      9  N   UNL     1      44.468   3.552   8.698  0.00  0.00    +0.000 NA
ATOM     10  H   UNL     1      43.545   3.746   8.311  0.00  0.00    +0.000 HD
BRANCH   9  11
ATOM     11  C   UNL     1      45.273   2.821   7.712  0.00  0.00    +0.000 C 
ATOM     12  C   UNL     1      45.893   1.608   8.429  0.00  0.00    +0.000 C 
ATOM     13  C   UNL     1      46.817   0.810   7.510  0.00  0.00    +0.000 C 
ATOM     14  C   UNL     1      47.899   1.693   6.900  0.00  0.00    +0.000 C 
ATOM     15  C   UNL     1      47.291   2.883   6.170  0.00  0.00    +0.000 C 
ATOM     16  C   UNL     1      46.374   3.691   7.081  0.00  0.00    +0.000 C 
ENDBRANCH   9  11
ENDBRANCH   8   9
ENDBRANCH   5   8
ENDBRANCH   1   2
BRANCH   1  19
ATOM     17  O   UNL     1      46.798   4.255  17.617  0.00  0.00    +0.000 OA
ATOM     18  C   UNL     1      47.737   4.482  16.860  0.00  0.00    +0.000 C 
ATOM     19  N   UNL     1      47.564   4.743  15.517  0.00  0.00    +0.000 N 
ATOM     20  H   UNL     1      48.374   4.806  14.917  0.00  0.00    +0.000 HD
BRANCH  18  21
ATOM     21  C   UNL     1      49.119   4.542  17.331  0.00  0.00    +0.000 A 
ATOM     22  C   UNL     1      49.680   5.652  17.944  0.00  0.00    +0.000 A 
ATOM     23  S   UNL     1      51.265   5.373  18.520  0.00  0.00    +0.000 S 
ATOM     24  C   UNL     1      51.245   3.763  17.968  0.00  0.00    +0.000 A 
ATOM     25  N   UNL     1      52.300   2.931  18.181  0.00  0.00    +0.000 NA
ATOM     26  C   UNL     1      52.127   1.733  17.728  0.00  0.00    +0.000 A 
ATOM     27  N   UNL     1      51.009   1.299  17.062  0.00  0.00    +0.000 N 
ATOM     28  C   UNL     1      49.968   2.136  16.722  0.00  0.00    +0.000 A 
ATOM     29  O   UNL     1      49.109   1.773  15.927  0.00  0.00    +0.000 OA
ATOM     30  C   UNL     1      50.068   3.459  17.309  0.00  0.00    +0.000 A 
ATOM     31  H   UNL     1      50.970   0.372  16.665  0.00  0.00    +0.000 HD
ENDBRANCH  18  21
ENDBRANCH   1  19
TORSDOF 6
ENDMDL
MODEL 3
REMARK VINA RESULT:    -8.063      1.763      2.366
REMARK INTER + INTRA:         -12.283
REMARK INTER:                 -11.483
REMARK INTRA:                  -0.800
REMARK UNBOUND:                -1.392
REMARK  Name = 
REMARK  6 active torsions:
REMARK  status: ('A' for Active; 'I' for Inactive)
REMARK    1  A    between atoms: C_2  and  C_19
REMARK    2  A    between atoms: N_3  and  C_4
REMARK    3  A    between atoms: C_4  and  C_5
REMARK    4  A    between atoms: C_8  and  C_9
REMARK    5  A    between atoms: C_9  and  N_10
REMARK    6  A    between atoms: N_10  and  C_11
REMARK                            x       y       z     vdW  Elec       q    Type
REMARK                         _______ _______ _______ _____ _____    ______ ____
ROOT
ATOM      1  C   UNL     1      47.878   6.448  13.621  0.00  0.00    +0.000 C 
ENDROOT
BRANCH   1   2
ATOM      2  C   UNL     1      46.605   5.799  13.057  0.00  0.00    +0.000 C 
ATOM      3  C   UNL     1      46.627   4.274  13.245  0.00  0.00    +0.000 C 
ATOM      4  C   UNL     1      45.422   3.600  12.599  0.00  0.00    +0.000 C 
ATOM      5  C   UNL     1      45.301   3.950  11.108  0.00  0.00    +0.000 C 
ATOM      6  C   UNL     1      45.261   5.477  10.925  0.00  0.00    +0.000 C 
ATOM      7  C   UNL     1      46.461   6.159  11.573  0.00  0.00    +0.000 C 
BRANCH   5   8
ATOM      8  C   UNL     1      44.049   3.274  10.520  0.00  0.00    +0.000 C 
BRANCH   8   9
ATOM      9  N   UNL     1      44.418   2.149   9.664  0.00  0.00    +0.000 NA
ATOM     10  H   UNL     1      43.634   1.914   9.055  0.00  0.00    +0.000 HD
BRANCH   9  11
ATOM     11  C   UNL     1      45.621   2.376   8.854  0.00  0.00    +0.000 C 
ATOM     12  C   UNL     1      45.266   3.423   7.782  0.00  0.00    +0.000 C 
ATOM     13  C   UNL     1      46.430   3.685   6.829  0.00  0.00    +0.000 C 
ATOM     14  C   UNL     1      46.928   2.396   6.185  0.00  0.00    +0.000 C 
ATOM     15  C   UNL     1      47.303   1.364   7.240  0.00  0.00    +0.000 C 
ATOM     16  C   UNL     1      46.144   1.089   8.192  0.00  0.00    +0.000 C 
ENDBRANCH   9  11
ENDBRANCH   8   9
ENDBRANCH   5   8
ENDBRANCH   1   2
BRANCH   1  19
ATOM     17  O   UNL     1      50.122   6.729  15.278  0.00  0.00    +0.000 OA
ATOM     18  C   UNL     1      49.009   6.723  15.794  0.00  0.00    +0.000 C 
ATOM     19  N   UNL     1      47.852   6.556  15.064  0.00  0.00    +0.000 N 
ATOM     20  H   UNL     1      46.958   6.676  15.519  0.00  0.00    +0.000 HD
BRANCH  18  21
ATOM     21  C   UNL     1      48.820   6.844  17.238  0.00  0.00    +0.000 A 
ATOM     22  C   UNL     1      48.426   8.013  17.872  0.00  0.00    +0.000 A 
ATOM     23  S   UNL     1      48.144   7.808  19.545  0.00  0.00    +0.000 S 
ATOM     24  C   UNL     1      48.540   6.154  19.469  0.00  0.00    +0.000 A 
ATOM     25  N   UNL     1      48.461   5.359  20.570  0.00  0.00    +0.000 NA
ATOM     26  C   UNL     1      48.766   4.123  20.351  0.00  0.00    +0.000 A 
ATOM     27  N   UNL     1      49.164   3.615  19.140  0.00  0.00    +0.000 N 
ATOM     28  C   UNL     1      49.369   4.404  18.028  0.00  0.00    +0.000 A 
ATOM     29  O   UNL     1      49.949   3.959  17.045  0.00  0.00    +0.000 OA
ATOM     30  C   UNL     1      48.930   5.777  18.198  0.00  0.00    +0.000 A 
ATOM     31  H   UNL     1      49.464   2.656  19.053  0.00  0.00    +0.000 HD
ENDBRANCH  18  21
ENDBRANCH   1  19
TORSDOF 6
ENDMDL
MODEL 4
REMARK VINA RESULT:    -7.633      2.290      3.028
REMARK INTER + INTRA:         -11.703
REMARK INTER:                 -10.466
REMARK INTRA:                  -1.237
REMARK UNBOUND:                -1.392
REMARK  Name = 
REMARK  6 active torsions:
REMARK  status: ('A' for Active; 'I' for Inactive)
REMARK    1  A    between atoms: C_2  and  C_19
REMARK    2  A    between atoms: N_3  and  C_4
REMARK    3  A    between atoms: C_4  and  C_5
REMARK    4  A    between atoms: C_8  and  C_9
REMARK    5  A    between atoms: C_9  and  N_10
REMARK    6  A    between atoms: N_10  and  C_11
REMARK                            x       y       z     vdW  Elec       q    Type
REMARK                         _______ _______ _______ _____ _____    ______ ____
ROOT
ATOM      1  C   UNL     1      48.385   6.903  13.886  0.00  0.00    +0.000 C 
ENDROOT
BRANCH   1   2
ATOM      2  C   UNL     1      47.528   6.065  12.925  0.00  0.00    +0.000 C 
ATOM      3  C   UNL     1      46.728   6.962  11.966  0.00  0.00    +0.000 C 
ATOM      4  C   UNL     1      45.792   6.155  11.074  0.00  0.00    +0.000 C 
ATOM      5  C   UNL     1      44.839   5.274  11.895  0.00  0.00    +0.000 C 
ATOM      6  C   UNL     1      45.642   4.364  12.841  0.00  0.00    +0.000 C 
ATOM      7  C   UNL     1      46.585   5.164  13.733  0.00  0.00    +0.000 C 
BRANCH   5   8
ATOM      8  C   UNL     1      43.946   4.456  10.944  0.00  0.00    +0.000 C 
BRANCH   8   9
ATOM      9  N   UNL     1      44.126   4.888   9.560  0.00  0.00    +0.000 NA
ATOM     10  H   UNL     1      44.796   5.656   9.528  0.00  0.00    +0.000 HD
BRANCH   9  11
ATOM     11  C   UNL     1      44.554   3.822   8.646  0.00  0.00    +0.000 C 
ATOM     12  C   UNL     1      44.678   2.527   9.470  0.00  0.00    +0.000 C 
ATOM     13  C   UNL     1      45.193   1.360   8.631  0.00  0.00    +0.000 C 
ATOM     14  C   UNL     1      46.513   1.699   7.949  0.00  0.00    +0.000 C 
ATOM     15  C   UNL     1      46.391   2.966   7.113  0.00  0.00    +0.000 C 
ATOM     16  C   UNL     1      45.886   4.140   7.945  0.00  0.00    +0.000 C 
ENDBRANCH   9  11
ENDBRANCH   8   9
ENDBRANCH   5   8
ENDBRANCH   1   2
BRANCH   1  19
ATOM     17  O   UNL     1      50.364   6.440  15.818  0.00  0.00    +0.000 OA
ATOM     18  C   UNL     1      49.187   6.389  16.160  0.00  0.00    +0.000 C 
ATOM     19  N   UNL     1      48.146   6.568  15.274  0.00  0.00    +0.000 N 
ATOM     20  H   UNL     1      47.202   6.633  15.627  0.00  0.00    +0.000 HD
BRANCH  18  21
ATOM     21  C   UNL     1      48.789   6.082  17.533  0.00  0.00    +0.000 A 
ATOM     22  C   UNL     1      48.923   4.832  18.117  0.00  0.00    +0.000 A 
ATOM     23  S   UNL     1      48.512   4.817  19.776  0.00  0.00    +0.000 S 
ATOM     24  C   UNL     1      48.146   6.479  19.760  0.00  0.00    +0.000 A 
ATOM     25  N   UNL     1      47.764   7.128  20.893  0.00  0.00    +0.000 NA
ATOM     26  C   UNL     1      47.546   8.391  20.730  0.00  0.00    +0.000 A 
ATOM     27  N   UNL     1      47.652   9.058  19.536  0.00  0.00    +0.000 N 
ATOM     28  C   UNL     1      47.922   8.422  18.343  0.00  0.00    +0.000 A 
ATOM     29  O   UNL     1      47.772   9.004  17.276  0.00  0.00    +0.000 OA
ATOM     30  C   UNL     1      48.285   7.025  18.498  0.00  0.00    +0.000 A 
ATOM     31  H   UNL     1      47.391  10.030  19.460  0.00  0.00    +0.000 HD
ENDBRANCH  18  21
ENDBRANCH   1  19
TORSDOF 6
ENDMDL
MODEL 5
REMARK VINA RESULT:    -7.475      2.376      3.230
REMARK INTER + INTRA:         -11.489
REMARK INTER:                 -10.516
REMARK INTRA:                  -0.973
REMARK UNBOUND:                -1.392
REMARK  Name = 
REMARK  6 active torsions:
REMARK  status: ('A' for Active; 'I' for Inactive)
REMARK    1  A    between atoms: C_2  and  C_19
REMARK    2  A    between atoms: N_3  and  C_4
REMARK    3  A    between atoms: C_4  and  C_5
REMARK    4  A    between atoms: C_8  and  C_9
REMARK    5  A    between atoms: C_9  and  N_10
REMARK    6  A    between atoms: N_10  and  C_11
REMARK                            x       y       z     vdW  Elec       q    Type
REMARK                         _______ _______ _______ _____ _____    ______ ____
ROOT
ATOM      1  C   UNL     1      48.030   6.268  14.038  0.00  0.00    +0.000 C 
ENDROOT
BRANCH   1   2
ATOM      2  C   UNL     1      46.692   6.078  13.307  0.00  0.00    +0.000 C 
ATOM      3  C   UNL     1      46.177   4.637  13.455  0.00  0.00    +0.000 C 
ATOM      4  C   UNL     1      44.904   4.398  12.650  0.00  0.00    +0.000 C 
ATOM      5  C   UNL     1      45.092   4.745  11.166  0.00  0.00    +0.000 C 
ATOM      6  C   UNL     1      45.590   6.194  11.020  0.00  0.00    +0.000 C 
ATOM      7  C   UNL     1      46.861   6.441  11.826  0.00  0.00    +0.000 C 
BRANCH   5   8
ATOM      8  C   UNL     1      43.768   4.522  10.413  0.00  0.00    +0.000 C 
BRANCH   8   9
ATOM      9  N   UNL     1      43.828   3.305   9.605  0.00  0.00    +0.000 NA
ATOM     10  H   UNL     1      43.161   3.375   8.836  0.00  0.00    +0.000 HD
BRANCH   9  11
ATOM     11  C   UNL     1      45.161   2.999   9.073  0.00  0.00    +0.000 C 
ATOM     12  C   UNL     1      45.410   3.937   7.877  0.00  0.00    +0.000 C 
ATOM     13  C   UNL     1      46.747   3.654   7.195  0.00  0.00    +0.000 C 
ATOM     14  C   UNL     1      46.864   2.194   6.775  0.00  0.00    +0.000 C 
ATOM     15  C   UNL     1      46.643   1.262   7.958  0.00  0.00    +0.000 C 
ATOM     16  C   UNL     1      45.306   1.530   8.640  0.00  0.00    +0.000 C 
ENDBRANCH   9  11
ENDBRANCH   8   9
ENDBRANCH   5   8
ENDBRANCH   1   2
BRANCH   1  19
ATOM     17  O   UNL     1      50.128   6.266  15.899  0.00  0.00    +0.000 OA
ATOM     18  C   UNL     1      48.974   6.295  16.315  0.00  0.00    +0.000 C 
ATOM     19  N   UNL     1      47.880   6.263  15.477  0.00  0.00    +0.000 N 
ATOM     20  H   UNL     1      46.957   6.407  15.863  0.00  0.00    +0.000 HD
BRANCH  18  21
ATOM     21  C   UNL     1      48.663   6.314  17.743  0.00  0.00    +0.000 A 
ATOM     22  C   UNL     1      48.755   5.204  18.570  0.00  0.00    +0.000 A 
ATOM     23  S   UNL     1      48.473   5.568  20.216  0.00  0.00    +0.000 S 
ATOM     24  C   UNL     1      48.223   7.216  19.870  0.00  0.00    +0.000 A 
ATOM     25  N   UNL     1      47.975   8.114  20.860  0.00  0.00    +0.000 NA
ATOM     26  C   UNL     1      47.833   9.330  20.446  0.00  0.00    +0.000 A 
ATOM     27  N   UNL     1      47.892   9.725  19.133  0.00  0.00    +0.000 N 
ATOM     28  C   UNL     1      48.024   8.834  18.089  0.00  0.00    +0.000 A 
ATOM     29  O   UNL     1      47.833   9.193  16.934  0.00  0.00    +0.000 OA
ATOM     30  C   UNL     1      48.301   7.474  18.514  0.00  0.00    +0.000 A 
ATOM     31  H   UNL     1      47.694  10.678  18.869  0.00  0.00    +0.000 HD
ENDBRANCH  18  21
ENDBRANCH   1  19
TORSDOF 6
ENDMDL
MODEL 6
REMARK VINA RESULT:    -7.253      2.991      4.381
REMARK INTER + INTRA:         -11.190
REMARK INTER:                  -9.963
REMARK INTRA:                  -1.226
REMARK UNBOUND:                -1.392
REMARK  Name = 
REMARK  6 active torsions:
REMARK  status: ('A' for Active; 'I' for Inactive)
REMARK    1  A    between atoms: C_2  and  C_19
REMARK    2  A    between atoms: N_3  and  C_4
REMARK    3  A    between atoms: C_4  and  C_5
REMARK    4  A    between atoms: C_8  and  C_9
REMARK    5  A    between atoms: C_9  and  N_10
REMARK    6  A    between atoms: N_10  and  C_11
REMARK                            x       y       z     vdW  Elec       q    Type
REMARK                         _______ _______ _______ _____ _____    ______ ____
ROOT
ATOM      1  C   UNL     1      47.588   6.304  14.238  0.00  0.00    +0.000 C 
ENDROOT
BRANCH   1   2
ATOM      2  C   UNL     1      47.052   5.621  12.970  0.00  0.00    +0.000 C 
ATOM      3  C   UNL     1      46.463   6.649  11.991  0.00  0.00    +0.000 C 
ATOM      4  C   UNL     1      45.831   5.983  10.774  0.00  0.00    +0.000 C 
ATOM      5  C   UNL     1      44.760   4.957  11.175  0.00  0.00    +0.000 C 
ATOM      6  C   UNL     1      45.358   3.919  12.140  0.00  0.00    +0.000 C 
ATOM      7  C   UNL     1      45.996   4.578  13.359  0.00  0.00    +0.000 C 
BRANCH   5   8
ATOM      8  C   UNL     1      44.185   4.292   9.911  0.00  0.00    +0.000 C 
BRANCH   8   9
ATOM      9  N   UNL     1      44.960   4.663   8.728  0.00  0.00    +0.000 NA
ATOM     10  H   UNL     1      45.784   5.191   9.014  0.00  0.00    +0.000 HD
BRANCH   9  11
ATOM     11  C   UNL     1      45.368   3.527   7.894  0.00  0.00    +0.000 C 
ATOM     12  C   UNL     1      45.591   2.322   8.827  0.00  0.00    +0.000 C 
ATOM     13  C   UNL     1      46.094   1.095   8.070  0.00  0.00    +0.000 C 
ATOM     14  C   UNL     1      47.355   1.406   7.273  0.00  0.00    +0.000 C 
ATOM     15  C   UNL     1      47.134   2.581   6.330  0.00  0.00    +0.000 C 
ATOM     16  C   UNL     1      46.641   3.815   7.078  0.00  0.00    +0.000 C 
ENDBRANCH   9  11
ENDBRANCH   8   9
ENDBRANCH   5   8
ENDBRANCH   1   2
BRANCH   1  19
ATOM     17  O   UNL     1      50.123   6.568  15.409  0.00  0.00    +0.000 OA
ATOM     18  C   UNL     1      49.788   7.374  14.547  0.00  0.00    +0.000 C 
ATOM     19  N   UNL     1      48.550   7.344  13.941  0.00  0.00    +0.000 N 
ATOM     20  H   UNL     1      48.368   7.955  13.157  0.00  0.00    +0.000 HD
BRANCH  18  21
ATOM     21  C   UNL     1      50.660   8.469  14.125  0.00  0.00    +0.000 A 
ATOM     22  C   UNL     1      51.190   9.413  14.990  0.00  0.00    +0.000 A 
ATOM     23  S   UNL     1      52.292  10.477  14.231  0.00  0.00    +0.000 S 
ATOM     24  C   UNL     1      52.091   9.705  12.727  0.00  0.00    +0.000 A 
ATOM     25  N   UNL     1      52.794  10.101  11.632  0.00  0.00    +0.000 NA
ATOM     26  C   UNL     1      52.555   9.404  10.571  0.00  0.00    +0.000 A 
ATOM     27  N   UNL     1      51.662   8.365  10.498  0.00  0.00    +0.000 N 
ATOM     28  C   UNL     1      50.845   8.005  11.549  0.00  0.00    +0.000 A 
ATOM     29  O   UNL     1      49.903   7.242  11.375  0.00  0.00    +0.000 OA
ATOM     30  C   UNL     1      51.160   8.685  12.792  0.00  0.00    +0.000 A 
ATOM     31  H   UNL     1      51.463   7.911   9.619  0.00  0.00    +0.000 HD
ENDBRANCH  18  21
ENDBRANCH   1  19
TORSDOF 6
ENDMDL
MODEL 7
REMARK VINA RESULT:    -7.008      1.764      2.260
REMARK INTER + INTRA:         -10.859
REMARK INTER:                  -9.736
REMARK INTRA:                  -1.122
REMARK UNBOUND:                -1.392
REMARK  Name = 
REMARK  6 active torsions:
REMARK  status: ('A' for Active; 'I' for Inactive)
REMARK    1  A    between atoms: C_2  and  C_19
REMARK    2  A    between atoms: N_3  and  C_4
REMARK    3  A    between atoms: C_4  and  C_5
REMARK    4  A    between atoms: C_8  and  C_9
REMARK    5  A    between atoms: C_9  and  N_10
REMARK    6  A    between atoms: N_10  and  C_11
REMARK                            x       y       z     vdW  Elec       q    Type
REMARK                         _______ _______ _______ _____ _____    ______ ____
ROOT
ATOM      1  C   UNL     1      47.969   9.054  14.141  0.00  0.00    +0.000 C 
ENDROOT
BRANCH   1   2
ATOM      2  C   UNL     1      47.284   8.252  13.024  0.00  0.00    +0.000 C 
ATOM      3  C   UNL     1      45.802   8.638  12.889  0.00  0.00    +0.000 C 
ATOM      4  C   UNL     1      45.078   7.779  11.858  0.00  0.00    +0.000 C 
ATOM      5  C   UNL     1      45.210   6.281  12.167  0.00  0.00    +0.000 C 
ATOM      6  C   UNL     1      46.695   5.894  12.283  0.00  0.00    +0.000 C 
ATOM      7  C   UNL     1      47.427   6.751  13.310  0.00  0.00    +0.000 C 
BRANCH   5   8
ATOM      8  C   UNL     1      44.495   5.465  11.076  0.00  0.00    +0.000 C 
BRANCH   8   9
ATOM      9  N   UNL     1      45.188   5.587   9.795  0.00  0.00    +0.000 NA
ATOM     10  H   UNL     1      46.172   5.795   9.959  0.00  0.00    +0.000 HD
BRANCH   9  11
ATOM     11  C   UNL     1      45.072   4.405   8.931  0.00  0.00    +0.000 C 
ATOM     12  C   UNL     1      44.985   3.170   9.846  0.00  0.00    +0.000 C 
ATOM     13  C   UNL     1      44.936   1.868   9.048  0.00  0.00    +0.000 C 
ATOM     14  C   UNL     1      46.116   1.754   8.090  0.00  0.00    +0.000 C 
ATOM     15  C   UNL     1      46.193   2.962   7.166  0.00  0.00    +0.000 C 
ATOM     16  C   UNL     1      46.252   4.266   7.953  0.00  0.00    +0.000 C 
ENDBRANCH   9  11
ENDBRANCH   8   9
ENDBRANCH   5   8
ENDBRANCH   1   2
BRANCH   1  19
ATOM     17  O   UNL     1      49.392   9.797  16.440  0.00  0.00    +0.000 OA
ATOM     18  C   UNL     1      48.637   8.833  16.504  0.00  0.00    +0.000 C 
ATOM     19  N   UNL     1      47.923   8.373  15.418  0.00  0.00    +0.000 N 
ATOM     20  H   UNL     1      47.228   7.652  15.552  0.00  0.00    +0.000 HD
BRANCH  18  21
ATOM     21  C   UNL     1      48.468   8.057  17.732  0.00  0.00    +0.000 A 
ATOM     22  C   UNL     1      47.955   8.576  18.911  0.00  0.00    +0.000 A 
ATOM     23  S   UNL     1      47.737   7.394  20.127  0.00  0.00    +0.000 S 
ATOM     24  C   UNL     1      48.320   6.158  19.112  0.00  0.00    +0.000 A 
ATOM     25  N   UNL     1      48.360   4.864  19.529  0.00  0.00    +0.000 NA
ATOM     26  C   UNL     1      48.802   4.037  18.640  0.00  0.00    +0.000 A 
ATOM     27  N   UNL     1      49.229   4.388  17.384  0.00  0.00    +0.000 N 
ATOM     28  C   UNL     1      49.315   5.697  16.961  0.00  0.00    +0.000 A 
ATOM     29  O   UNL     1      49.920   5.984  15.935  0.00  0.00    +0.000 OA
ATOM     30  C   UNL     1      48.723   6.648  17.884  0.00  0.00    +0.000 A 
ATOM     31  H   UNL     1      49.637   3.704  16.765  0.00  0.00    +0.000 HD
ENDBRANCH  18  21
ENDBRANCH   1  19
TORSDOF 6
ENDMDL
MODEL 8
REMARK VINA RESULT:    -6.949      1.990      2.681
REMARK INTER + INTRA:         -10.778
REMARK INTER:                  -9.694
REMARK INTRA:                  -1.084
REMARK UNBOUND:                -1.392
REMARK  Name = 
REMARK  6 active torsions:
REMARK  status: ('A' for Active; 'I' for Inactive)
REMARK    1  A    between atoms: C_2  and  C_19
REMARK    2  A    between atoms: N_3  and  C_4
REMARK    3  A    between atoms: C_4  and  C_5
REMARK    4  A    between atoms: C_8  and  C_9
REMARK    5  A    between atoms: C_9  and  N_10
REMARK    6  A    between atoms: N_10  and  C_11
REMARK                            x       y       z     vdW  Elec       q    Type
REMARK                         _______ _______ _______ _____ _____    ______ ____
ROOT
ATOM      1  C   UNL     1      47.788   7.556  13.735  0.00  0.00    +0.000 C 
ENDROOT
BRANCH   1   2
ATOM      2  C   UNL     1      47.205   6.531  12.750  0.00  0.00    +0.000 C 
ATOM      3  C   UNL     1      46.283   7.209  11.723  0.00  0.00    +0.000 C 
ATOM      4  C   UNL     1      45.611   6.197  10.802  0.00  0.00    +0.000 C 
ATOM      5  C   UNL     1      44.835   5.132  11.591  0.00  0.00    +0.000 C 
ATOM      6  C   UNL     1      45.764   4.443  12.605  0.00  0.00    +0.000 C 
ATOM      7  C   UNL     1      46.444   5.450  13.528  0.00  0.00    +0.000 C 
BRANCH   5   8
ATOM      8  C   UNL     1      44.211   4.120  10.613  0.00  0.00    +0.000 C 
BRANCH   8   9
ATOM      9  N   UNL     1      44.334   4.583   9.233  0.00  0.00    +0.000 NA
ATOM     10  H   UNL     1      44.923   5.416   9.206  0.00  0.00    +0.000 HD
BRANCH   9  11
ATOM     11  C   UNL     1      44.861   3.577   8.303  0.00  0.00    +0.000 C 
ATOM     12  C   UNL     1      45.205   2.322   9.126  0.00  0.00    +0.000 C 
ATOM     13  C   UNL     1      45.835   1.228   8.266  0.00  0.00    +0.000 C 
ATOM     14  C   UNL     1      47.060   1.740   7.517  0.00  0.00    +0.000 C 
ATOM     15  C   UNL     1      46.721   2.967   6.683  0.00  0.00    +0.000 C 
ATOM     16  C   UNL     1      46.100   4.069   7.534  0.00  0.00    +0.000 C 
ENDBRANCH   9  11
ENDBRANCH   8   9
ENDBRANCH   5   8
ENDBRANCH   1   2
BRANCH   1  19
ATOM     17  O   UNL     1      48.314   8.855  16.164  0.00  0.00    +0.000 OA
ATOM     18  C   UNL     1      48.524   7.649  16.086  0.00  0.00    +0.000 C 
ATOM     19  N   UNL     1      48.329   6.933  14.925  0.00  0.00    +0.000 N 
ATOM     20  H   UNL     1      48.403   5.926  14.947  0.00  0.00    +0.000 HD
BRANCH  18  21
ATOM     21  C   UNL     1      49.050   6.878  17.211  0.00  0.00    +0.000 A 
ATOM     22  C   UNL     1      48.293   6.496  18.309  0.00  0.00    +0.000 A 
ATOM     23  S   UNL     1      49.139   5.476  19.388  0.00  0.00    +0.000 S 
ATOM     24  C   UNL     1      50.538   5.514  18.418  0.00  0.00    +0.000 A 
ATOM     25  N   UNL     1      51.647   4.801  18.752  0.00  0.00    +0.000 NA
ATOM     26  C   UNL     1      52.618   4.909  17.907  0.00  0.00    +0.000 A 
ATOM     27  N   UNL     1      52.591   5.681  16.773  0.00  0.00    +0.000 N 
ATOM     28  C   UNL     1      51.535   6.510  16.457  0.00  0.00    +0.000 A 
ATOM     29  O   UNL     1      51.646   7.355  15.577  0.00  0.00    +0.000 OA
ATOM     30  C   UNL     1      50.379   6.334  17.317  0.00  0.00    +0.000 A 
ATOM     31  H   UNL     1      53.411   5.784  16.195  0.00  0.00    +0.000 HD
ENDBRANCH  18  21
ENDBRANCH   1  19
TORSDOF 6
ENDMDL
MODEL 9
REMARK VINA RESULT:    -6.601      2.416      3.386
REMARK INTER + INTRA:         -10.308
REMARK INTER:                  -9.381
REMARK INTRA:                  -0.927
REMARK UNBOUND:                -1.392
REMARK  Name = 
REMARK  6 active torsions:
REMARK  status: ('A' for Active; 'I' for Inactive)
REMARK    1  A    between atoms: C_2  and  C_19
REMARK    2  A    between atoms: N_3  and  C_4
REMARK    3  A    between atoms: C_4  and  C_5
REMARK    4  A    between atoms: C_8  and  C_9
REMARK    5  A    between atoms: C_9  and  N_10
REMARK    6  A    between atoms: N_10  and  C_11
REMARK                            x       y       z     vdW  Elec       q    Type
REMARK                         _______ _______ _______ _____ _____    ______ ____
ROOT
ATOM      1  C   UNL     1      47.198   4.306  15.392  0.00  0.00    +0.000 C 
ENDROOT
BRANCH   1   2
ATOM      2  C   UNL     1      46.415   4.895  14.209  0.00  0.00    +0.000 C 
ATOM      3  C   UNL     1      45.648   3.801  13.449  0.00  0.00    +0.000 C 
ATOM      4  C   UNL     1      44.949   4.347  12.209  0.00  0.00    +0.000 C 
ATOM      5  C   UNL     1      45.931   5.059  11.266  0.00  0.00    +0.000 C 
ATOM      6  C   UNL     1      46.684   6.166  12.025  0.00  0.00    +0.000 C 
ATOM      7  C   UNL     1      47.382   5.627  13.269  0.00  0.00    +0.000 C 
BRANCH   5   8
ATOM      8  C   UNL     1      45.165   5.621  10.054  0.00  0.00    +0.000 C 
BRANCH   8   9
ATOM      9  N   UNL     1      44.185   4.655   9.563  0.00  0.00    +0.000 NA
ATOM     10  H   UNL     1      43.375   5.151   9.193  0.00  0.00    +0.000 HD
BRANCH   9  11
ATOM     11  C   UNL     1      44.704   3.732   8.546  0.00  0.00    +0.000 C 
ATOM     12  C   UNL     1      45.038   2.405   9.252  0.00  0.00    +0.000 C 
ATOM     13  C   UNL     1      45.659   1.388   8.296  0.00  0.00    +0.000 C 
ATOM     14  C   UNL     1      46.888   1.956   7.596  0.00  0.00    +0.000 C 
ATOM     15  C   UNL     1      46.559   3.256   6.876  0.00  0.00    +0.000 C 
ATOM     16  C   UNL     1      45.946   4.282   7.824  0.00  0.00    +0.000 C 
ENDBRANCH   9  11
ENDBRANCH   8   9
ENDBRANCH   5   8
ENDBRANCH   1   2
BRANCH   1  19
ATOM     17  O   UNL     1      46.859   4.668  18.152  0.00  0.00    +0.000 OA
ATOM     18  C   UNL     1      47.634   5.407  17.554  0.00  0.00    +0.000 C 
ATOM     19  N   UNL     1      47.839   5.327  16.193  0.00  0.00    +0.000 N 
ATOM     20  H   UNL     1      48.573   5.878  15.770  0.00  0.00    +0.000 HD
BRANCH  18  21
ATOM     21  C   UNL     1      48.371   6.473  18.232  0.00  0.00    +0.000 A 
ATOM     22  C   UNL     1      47.768   7.533  18.891  0.00  0.00    +0.000 A 
ATOM     23  S   UNL     1      48.882   8.535  19.713  0.00  0.00    +0.000 S 
ATOM     24  C   UNL     1      50.199   7.580  19.212  0.00  0.00    +0.000 A 
ATOM     25  N   UNL     1      51.468   7.865  19.611  0.00  0.00    +0.000 NA
ATOM     26  C   UNL     1      52.358   7.037  19.172  0.00  0.00    +0.000 A 
ATOM     27  N   UNL     1      52.098   5.967  18.354  0.00  0.00    +0.000 N 
ATOM     28  C   UNL     1      50.849   5.709  17.832  0.00  0.00    +0.000 A 
ATOM     29  O   UNL     1      50.705   4.897  16.926  0.00  0.00    +0.000 OA
ATOM     30  C   UNL     1      49.800   6.544  18.389  0.00  0.00    +0.000 A 
ATOM     31  H   UNL     1      52.849   5.404  17.983  0.00  0.00    +0.000 HD
ENDBRANCH  18  21
ENDBRANCH   1  19
TORSDOF 6
ENDMDL
