MODEL 1
REMARK VINA RESULT:    -7.544      0.000      0.000
REMARK INTER + INTRA:         -11.309
REMARK INTER:                 -10.190
REMARK INTRA:                  -1.119
REMARK UNBOUND:                -1.119
REMARK  Name = 
REMARK  7 active torsions:
REMARK  status: ('A' for Active; 'I' for Inactive)
REMARK    1  A    between atoms: N_1  and  C_2
REMARK    2  A    between atoms: C_2  and  C_3
REMARK    3  A    between atoms: C_7  and  C_8
REMARK    4  A    between atoms: C_8  and  C_20
REMARK    5  A    between atoms: C_9  and  C_10
REMARK    6  A    between atoms: C_13  and  C_14
REMARK    7  A    between atoms: C_18  and  N_19
REMARK                            x       y       z     vdW  Elec       q    Type
REMARK                         _______ _______ _______ _____ _____    ______ ____
ROOT
ATOM      1  C   UNL     1      43.841   5.144  11.110  0.00  0.00    +0.000 C 
ATOM      2  C   UNL     1      43.635   4.645   9.874  0.00  0.00    +0.000 C 
ENDROOT
BRANCH   1   7
ATOM      3  C   UNL     1      47.296   5.886  12.456  0.00  0.00    +0.000 A 
ATOM      4  C   UNL     1      47.558   4.704  13.163  0.00  0.00    +0.000 A 
ATOM      5  C   UNL     1      46.616   3.675  13.196  0.00  0.00    +0.000 A 
ATOM      6  C   UNL     1      45.401   3.815  12.523  0.00  0.00    +0.000 A 
ATOM      7  C   UNL     1      45.114   4.995  11.828  0.00  0.00    +0.000 A 
ATOM      8  C   UNL     1      46.057   6.031  11.811  0.00  0.00    +0.000 A 
BRANCH   3   9
ATOM      9  C   UNL     1      48.325   6.984  12.382  0.00  0.00    +0.000 C 
BRANCH   9  10
ATOM     10  N   UNL     1      49.462   6.719  13.251  0.00  0.00    +0.000 NA
ATOM     11  H   UNL     1      49.729   7.584  13.719  0.00  0.00    +0.000 HD
ATOM     12  H   UNL     1      50.260   6.444  12.682  0.00  0.00    +0.000 HD
ENDBRANCH   9  10
ENDBRANCH   3   9
ENDBRANCH   1   7
BRANCH   2  13
ATOM     13  C   UNL     1      44.538   3.851   9.038  0.00  0.00    +0.000 A 
ATOM     14  N   UNL     1      45.306   4.596   8.199  0.00  0.00    +0.000 NA
ATOM     15  C   UNL     1      46.303   3.927   7.573  0.00  0.00    +0.000 A 
ATOM     16  C   UNL     1      46.536   2.577   7.790  0.00  0.00    +0.000 A 
ATOM     17  N   UNL     1      45.758   1.810   8.614  0.00  0.00    +0.000 NA
ATOM     18  C   UNL     1      44.758   2.470   9.240  0.00  0.00    +0.000 A 
BRANCH  16  19
ATOM     19  C   UNL     1      47.728   1.931   7.174  0.00  0.00    +0.000 C 
ATOM     20  N   UNL     1      48.568   2.762   6.483  0.00  0.00    +0.000 N 
ATOM     21  O   UNL     1      47.934   0.726   7.253  0.00  0.00    +0.000 OA
ATOM     22  H   UNL     1      48.358   3.750   6.407  0.00  0.00    +0.000 HD
ATOM     23  H   UNL     1      49.367   2.372   6.003  0.00  0.00    +0.000 HD
ENDBRANCH  16  19
BRANCH  18  24
ATOM     24  N   UNL     1      43.974   1.691  10.094  0.00  0.00    +0.000 N 
ATOM     25  H   UNL     1      44.451   1.613  10.987  0.00  0.00    +0.000 HD
ATOM     26  H   UNL     1      43.030   2.043  10.187  0.00  0.00    +0.000 HD
ENDBRANCH  18  24
ENDBRANCH   2  13
BRANCH   1  27
ATOM     27  C   UNL     1      42.735   5.865  11.825  0.00  0.00    +0.000 C 
ATOM     28  F   UNL     1      42.872   5.917  13.173  0.00  0.00    +0.000 F 
ATOM     29  F   UNL     1      42.635   7.152  11.391  0.00  0.00    +0.000 F 
ATOM     30  F   UNL     1      41.528   5.287  11.578  0.00  0.00    +0.000 F 
ENDBRANCH   1  27
TORSDOF 7
ENDMDL
MODEL 2
REMARK VINA RESULT:    -6.721      1.153      1.924
REMARK INTER + INTRA:         -10.197
REMARK INTER:                  -9.108
REMARK INTRA:                  -1.089
REMARK UNBOUND:                -1.119
REMARK  Name = 
REMARK  7 active torsions:
REMARK  status: ('A' for Active; 'I' for Inactive)
REMARK    1  A    between atoms: N_1  and  C_2
REMARK    2  A    between atoms: C_2  and  C_3
REMARK    3  A    between atoms: C_7  and  C_8
REMARK    4  A    between atoms: C_8  and  C_20
REMARK    5  A    between atoms: C_9  and  C_10
REMARK    6  A    between atoms: C_13  and  C_14
REMARK    7  A    between atoms: C_18  and  N_19
REMARK                            x       y       z     vdW  Elec       q    Type
REMARK                         _______ _______ _______ _____ _____    ______ ____
ROOT
ATOM      1  C   UNL     1      43.866   5.075  11.250  0.00  0.00    +0.000 C 
ATOM      2  C   UNL     1      43.791   4.372  10.101  0.00  0.00    +0.000 C 
ENDROOT
BRANCH   1   7
ATOM      3  C   UNL     1      47.085   6.313  12.801  0.00  0.00    +0.000 A 
ATOM      4  C   UNL     1      47.417   5.221  13.616  0.00  0.00    +0.000 A 
ATOM      5  C   UNL     1      46.597   4.092  13.655  0.00  0.00    +0.000 A 
ATOM      6  C   UNL     1      45.438   4.040  12.879  0.00  0.00    +0.000 A 
ATOM      7  C   UNL     1      45.081   5.127  12.075  0.00  0.00    +0.000 A 
ATOM      8  C   UNL     1      45.899   6.265  12.052  0.00  0.00    +0.000 A 
BRANCH   3   9
ATOM      9  C   UNL     1      47.986   7.518  12.724  0.00  0.00    +0.000 C 
BRANCH   9  10
ATOM     10  N   UNL     1      47.318   8.655  12.110  0.00  0.00    +0.000 NA
ATOM     11  H   UNL     1      47.973   9.434  12.056  0.00  0.00    +0.000 HD
ATOM     12  H   UNL     1      46.558   8.961  12.715  0.00  0.00    +0.000 HD
ENDBRANCH   9  10
ENDBRANCH   3   9
ENDBRANCH   1   7
BRANCH   2  13
ATOM     13  C   UNL     1      44.803   3.517   9.476  0.00  0.00    +0.000 A 
ATOM     14  N   UNL     1      44.547   2.187   9.594  0.00  0.00    +0.000 NA
ATOM     15  C   UNL     1      45.331   1.374   8.846  0.00  0.00    +0.000 A 
ATOM     16  C   UNL     1      46.315   1.868   8.003  0.00  0.00    +0.000 A 
ATOM     17  N   UNL     1      46.599   3.202   7.891  0.00  0.00    +0.000 NA
ATOM     18  C   UNL     1      45.822   4.020   8.637  0.00  0.00    +0.000 A 
BRANCH  16  19
ATOM     19  C   UNL     1      47.052   0.932   7.109  0.00  0.00    +0.000 C 
ATOM     20  N   UNL     1      46.810  -0.400   7.310  0.00  0.00    +0.000 N 
ATOM     21  O   UNL     1      47.849   1.323   6.266  0.00  0.00    +0.000 OA
ATOM     22  H   UNL     1      46.169  -0.698   8.036  0.00  0.00    +0.000 HD
ATOM     23  H   UNL     1      47.319  -1.084   6.767  0.00  0.00    +0.000 HD
ENDBRANCH  16  19
BRANCH  18  24
ATOM     24  N   UNL     1      46.101   5.383   8.511  0.00  0.00    +0.000 N 
ATOM     25  H   UNL     1      45.275   5.848   8.146  0.00  0.00    +0.000 HD
ATOM     26  H   UNL     1      46.430   5.796   9.373  0.00  0.00    +0.000 HD
ENDBRANCH  18  24
ENDBRANCH   2  13
BRANCH   1  27
ATOM     27  C   UNL     1      42.668   5.827  11.752  0.00  0.00    +0.000 C 
ATOM     28  F   UNL     1      42.556   7.093  11.282  0.00  0.00    +0.000 F 
ATOM     29  F   UNL     1      41.516   5.182  11.420  0.00  0.00    +0.000 F 
ATOM     30  F   UNL     1      42.673   5.916  13.110  0.00  0.00    +0.000 F 
ENDBRANCH   1  27
TORSDOF 7
ENDMDL
MODEL 3
REMARK VINA RESULT:    -6.089      2.758      5.651
REMARK INTER + INTRA:          -9.344
REMARK INTER:                  -9.080
REMARK INTRA:                  -0.264
REMARK UNBOUND:                -1.119
REMARK  Name = 
REMARK  7 active torsions:
REMARK  status: ('A' for Active; 'I' for Inactive)
REMARK    1  A    between atoms: N_1  and  C_2
REMARK    2  A    between atoms: C_2  and  C_3
REMARK    3  A    between atoms: C_7  and  C_8
REMARK    4  A    between atoms: C_8  and  C_20
REMARK    5  A    between atoms: C_9  and  C_10
REMARK    6  A    between atoms: C_13  and  C_14
REMARK    7  A    between atoms: C_18  and  N_19
REMARK                            x       y       z     vdW  Elec       q    Type
REMARK                         _______ _______ _______ _____ _____    ______ ____
ROOT
ATOM      1  C   UNL     1      44.290   5.229  11.740  0.00  0.00    +0.000 C 
ATOM      2  C   UNL     1      45.027   5.895  12.653  0.00  0.00    +0.000 C 
ENDROOT
BRANCH   1   7
ATOM      3  C   UNL     1      45.302   2.787   9.037  0.00  0.00    +0.000 A 
ATOM      4  C   UNL     1      45.968   3.644   8.150  0.00  0.00    +0.000 A 
ATOM      5  C   UNL     1      46.087   5.005   8.435  0.00  0.00    +0.000 A 
ATOM      6  C   UNL     1      45.542   5.525   9.610  0.00  0.00    +0.000 A 
ATOM      7  C   UNL     1      44.858   4.689  10.498  0.00  0.00    +0.000 A 
ATOM      8  C   UNL     1      44.728   3.326  10.199  0.00  0.00    +0.000 A 
BRANCH   3   9
ATOM      9  C   UNL     1      45.206   1.310   8.755  0.00  0.00    +0.000 C 
BRANCH   9  10
ATOM     10  N   UNL     1      46.379   0.817   8.050  0.00  0.00    +0.000 NA
ATOM     11  H   UNL     1      46.134   0.654   7.074  0.00  0.00    +0.000 HD
ATOM     12  H   UNL     1      46.641  -0.090   8.433  0.00  0.00    +0.000 HD
ENDBRANCH   9  10
ENDBRANCH   3   9
ENDBRANCH   1   7
BRANCH   2  13
ATOM     13  C   UNL     1      46.446   6.257  12.606  0.00  0.00    +0.000 A 
ATOM     14  N   UNL     1      46.689   7.445  11.989  0.00  0.00    +0.000 NA
ATOM     15  C   UNL     1      47.950   7.920  12.118  0.00  0.00    +0.000 A 
ATOM     16  C   UNL     1      48.921   7.250  12.847  0.00  0.00    +0.000 A 
ATOM     17  N   UNL     1      48.698   6.045  13.454  0.00  0.00    +0.000 NA
ATOM     18  C   UNL     1      47.441   5.561  13.328  0.00  0.00    +0.000 A 
BRANCH  16  19
ATOM     19  C   UNL     1      50.249   7.891  13.061  0.00  0.00    +0.000 C 
ATOM     20  N   UNL     1      51.100   7.873  11.990  0.00  0.00    +0.000 N 
ATOM     21  O   UNL     1      50.575   8.378  14.136  0.00  0.00    +0.000 OA
ATOM     22  H   UNL     1      50.818   7.436  11.121  0.00  0.00    +0.000 HD
ATOM     23  H   UNL     1      52.033   8.248  12.091  0.00  0.00    +0.000 HD
ENDBRANCH  16  19
BRANCH  18  24
ATOM     24  N   UNL     1      47.208   4.338  13.961  0.00  0.00    +0.000 N 
ATOM     25  H   UNL     1      47.601   3.598  13.387  0.00  0.00    +0.000 HD
ATOM     26  H   UNL     1      47.553   4.318  14.911  0.00  0.00    +0.000 HD
ENDBRANCH  18  24
ENDBRANCH   2  13
BRANCH   1  27
ATOM     27  C   UNL     1      42.817   5.037  11.958  0.00  0.00    +0.000 C 
ATOM     28  F   UNL     1      42.316   3.884  11.451  0.00  0.00    +0.000 F 
ATOM     29  F   UNL     1      42.517   5.046  13.286  0.00  0.00    +0.000 F 
ATOM     30  F   UNL     1      42.099   6.051  11.401  0.00  0.00    +0.000 F 
ENDBRANCH   1  27
TORSDOF 7
ENDMDL
MODEL 4
REMARK VINA RESULT:    -5.862      4.381      7.693
REMARK INTER + INTRA:          -9.037
REMARK INTER:                  -8.507
REMARK INTRA:                  -0.530
REMARK UNBOUND:                -1.119
REMARK  Name = 
REMARK  7 active torsions:
REMARK  status: ('A' for Active; 'I' for Inactive)
REMARK    1  A    between atoms: N_1  and  C_2
REMARK    2  A    between atoms: C_2  and  C_3
REMARK    3  A    between atoms: C_7  and  C_8
REMARK    4  A    between atoms: C_8  and  C_20
REMARK    5  A    between atoms: C_9  and  C_10
REMARK    6  A    between atoms: C_13  and  C_14
REMARK    7  A    between atoms: C_18  and  N_19
REMARK                            x       y       z     vdW  Elec       q    Type
REMARK                         _______ _______ _______ _____ _____    ______ ____
ROOT
ATOM      1  C   UNL     1      48.830   7.783  12.748  0.00  0.00    +0.000 C 
ATOM      2  C   UNL     1      49.333   7.298  13.901  0.00  0.00    +0.000 C 
ENDROOT
BRANCH   1   7
ATOM      3  C   UNL     1      45.690   6.386  11.171  0.00  0.00    +0.000 A 
ATOM      4  C   UNL     1      44.745   7.331  11.594  0.00  0.00    +0.000 A 
ATOM      5  C   UNL     1      45.132   8.415  12.384  0.00  0.00    +0.000 A 
ATOM      6  C   UNL     1      46.467   8.566  12.760  0.00  0.00    +0.000 A 
ATOM      7  C   UNL     1      47.421   7.623  12.363  0.00  0.00    +0.000 A 
ATOM      8  C   UNL     1      47.025   6.529  11.583  0.00  0.00    +0.000 A 
BRANCH   3   9
ATOM      9  C   UNL     1      45.286   5.237  10.284  0.00  0.00    +0.000 C 
BRANCH   9  10
ATOM     10  N   UNL     1      45.725   5.432   8.911  0.00  0.00    +0.000 NA
ATOM     11  H   UNL     1      45.827   4.523   8.464  0.00  0.00    +0.000 HD
ATOM     12  H   UNL     1      46.651   5.856   8.915  0.00  0.00    +0.000 HD
ENDBRANCH   9  10
ENDBRANCH   3   9
ENDBRANCH   1   7
BRANCH   2  13
ATOM     13  C   UNL     1      48.664   6.512  14.941  0.00  0.00    +0.000 A 
ATOM     14  N   UNL     1      47.966   5.449  14.461  0.00  0.00    +0.000 NA
ATOM     15  C   UNL     1      47.521   4.576  15.396  0.00  0.00    +0.000 A 
ATOM     16  C   UNL     1      47.777   4.746  16.748  0.00  0.00    +0.000 A 
ATOM     17  N   UNL     1      48.459   5.822  17.247  0.00  0.00    +0.000 NA
ATOM     18  C   UNL     1      48.905   6.701  16.321  0.00  0.00    +0.000 A 
BRANCH  16  19
ATOM     19  C   UNL     1      47.375   3.683  17.710  0.00  0.00    +0.000 C 
ATOM     20  N   UNL     1      48.064   3.656  18.892  0.00  0.00    +0.000 N 
ATOM     21  O   UNL     1      46.504   2.862  17.453  0.00  0.00    +0.000 OA
ATOM     22  H   UNL     1      48.802   4.327  19.069  0.00  0.00    +0.000 HD
ATOM     23  H   UNL     1      47.869   2.926  19.564  0.00  0.00    +0.000 HD
ENDBRANCH  16  19
BRANCH  18  24
ATOM     24  N   UNL     1      49.614   7.792  16.828  0.00  0.00    +0.000 N 
ATOM     25  H   UNL     1      49.106   8.641  16.599  0.00  0.00    +0.000 HD
ATOM     26  H   UNL     1      49.806   7.708  17.817  0.00  0.00    +0.000 HD
ENDBRANCH  18  24
ENDBRANCH   2  13
BRANCH   1  27
ATOM     27  C   UNL     1      49.725   8.499  11.778  0.00  0.00    +0.000 C 
ATOM     28  F   UNL     1      50.765   9.156  12.347  0.00  0.00    +0.000 F 
ATOM     29  F   UNL     1      50.256   7.631  10.874  0.00  0.00    +0.000 F 
ATOM     30  F   UNL     1      49.033   9.422  11.055  0.00  0.00    +0.000 F 
ENDBRANCH   1  27
TORSDOF 7
ENDMDL
MODEL 5
REMARK VINA RESULT:    -5.537      5.369      7.388
REMARK INTER + INTRA:          -8.599
REMARK INTER:                  -7.702
REMARK INTRA:                  -0.897
REMARK UNBOUND:                -1.119
REMARK  Name = 
REMARK  7 active torsions:
REMARK  status: ('A' for Active; 'I' for Inactive)
REMARK    1  A    between atoms: N_1  and  C_2
REMARK    2  A    between atoms: C_2  and  C_3
REMARK    3  A    between atoms: C_7  and  C_8
REMARK    4  A    between atoms: C_8  and  C_20
REMARK    5  A    between atoms: C_9  and  C_10
REMARK    6  A    between atoms: C_13  and  C_14
REMARK    7  A    between atoms: C_18  and  N_19
REMARK                            x       y       z     vdW  Elec       q    Type
REMARK                         _______ _______ _______ _____ _____    ______ ____
ROOT
ATOM      1  C   UNL     1      49.773   7.199  15.114  0.00  0.00    +0.000 C 
ATOM      2  C   UNL     1      49.245   7.146  13.874  0.00  0.00    +0.000 C 
ENDROOT
BRANCH   1   7
ATOM      3  C   UNL     1      48.206   4.822  17.602  0.00  0.00    +0.000 A 
ATOM      4  C   UNL     1      47.702   5.730  18.545  0.00  0.00    +0.000 A 
ATOM      5  C   UNL     1      47.871   7.103  18.366  0.00  0.00    +0.000 A 
ATOM      6  C   UNL     1      48.545   7.586  17.244  0.00  0.00    +0.000 A 
ATOM      7  C   UNL     1      49.071   6.696  16.302  0.00  0.00    +0.000 A 
ATOM      8  C   UNL     1      48.912   5.317  16.494  0.00  0.00    +0.000 A 
BRANCH   3   9
ATOM      9  C   UNL     1      47.991   3.341  17.768  0.00  0.00    +0.000 C 
BRANCH   9  10
ATOM     10  N   UNL     1      46.587   2.980  17.645  0.00  0.00    +0.000 NA
ATOM     11  H   UNL     1      46.059   3.452  18.377  0.00  0.00    +0.000 HD
ATOM     12  H   UNL     1      46.483   1.981  17.815  0.00  0.00    +0.000 HD
ENDBRANCH   9  10
ENDBRANCH   3   9
ENDBRANCH   1   7
BRANCH   2  13
ATOM     13  C   UNL     1      47.928   6.661  13.452  0.00  0.00    +0.000 A 
ATOM     14  N   UNL     1      47.846   5.307  13.357  0.00  0.00    +0.000 NA
ATOM     15  C   UNL     1      46.598   4.810  13.189  0.00  0.00    +0.000 A 
ATOM     16  C   UNL     1      45.478   5.627  13.137  0.00  0.00    +0.000 A 
ATOM     17  N   UNL     1      45.548   6.991  13.209  0.00  0.00    +0.000 NA
ATOM     18  C   UNL     1      46.791   7.496  13.375  0.00  0.00    +0.000 A 
BRANCH  16  19
ATOM     19  C   UNL     1      44.123   5.011  13.084  0.00  0.00    +0.000 C 
ATOM     20  N   UNL     1      43.085   5.871  12.852  0.00  0.00    +0.000 N 
ATOM     21  O   UNL     1      43.941   3.814  13.265  0.00  0.00    +0.000 OA
ATOM     22  H   UNL     1      43.259   6.862  12.736  0.00  0.00    +0.000 HD
ATOM     23  H   UNL     1      42.138   5.518  12.855  0.00  0.00    +0.000 HD
ENDBRANCH  16  19
BRANCH  18  24
ATOM     24  N   UNL     1      46.861   8.888  13.465  0.00  0.00    +0.000 N 
ATOM     25  H   UNL     1      46.438   9.286  12.632  0.00  0.00    +0.000 HD
ATOM     26  H   UNL     1      46.452   9.245  14.318  0.00  0.00    +0.000 HD
ENDBRANCH  18  24
ENDBRANCH   2  13
BRANCH   1  27
ATOM     27  C   UNL     1      51.124   7.818  15.330  0.00  0.00    +0.000 C 
ATOM     28  F   UNL     1      51.947   7.110  16.142  0.00  0.00    +0.000 F 
ATOM     29  F   UNL     1      51.780   7.978  14.148  0.00  0.00    +0.000 F 
ATOM     30  F   UNL     1      51.017   9.061  15.874  0.00  0.00    +0.000 F 
ENDBRANCH   1  27
TORSDOF 7
ENDMDL
MODEL 6
REMARK VINA RESULT:    -5.342      5.058      8.480
REMARK INTER + INTRA:          -8.334
REMARK INTER:                  -7.208
REMARK INTRA:                  -1.126
REMARK UNBOUND:                -1.119
REMARK  Name = 
REMARK  7 active torsions:
REMARK  status: ('A' for Active; 'I' for Inactive)
REMARK    1  A    between atoms: N_1  and  C_2
REMARK    2  A    between atoms: C_2  and  C_3
REMARK    3  A    between atoms: C_7  and  C_8
REMARK    4  A    between atoms: C_8  and  C_20
REMARK    5  A    between atoms: C_9  and  C_10
REMARK    6  A    between atoms: C_13  and  C_14
REMARK    7  A    between atoms: C_18  and  N_19
REMARK                            x       y       z     vdW  Elec       q    Type
REMARK                         _______ _______ _______ _____ _____    ______ ____
ROOT
ATOM      1  C   UNL     1      48.727   7.410  13.099  0.00  0.00    +0.000 C 
ATOM      2  C   UNL     1      49.390   7.569  14.263  0.00  0.00    +0.000 C 
ENDROOT
BRANCH   1   7
ATOM      3  C   UNL     1      46.030   4.766  12.913  0.00  0.00    +0.000 A 
ATOM      4  C   UNL     1      44.885   5.570  12.819  0.00  0.00    +0.000 A 
ATOM      5  C   UNL     1      44.995   6.961  12.816  0.00  0.00    +0.000 A 
ATOM      6  C   UNL     1      46.250   7.565  12.904  0.00  0.00    +0.000 A 
ATOM      7  C   UNL     1      47.403   6.780  13.016  0.00  0.00    +0.000 A 
ATOM      8  C   UNL     1      47.285   5.384  13.035  0.00  0.00    +0.000 A 
BRANCH   3   9
ATOM      9  C   UNL     1      45.922   3.264  12.876  0.00  0.00    +0.000 C 
BRANCH   9  10
ATOM     10  N   UNL     1      44.575   2.827  12.540  0.00  0.00    +0.000 NA
ATOM     11  H   UNL     1      43.921   3.222  13.213  0.00  0.00    +0.000 HD
ATOM     12  H   UNL     1      44.518   1.815  12.645  0.00  0.00    +0.000 HD
ENDBRANCH   9  10
ENDBRANCH   3   9
ENDBRANCH   1   7
BRANCH   2  13
ATOM     13  C   UNL     1      49.007   7.137  15.609  0.00  0.00    +0.000 A 
ATOM     14  N   UNL     1      49.517   5.927  15.964  0.00  0.00    +0.000 NA
ATOM     15  C   UNL     1      49.372   5.595  17.269  0.00  0.00    +0.000 A 
ATOM     16  C   UNL     1      48.762   6.440  18.183  0.00  0.00    +0.000 A 
ATOM     17  N   UNL     1      48.225   7.650  17.836  0.00  0.00    +0.000 NA
ATOM     18  C   UNL     1      48.362   7.989  16.534  0.00  0.00    +0.000 A 
BRANCH  16  19
ATOM     19  C   UNL     1      48.753   6.074  19.627  0.00  0.00    +0.000 C 
ATOM     20  N   UNL     1      47.779   5.193  20.014  0.00  0.00    +0.000 N 
ATOM     21  O   UNL     1      49.545   6.551  20.429  0.00  0.00    +0.000 OA
ATOM     22  H   UNL     1      47.115   4.837  19.336  0.00  0.00    +0.000 HD
ATOM     23  H   UNL     1      47.692   4.946  20.990  0.00  0.00    +0.000 HD
ENDBRANCH  16  19
BRANCH  18  24
ATOM     24  N   UNL     1      47.829   9.230  16.183  0.00  0.00    +0.000 N 
ATOM     25  H   UNL     1      48.587   9.904  16.133  0.00  0.00    +0.000 HD
ATOM     26  H   UNL     1      47.284   9.194  15.331  0.00  0.00    +0.000 HD
ENDBRANCH  18  24
ENDBRANCH   2  13
BRANCH   1  27
ATOM     27  C   UNL     1      49.350   7.862  11.810  0.00  0.00    +0.000 C 
ATOM     28  F   UNL     1      48.768   7.359  10.694  0.00  0.00    +0.000 F 
ATOM     29  F   UNL     1      49.307   9.218  11.699  0.00  0.00    +0.000 F 
ATOM     30  F   UNL     1      50.666   7.520  11.751  0.00  0.00    +0.000 F 
ENDBRANCH   1  27
TORSDOF 7
ENDMDL
MODEL 7
REMARK VINA RESULT:    -5.155      4.145      5.817
REMARK INTER + INTRA:          -8.083
REMARK INTER:                  -7.609
REMARK INTRA:                  -0.473
REMARK UNBOUND:                -1.119
REMARK  Name = 
REMARK  7 active torsions:
REMARK  status: ('A' for Active; 'I' for Inactive)
REMARK    1  A    between atoms: N_1  and  C_2
REMARK    2  A    between atoms: C_2  and  C_3
REMARK    3  A    between atoms: C_7  and  C_8
REMARK    4  A    between atoms: C_8  and  C_20
REMARK    5  A    between atoms: C_9  and  C_10
REMARK    6  A    between atoms: C_13  and  C_14
REMARK    7  A    between atoms: C_18  and  N_19
REMARK                            x       y       z     vdW  Elec       q    Type
REMARK                         _______ _______ _______ _____ _____    ______ ____
ROOT
ATOM      1  C   UNL     1      48.150   6.486  14.866  0.00  0.00    +0.000 C 
ATOM      2  C   UNL     1      47.239   5.493  14.818  0.00  0.00    +0.000 C 
ENDROOT
BRANCH   1   7
ATOM      3  C   UNL     1      48.270   9.452  12.523  0.00  0.00    +0.000 A 
ATOM      4  C   UNL     1      49.052   8.929  11.483  0.00  0.00    +0.000 A 
ATOM      5  C   UNL     1      49.532   7.620  11.548  0.00  0.00    +0.000 A 
ATOM      6  C   UNL     1      49.235   6.819  12.650  0.00  0.00    +0.000 A 
ATOM      7  C   UNL     1      48.472   7.329  13.706  0.00  0.00    +0.000 A 
ATOM      8  C   UNL     1      48.006   8.649  13.644  0.00  0.00    +0.000 A 
BRANCH   3   9
ATOM      9  C   UNL     1      47.716  10.850  12.442  0.00  0.00    +0.000 C 
BRANCH   9  10
ATOM     10  N   UNL     1      46.272  10.850  12.258  0.00  0.00    +0.000 NA
ATOM     11  H   UNL     1      45.897  11.740  12.586  0.00  0.00    +0.000 HD
ATOM     12  H   UNL     1      45.862  10.131  12.851  0.00  0.00    +0.000 HD
ENDBRANCH   9  10
ENDBRANCH   3   9
ENDBRANCH   1   7
BRANCH   2  13
ATOM     13  C   UNL     1      46.453   5.016  13.677  0.00  0.00    +0.000 A 
ATOM     14  N   UNL     1      46.646   3.702  13.387  0.00  0.00    +0.000 NA
ATOM     15  C   UNL     1      45.782   3.171  12.490  0.00  0.00    +0.000 A 
ATOM     16  C   UNL     1      44.759   3.913  11.921  0.00  0.00    +0.000 A 
ATOM     17  N   UNL     1      44.565   5.241  12.186  0.00  0.00    +0.000 NA
ATOM     18  C   UNL     1      45.426   5.781  13.079  0.00  0.00    +0.000 A 
BRANCH  16  19
ATOM     19  C   UNL     1      43.763   3.236  11.045  0.00  0.00    +0.000 C 
ATOM     20  N   UNL     1      43.784   3.599   9.725  0.00  0.00    +0.000 N 
ATOM     21  O   UNL     1      42.952   2.426  11.477  0.00  0.00    +0.000 OA
ATOM     22  H   UNL     1      44.444   4.295   9.398  0.00  0.00    +0.000 HD
ATOM     23  H   UNL     1      43.099   3.211   9.092  0.00  0.00    +0.000 HD
ENDBRANCH  16  19
BRANCH  18  24
ATOM     24  N   UNL     1      45.219   7.133  13.363  0.00  0.00    +0.000 N 
ATOM     25  H   UNL     1      44.259   7.368  13.128  0.00  0.00    +0.000 HD
ATOM     26  H   UNL     1      45.456   7.373  14.316  0.00  0.00    +0.000 HD
ENDBRANCH  18  24
ENDBRANCH   2  13
BRANCH   1  27
ATOM     27  C   UNL     1      48.905   6.754  16.135  0.00  0.00    +0.000 C 
ATOM     28  F   UNL     1      50.249   6.852  15.984  0.00  0.00    +0.000 F 
ATOM     29  F   UNL     1      48.490   7.914  16.713  0.00  0.00    +0.000 F 
ATOM     30  F   UNL     1      48.689   5.774  17.055  0.00  0.00    +0.000 F 
ENDBRANCH   1  27
TORSDOF 7
ENDMDL
MODEL 8
REMARK VINA RESULT:    -5.114      5.255      6.975
REMARK INTER + INTRA:          -8.027
REMARK INTER:                  -6.990
REMARK INTRA:                  -1.037
REMARK UNBOUND:                -1.119
REMARK  Name = 
REMARK  7 active torsions:
REMARK  status: ('A' for Active; 'I' for Inactive)
REMARK    1  A    between atoms: N_1  and  C_2
REMARK    2  A    between atoms: C_2  and  C_3
REMARK    3  A    between atoms: C_7  and  C_8
REMARK    4  A    between atoms: C_8  and  C_20
REMARK    5  A    between atoms: C_9  and  C_10
REMARK    6  A    between atoms: C_13  and  C_14
REMARK    7  A    between atoms: C_18  and  N_19
REMARK                            x       y       z     vdW  Elec       q    Type
REMARK                         _______ _______ _______ _____ _____    ______ ____
ROOT
ATOM      1  C   UNL     1      49.214   7.695  13.933  0.00  0.00    +0.000 C 
ATOM      2  C   UNL     1      48.398   7.188  12.986  0.00  0.00    +0.000 C 
ENDROOT
BRANCH   1   7
ATOM      3  C   UNL     1      48.296   6.914  17.516  0.00  0.00    +0.000 A 
ATOM      4  C   UNL     1      47.977   8.195  17.988  0.00  0.00    +0.000 A 
ATOM      5  C   UNL     1      48.061   9.302  17.141  0.00  0.00    +0.000 A 
ATOM      6  C   UNL     1      48.461   9.140  15.814  0.00  0.00    +0.000 A 
ATOM      7  C   UNL     1      48.801   7.872  15.331  0.00  0.00    +0.000 A 
ATOM      8  C   UNL     1      48.731   6.766  16.190  0.00  0.00    +0.000 A 
BRANCH   3   9
ATOM      9  C   UNL     1      48.169   5.710  18.414  0.00  0.00    +0.000 C 
BRANCH   9  10
ATOM     10  N   UNL     1      46.787   5.272  18.540  0.00  0.00    +0.000 NA
ATOM     11  H   UNL     1      46.199   5.859  17.950  0.00  0.00    +0.000 HD
ATOM     12  H   UNL     1      46.476   5.425  19.498  0.00  0.00    +0.000 HD
ENDBRANCH   9  10
ENDBRANCH   3   9
ENDBRANCH   1   7
BRANCH   2  13
ATOM     13  C   UNL     1      46.996   6.776  13.101  0.00  0.00    +0.000 A 
ATOM     14  N   UNL     1      46.111   7.713  12.667  0.00  0.00    +0.000 NA
ATOM     15  C   UNL     1      44.830   7.291  12.549  0.00  0.00    +0.000 A 
ATOM     16  C   UNL     1      44.452   5.988  12.834  0.00  0.00    +0.000 A 
ATOM     17  N   UNL     1      45.326   5.042  13.293  0.00  0.00    +0.000 NA
ATOM     18  C   UNL     1      46.608   5.455  13.416  0.00  0.00    +0.000 A 
BRANCH  16  19
ATOM     19  C   UNL     1      43.054   5.554  12.558  0.00  0.00    +0.000 C 
ATOM     20  N   UNL     1      42.364   6.305  11.645  0.00  0.00    +0.000 N 
ATOM     21  O   UNL     1      42.538   4.602  13.130  0.00  0.00    +0.000 OA
ATOM     22  H   UNL     1      42.804   7.107  11.208  0.00  0.00    +0.000 HD
ATOM     23  H   UNL     1      41.396   6.088  11.454  0.00  0.00    +0.000 HD
ENDBRANCH  16  19
BRANCH  18  24
ATOM     24  N   UNL     1      47.505   4.485  13.869  0.00  0.00    +0.000 N 
ATOM     25  H   UNL     1      48.348   4.537  13.305  0.00  0.00    +0.000 HD
ATOM     26  H   UNL     1      47.696   4.562  14.860  0.00  0.00    +0.000 HD
ENDBRANCH  18  24
ENDBRANCH   2  13
BRANCH   1  27
ATOM     27  C   UNL     1      50.605   8.131  13.572  0.00  0.00    +0.000 C 
ATOM     28  F   UNL     1      51.033   7.708  12.358  0.00  0.00    +0.000 F 
ATOM     29  F   UNL     1      50.703   9.489  13.572  0.00  0.00    +0.000 F 
ATOM     30  F   UNL     1      51.515   7.687  14.482  0.00  0.00    +0.000 F 
ENDBRANCH   1  27
TORSDOF 7
ENDMDL
MODEL 9
REMARK VINA RESULT:    -4.845      4.845      7.115
REMARK INTER + INTRA:          -7.664
REMARK INTER:                  -7.848
REMARK INTRA:                   0.184
REMARK UNBOUND:                -1.119
REMARK  Name = 
REMARK  7 active torsions:
REMARK  status: ('A' for Active; 'I' for Inactive)
REMARK    1  A    between atoms: N_1  and  C_2
REMARK    2  A    between atoms: C_2  and  C_3
REMARK    3  A    between atoms: C_7  and  C_8
REMARK    4  A    between atoms: C_8  and  C_20
REMARK    5  A    between atoms: C_9  and  C_10
REMARK    6  A    between atoms: C_13  and  C_14
REMARK    7  A    between atoms: C_18  and  N_19
REMARK                            x       y       z     vdW  Elec       q    Type
REMARK                         _______ _______ _______ _____ _____    ______ ____
ROOT
ATOM      1  C   UNL     1      46.254   4.921  13.164  0.00  0.00    +0.000 C 
ATOM      2  C   UNL     1      46.737   4.292  14.255  0.00  0.00    +0.000 C 
ENDROOT
BRANCH   1   7
ATOM      3  C   UNL     1      48.146   7.973  11.983  0.00  0.00    +0.000 A 
ATOM      4  C   UNL     1      47.211   8.981  12.257  0.00  0.00    +0.000 A 
ATOM      5  C   UNL     1      45.975   8.664  12.825  0.00  0.00    +0.000 A 
ATOM      6  C   UNL     1      45.662   7.338  13.125  0.00  0.00    +0.000 A 
ATOM      7  C   UNL     1      46.575   6.317  12.842  0.00  0.00    +0.000 A 
ATOM      8  C   UNL     1      47.808   6.639  12.257  0.00  0.00    +0.000 A 
BRANCH   3   9
ATOM      9  C   UNL     1      49.497   8.313  11.408  0.00  0.00    +0.000 C 
BRANCH   9  10
ATOM     10  N   UNL     1      50.527   7.391  11.864  0.00  0.00    +0.000 NA
ATOM     11  H   UNL     1      50.958   6.950  11.053  0.00  0.00    +0.000 HD
ATOM     12  H   UNL     1      50.090   6.642  12.399  0.00  0.00    +0.000 HD
ENDBRANCH   9  10
ENDBRANCH   3   9
ENDBRANCH   1   7
BRANCH   2  13
ATOM     13  C   UNL     1      47.587   4.821  15.325  0.00  0.00    +0.000 A 
ATOM     14  N   UNL     1      48.306   5.916  14.962  0.00  0.00    +0.000 NA
ATOM     15  C   UNL     1      48.929   6.565  15.975  0.00  0.00    +0.000 A 
ATOM     16  C   UNL     1      48.823   6.149  17.294  0.00  0.00    +0.000 A 
ATOM     17  N   UNL     1      48.121   5.037  17.670  0.00  0.00    +0.000 NA
ATOM     18  C   UNL     1      47.498   4.382  16.665  0.00  0.00    +0.000 A 
BRANCH  16  19
ATOM     19  C   UNL     1      49.422   6.981  18.374  0.00  0.00    +0.000 C 
ATOM     20  N   UNL     1      48.707   7.053  19.539  0.00  0.00    +0.000 N 
ATOM     21  O   UNL     1      50.474   7.590  18.226  0.00  0.00    +0.000 OA
ATOM     22  H   UNL     1      47.824   6.564  19.626  0.00  0.00    +0.000 HD
ATOM     23  H   UNL     1      49.039   7.642  20.290  0.00  0.00    +0.000 HD
ENDBRANCH  16  19
BRANCH  18  24
ATOM     24  N   UNL     1      46.768   3.256  17.050  0.00  0.00    +0.000 N 
ATOM     25  H   UNL     1      46.715   3.238  18.064  0.00  0.00    +0.000 HD
ATOM     26  H   UNL     1      45.857   3.213  16.613  0.00  0.00    +0.000 HD
ENDBRANCH  18  24
ENDBRANCH   2  13
BRANCH   1  27
ATOM     27  C   UNL     1      45.323   4.202  12.231  0.00  0.00    +0.000 C 
ATOM     28  F   UNL     1      45.307   4.684  10.965  0.00  0.00    +0.000 F 
ATOM     29  F   UNL     1      45.645   2.882  12.145  0.00  0.00    +0.000 F 
ATOM     30  F   UNL     1      44.038   4.249  12.681  0.00  0.00    +0.000 F 
ENDBRANCH   1  27
TORSDOF 7
ENDMDL
