MODEL 1
REMARK VINA RESULT:    -7.838      0.000      0.000
REMARK INTER + INTRA:         -12.313
REMARK INTER:                 -11.274
REMARK INTRA:                  -1.039
REMARK UNBOUND:                -1.039
REMARK  Name = 
REMARK  9 active torsions:
REMARK  status: ('A' for Active; 'I' for Inactive)
REMARK    1  A    between atoms: C_1  and  C_2
REMARK    2  A    between atoms: C_2  and  N_3
REMARK    3  A    between atoms: C_2  and  C_19
REMARK    4  A    between atoms: N_3  and  C_4
REMARK    5  A    between atoms: C_4  and  C_5
REMARK    6  A    between atoms: C_8  and  C_9
REMARK    7  A    between atoms: C_9  and  N_10
REMARK    8  A    between atoms: C_9  and  C_11
REMARK    9  A    between atoms: C_11  and  C_12
REMARK                            x       y       z     vdW  Elec       q    Type
REMARK                         _______ _______ _______ _____ _____    ______ ____
ROOT
ATOM      1  C   UNL     1      46.805   5.013  14.003  0.00  0.00    +0.000 A 
ATOM      2  C   UNL     1      46.408   3.726  13.638  0.00  0.00    +0.000 A 
ATOM      3  C   UNL     1      45.611   3.544  12.513  0.00  0.00    +0.000 A 
ATOM      4  C   UNL     1      45.221   4.660  11.772  0.00  0.00    +0.000 A 
ATOM      5  N   UNL     1      45.583   5.918  12.117  0.00  0.00    +0.000 NA
ATOM      6  C   UNL     1      46.361   6.065  13.211  0.00  0.00    +0.000 A 
ENDROOT
BRANCH   1   7
ATOM      7  C   UNL     1      47.635   5.276  15.225  0.00  0.00    +0.000 C 
BRANCH   7   8
ATOM      8  N   UNL     1      48.143   4.045  15.829  0.00  0.00    +0.000 NA
ATOM      9  H   UNL     1      47.572   3.263  15.511  0.00  0.00    +0.000 HD
BRANCH   8  11
ATOM     10  C   UNL     1      47.287   5.287  17.825  0.00  0.00    +0.000 C 
ATOM     11  C   UNL     1      48.072   4.077  17.298  0.00  0.00    +0.000 C 
BRANCH  11  12
ATOM     12  C   UNL     1      49.496   4.101  17.812  0.00  0.00    +0.000 A 
ATOM     13  C   UNL     1      50.030   5.133  18.572  0.00  0.00    +0.000 A 
ATOM     14  S   UNL     1      51.633   4.840  19.076  0.00  0.00    +0.000 S 
ATOM     15  C   UNL     1      51.673   3.341  18.269  0.00  0.00    +0.000 A 
ATOM     16  N   UNL     1      52.785   2.551  18.311  0.00  0.00    +0.000 NA
ATOM     17  C   UNL     1      52.669   1.450  17.651  0.00  0.00    +0.000 A 
ATOM     18  N   UNL     1      51.558   1.064  16.947  0.00  0.00    +0.000 N 
ATOM     19  C   UNL     1      50.418   1.830  16.868  0.00  0.00    +0.000 A 
ATOM     20  O   UNL     1      49.454   1.470  16.201  0.00  0.00    +0.000 OA
ATOM     21  C   UNL     1      50.487   3.072  17.616  0.00  0.00    +0.000 A 
ATOM     22  H   UNL     1      51.546   0.191  16.439  0.00  0.00    +0.000 HD
ENDBRANCH  11  12
ENDBRANCH   8  11
ENDBRANCH   7   8
ENDBRANCH   1   7
BRANCH   4  23
ATOM     23  C   UNL     1      44.478   4.515  10.453  0.00  0.00    +0.000 C 
BRANCH  23  24
ATOM     24  N   UNL     1      43.371   5.495  10.381  0.00  0.00    +0.000 NA
ATOM     25  H   UNL     1      43.698   6.400  10.714  0.00  0.00    +0.000 HD
ATOM     26  H   UNL     1      42.661   5.196  11.053  0.00  0.00    +0.000 HD
ENDBRANCH  23  24
BRANCH  23  27
ATOM     27  C   UNL     1      45.364   4.672   9.205  0.00  0.00    +0.000 C 
BRANCH  27  28
ATOM     28  C   UNL     1      45.014   3.787   7.984  0.00  0.00    +0.000 C 
ATOM     29  C   UNL     1      44.575   2.406   8.472  0.00  0.00    +0.000 C 
ATOM     30  C   UNL     1      45.886   1.655   8.600  0.00  0.00    +0.000 C 
ATOM     31  N   UNL     1      46.678   2.098   7.452  0.00  0.00    +0.000 NA
ATOM     32  C   UNL     1      46.178   3.427   7.054  0.00  0.00    +0.000 C 
ATOM     33  H   UNL     1      46.526   1.449   6.677  0.00  0.00    +0.000 HD
ENDBRANCH  27  28
ENDBRANCH  23  27
ENDBRANCH   4  23
TORSDOF 8
ENDMDL
MODEL 2
REMARK VINA RESULT:    -7.360      1.111      1.508
REMARK INTER + INTRA:         -11.626
REMARK INTER:                 -10.904
REMARK INTRA:                  -0.722
REMARK UNBOUND:                -1.039
REMARK  Name = 
REMARK  9 active torsions:
REMARK  status: ('A' for Active; 'I' for Inactive)
REMARK    1  A    between atoms: C_1  and  C_2
REMARK    2  A    between atoms: C_2  and  N_3
REMARK    3  A    between atoms: C_2  and  C_19
REMARK    4  A    between atoms: N_3  and  C_4
REMARK    5  A    between atoms: C_4  and  C_5
REMARK    6  A    between atoms: C_8  and  C_9
REMARK    7  A    between atoms: C_9  and  N_10
REMARK    8  A    between atoms: C_9  and  C_11
REMARK    9  A    between atoms: C_11  and  C_12
REMARK                            x       y       z     vdW  Elec       q    Type
REMARK                         _______ _______ _______ _____ _____    ______ ____
ROOT
ATOM      1  C   UNL     1      47.006   5.868  13.879  0.00  0.00    +0.000 A 
ATOM      2  C   UNL     1      46.163   4.763  14.001  0.00  0.00    +0.000 A 
ATOM      3  C   UNL     1      44.955   4.739  13.313  0.00  0.00    +0.000 A 
ATOM      4  C   UNL     1      44.609   5.829  12.514  0.00  0.00    +0.000 A 
ATOM      5  N   UNL     1      45.405   6.917  12.394  0.00  0.00    +0.000 NA
ATOM      6  C   UNL     1      46.574   6.912  13.069  0.00  0.00    +0.000 A 
ENDROOT
BRANCH   1   7
ATOM      7  C   UNL     1      48.305   5.967  14.623  0.00  0.00    +0.000 C 
BRANCH   7   8
ATOM      8  N   UNL     1      48.118   5.983  16.073  0.00  0.00    +0.000 NA
ATOM      9  H   UNL     1      48.832   6.579  16.491  0.00  0.00    +0.000 HD
BRANCH   8  11
ATOM     10  C   UNL     1      47.172   4.351  17.716  0.00  0.00    +0.000 C 
ATOM     11  C   UNL     1      48.255   4.644  16.667  0.00  0.00    +0.000 C 
BRANCH  11  12
ATOM     12  C   UNL     1      49.632   4.572  17.289  0.00  0.00    +0.000 A 
ATOM     13  C   UNL     1      50.262   5.642  17.912  0.00  0.00    +0.000 A 
ATOM     14  S   UNL     1      51.772   5.234  18.592  0.00  0.00    +0.000 S 
ATOM     15  C   UNL     1      51.646   3.626  18.049  0.00  0.00    +0.000 A 
ATOM     16  N   UNL     1      52.628   2.717  18.315  0.00  0.00    +0.000 NA
ATOM     17  C   UNL     1      52.397   1.541  17.839  0.00  0.00    +0.000 A 
ATOM     18  N   UNL     1      51.288   1.187  17.115  0.00  0.00    +0.000 N 
ATOM     19  C   UNL     1      50.276   2.070  16.815  0.00  0.00    +0.000 A 
ATOM     20  O   UNL     1      49.313   1.727  16.136  0.00  0.00    +0.000 OA
ATOM     21  C   UNL     1      50.476   3.404  17.350  0.00  0.00    +0.000 A 
ATOM     22  H   UNL     1      51.182   0.248  16.760  0.00  0.00    +0.000 HD
ENDBRANCH  11  12
ENDBRANCH   8  11
ENDBRANCH   7   8
ENDBRANCH   1   7
BRANCH   4  23
ATOM     23  C   UNL     1      43.377   5.799  11.623  0.00  0.00    +0.000 C 
BRANCH  23  24
ATOM     24  N   UNL     1      43.137   7.138  11.039  0.00  0.00    +0.000 NA
ATOM     25  H   UNL     1      43.457   7.147  10.072  0.00  0.00    +0.000 HD
ATOM     26  H   UNL     1      43.745   7.795  11.534  0.00  0.00    +0.000 HD
ENDBRANCH  23  24
BRANCH  23  27
ATOM     27  C   UNL     1      43.441   4.764  10.487  0.00  0.00    +0.000 C 
BRANCH  27  28
ATOM     28  C   UNL     1      44.803   4.067  10.254  0.00  0.00    +0.000 C 
ATOM     29  C   UNL     1      45.446   4.627   8.985  0.00  0.00    +0.000 C 
ATOM     30  C   UNL     1      44.853   3.761   7.890  0.00  0.00    +0.000 C 
ATOM     31  N   UNL     1      44.802   2.418   8.469  0.00  0.00    +0.000 NA
ATOM     32  C   UNL     1      44.750   2.569   9.935  0.00  0.00    +0.000 C 
ATOM     33  H   UNL     1      45.661   1.921   8.224  0.00  0.00    +0.000 HD
ENDBRANCH  27  28
ENDBRANCH  23  27
ENDBRANCH   4  23
TORSDOF 8
ENDMDL
MODEL 3
REMARK VINA RESULT:    -7.260      3.023      8.617
REMARK INTER + INTRA:         -11.483
REMARK INTER:                 -10.494
REMARK INTRA:                  -0.989
REMARK UNBOUND:                -1.039
REMARK  Name = 
REMARK  9 active torsions:
REMARK  status: ('A' for Active; 'I' for Inactive)
REMARK    1  A    between atoms: C_1  and  C_2
REMARK    2  A    between atoms: C_2  and  N_3
REMARK    3  A    between atoms: C_2  and  C_19
REMARK    4  A    between atoms: N_3  and  C_4
REMARK    5  A    between atoms: C_4  and  C_5
REMARK    6  A    between atoms: C_8  and  C_9
REMARK    7  A    between atoms: C_9  and  N_10
REMARK    8  A    between atoms: C_9  and  C_11
REMARK    9  A    between atoms: C_11  and  C_12
REMARK                            x       y       z     vdW  Elec       q    Type
REMARK                         _______ _______ _______ _____ _____    ______ ____
ROOT
ATOM      1  C   UNL     1      47.538   5.735  13.993  0.00  0.00    +0.000 A 
ATOM      2  C   UNL     1      47.055   4.432  14.113  0.00  0.00    +0.000 A 
ATOM      3  C   UNL     1      47.145   3.774  15.334  0.00  0.00    +0.000 A 
ATOM      4  C   UNL     1      47.724   4.435  16.419  0.00  0.00    +0.000 A 
ATOM      5  N   UNL     1      48.211   5.694  16.320  0.00  0.00    +0.000 NA
ATOM      6  C   UNL     1      48.106   6.311  15.123  0.00  0.00    +0.000 A 
ENDROOT
BRANCH   1   7
ATOM      7  C   UNL     1      47.500   6.484  12.693  0.00  0.00    +0.000 C 
BRANCH   7   8
ATOM      8  N   UNL     1      46.390   7.432  12.628  0.00  0.00    +0.000 NA
ATOM      9  H   UNL     1      45.797   7.302  13.448  0.00  0.00    +0.000 HD
BRANCH   8  11
ATOM     10  C   UNL     1      44.518   8.348  11.243  0.00  0.00    +0.000 C 
ATOM     11  C   UNL     1      45.550   7.227  11.437  0.00  0.00    +0.000 C 
BRANCH  11  12
ATOM     12  C   UNL     1      44.860   5.891  11.604  0.00  0.00    +0.000 A 
ATOM     13  C   UNL     1      44.115   5.534  12.720  0.00  0.00    +0.000 A 
ATOM     14  S   UNL     1      43.388   3.998  12.585  0.00  0.00    +0.000 S 
ATOM     15  C   UNL     1      44.071   3.748  11.045  0.00  0.00    +0.000 A 
ATOM     16  N   UNL     1      43.827   2.601  10.348  0.00  0.00    +0.000 NA
ATOM     17  C   UNL     1      44.414   2.551   9.201  0.00  0.00    +0.000 A 
ATOM     18  N   UNL     1      45.226   3.529   8.687  0.00  0.00    +0.000 N 
ATOM     19  C   UNL     1      45.507   4.697   9.355  0.00  0.00    +0.000 A 
ATOM     20  O   UNL     1      46.266   5.536   8.880  0.00  0.00    +0.000 OA
ATOM     21  C   UNL     1      44.850   4.814  10.644  0.00  0.00    +0.000 A 
ATOM     22  H   UNL     1      45.665   3.413   7.785  0.00  0.00    +0.000 HD
ENDBRANCH  11  12
ENDBRANCH   8  11
ENDBRANCH   7   8
ENDBRANCH   1   7
BRANCH   4  23
ATOM     23  C   UNL     1      47.716   3.828  17.813  0.00  0.00    +0.000 C 
BRANCH  23  24
ATOM     24  N   UNL     1      46.779   2.683  17.865  0.00  0.00    +0.000 NA
ATOM     25  H   UNL     1      45.844   3.020  18.085  0.00  0.00    +0.000 HD
ATOM     26  H   UNL     1      47.056   2.105  18.662  0.00  0.00    +0.000 HD
ENDBRANCH  23  24
BRANCH  23  27
ATOM     27  C   UNL     1      49.096   3.366  18.311  0.00  0.00    +0.000 C 
BRANCH  27  28
ATOM     28  C   UNL     1      50.230   3.297  17.260  0.00  0.00    +0.000 C 
ATOM     29  C   UNL     1      50.374   1.857  16.766  0.00  0.00    +0.000 C 
ATOM     30  C   UNL     1      51.320   1.241  17.778  0.00  0.00    +0.000 C 
ATOM     31  N   UNL     1      52.293   2.295  18.064  0.00  0.00    +0.000 NA
ATOM     32  C   UNL     1      51.645   3.587  17.773  0.00  0.00    +0.000 C 
ATOM     33  H   UNL     1      53.092   2.184  17.437  0.00  0.00    +0.000 HD
ENDBRANCH  27  28
ENDBRANCH  23  27
ENDBRANCH   4  23
TORSDOF 8
ENDMDL
MODEL 4
REMARK VINA RESULT:    -6.593      3.034      4.129
REMARK INTER + INTRA:         -10.523
REMARK INTER:                  -9.261
REMARK INTRA:                  -1.262
REMARK UNBOUND:                -1.039
REMARK  Name = 
REMARK  9 active torsions:
REMARK  status: ('A' for Active; 'I' for Inactive)
REMARK    1  A    between atoms: C_1  and  C_2
REMARK    2  A    between atoms: C_2  and  N_3
REMARK    3  A    between atoms: C_2  and  C_19
REMARK    4  A    between atoms: N_3  and  C_4
REMARK    5  A    between atoms: C_4  and  C_5
REMARK    6  A    between atoms: C_8  and  C_9
REMARK    7  A    between atoms: C_9  and  N_10
REMARK    8  A    between atoms: C_9  and  C_11
REMARK    9  A    between atoms: C_11  and  C_12
REMARK                            x       y       z     vdW  Elec       q    Type
REMARK                         _______ _______ _______ _____ _____    ______ ____
ROOT
ATOM      1  C   UNL     1      47.465   6.636  13.508  0.00  0.00    +0.000 A 
ATOM      2  C   UNL     1      47.341   5.325  13.969  0.00  0.00    +0.000 A 
ATOM      3  C   UNL     1      46.130   4.657  13.827  0.00  0.00    +0.000 A 
ATOM      4  C   UNL     1      45.057   5.319  13.227  0.00  0.00    +0.000 A 
ATOM      5  N   UNL     1      45.152   6.596  12.787  0.00  0.00    +0.000 NA
ATOM      6  C   UNL     1      46.342   7.219  12.933  0.00  0.00    +0.000 A 
ENDROOT
BRANCH   1   7
ATOM      7  C   UNL     1      48.735   7.420  13.663  0.00  0.00    +0.000 C 
BRANCH   7   8
ATOM      8  N   UNL     1      49.714   6.735  14.506  0.00  0.00    +0.000 NA
ATOM      9  H   UNL     1      49.354   5.811  14.743  0.00  0.00    +0.000 HD
BRANCH   8  11
ATOM     10  C   UNL     1      51.423   7.900  15.912  0.00  0.00    +0.000 C 
ATOM     11  C   UNL     1      49.961   7.452  15.766  0.00  0.00    +0.000 C 
BRANCH  11  12
ATOM     12  C   UNL     1      49.576   6.518  16.893  0.00  0.00    +0.000 A 
ATOM     13  C   UNL     1      49.962   5.186  16.965  0.00  0.00    +0.000 A 
ATOM     14  S   UNL     1      49.446   4.410  18.394  0.00  0.00    +0.000 S 
ATOM     15  C   UNL     1      48.666   5.819  18.945  0.00  0.00    +0.000 A 
ATOM     16  N   UNL     1      48.019   5.838  20.146  0.00  0.00    +0.000 NA
ATOM     17  C   UNL     1      47.473   6.971  20.429  0.00  0.00    +0.000 A 
ATOM     18  N   UNL     1      47.502   8.082  19.626  0.00  0.00    +0.000 N 
ATOM     19  C   UNL     1      48.134   8.109  18.405  0.00  0.00    +0.000 A 
ATOM     20  O   UNL     1      48.110   9.111  17.698  0.00  0.00    +0.000 OA
ATOM     21  C   UNL     1      48.786   6.863  18.050  0.00  0.00    +0.000 A 
ATOM     22  H   UNL     1      47.036   8.934  19.908  0.00  0.00    +0.000 HD
ENDBRANCH  11  12
ENDBRANCH   8  11
ENDBRANCH   7   8
ENDBRANCH   1   7
BRANCH   4  23
ATOM     23  C   UNL     1      43.757   4.596  12.910  0.00  0.00    +0.000 C 
BRANCH  23  24
ATOM     24  N   UNL     1      42.601   5.420  13.327  0.00  0.00    +0.000 NA
ATOM     25  H   UNL     1      41.870   4.815  13.697  0.00  0.00    +0.000 HD
ATOM     26  H   UNL     1      42.208   5.837  12.481  0.00  0.00    +0.000 HD
ENDBRANCH  23  24
BRANCH  23  27
ATOM     27  C   UNL     1      43.589   4.215  11.428  0.00  0.00    +0.000 C 
BRANCH  27  28
ATOM     28  C   UNL     1      44.812   3.574  10.730  0.00  0.00    +0.000 C 
ATOM     29  C   UNL     1      45.317   4.512   9.633  0.00  0.00    +0.000 C 
ATOM     30  C   UNL     1      44.471   4.125   8.435  0.00  0.00    +0.000 C 
ATOM     31  N   UNL     1      44.354   2.670   8.521  0.00  0.00    +0.000 NA
ATOM     32  C   UNL     1      44.540   2.292   9.934  0.00  0.00    +0.000 C 
ATOM     33  H   UNL     1      45.103   2.246   7.971  0.00  0.00    +0.000 HD
ENDBRANCH  27  28
ENDBRANCH  23  27
ENDBRANCH   4  23
TORSDOF 8
ENDMDL
MODEL 5
REMARK VINA RESULT:    -6.570      2.415      3.368
REMARK INTER + INTRA:         -10.490
REMARK INTER:                  -9.804
REMARK INTRA:                  -0.687
REMARK UNBOUND:                -1.039
REMARK  Name = 
REMARK  9 active torsions:
REMARK  status: ('A' for Active; 'I' for Inactive)
REMARK    1  A    between atoms: C_1  and  C_2
REMARK    2  A    between atoms: C_2  and  N_3
REMARK    3  A    between atoms: C_2  and  C_19
REMARK    4  A    between atoms: N_3  and  C_4
REMARK    5  A    between atoms: C_4  and  C_5
REMARK    6  A    between atoms: C_8  and  C_9
REMARK    7  A    between atoms: C_9  and  N_10
REMARK    8  A    between atoms: C_9  and  C_11
REMARK    9  A    between atoms: C_11  and  C_12
REMARK                            x       y       z     vdW  Elec       q    Type
REMARK                         _______ _______ _______ _____ _____    ______ ____
ROOT
ATOM      1  C   UNL     1      47.476   6.379  13.770  0.00  0.00    +0.000 A 
ATOM      2  C   UNL     1      46.555   7.063  12.976  0.00  0.00    +0.000 A 
ATOM      3  C   UNL     1      45.353   6.452  12.636  0.00  0.00    +0.000 A 
ATOM      4  C   UNL     1      45.096   5.159  13.094  0.00  0.00    +0.000 A 
ATOM      5  N   UNL     1      45.984   4.473  13.852  0.00  0.00    +0.000 NA
ATOM      6  C   UNL     1      47.140   5.092  14.173  0.00  0.00    +0.000 A 
ENDROOT
BRANCH   1   7
ATOM      7  C   UNL     1      48.804   6.972  14.142  0.00  0.00    +0.000 C 
BRANCH   7   8
ATOM      8  N   UNL     1      49.393   6.327  15.314  0.00  0.00    +0.000 NA
ATOM      9  H   UNL     1      48.643   5.960  15.900  0.00  0.00    +0.000 HD
BRANCH   8  11
ATOM     10  C   UNL     1      51.674   6.930  16.146  0.00  0.00    +0.000 C 
ATOM     11  C   UNL     1      50.175   7.267  16.133  0.00  0.00    +0.000 C 
BRANCH  11  12
ATOM     12  C   UNL     1      49.606   7.217  17.534  0.00  0.00    +0.000 A 
ATOM     13  C   UNL     1      49.202   8.337  18.249  0.00  0.00    +0.000 A 
ATOM     14  S   UNL     1      48.523   7.960  19.767  0.00  0.00    +0.000 S 
ATOM     15  C   UNL     1      48.776   6.293  19.530  0.00  0.00    +0.000 A 
ATOM     16  N   UNL     1      48.397   5.384  20.475  0.00  0.00    +0.000 NA
ATOM     17  C   UNL     1      48.655   4.162  20.158  0.00  0.00    +0.000 A 
ATOM     18  N   UNL     1      49.262   3.758  18.997  0.00  0.00    +0.000 N 
ATOM     19  C   UNL     1      49.669   4.637  18.020  0.00  0.00    +0.000 A 
ATOM     20  O   UNL     1      50.240   4.243  17.008  0.00  0.00    +0.000 OA
ATOM     21  C   UNL     1      49.379   6.027  18.317  0.00  0.00    +0.000 A 
ATOM     22  H   UNL     1      49.447   2.780  18.825  0.00  0.00    +0.000 HD
ENDBRANCH  11  12
ENDBRANCH   8  11
ENDBRANCH   7   8
ENDBRANCH   1   7
BRANCH   4  23
ATOM     23  C   UNL     1      43.744   4.496  12.881  0.00  0.00    +0.000 C 
BRANCH  23  24
ATOM     24  N   UNL     1      42.656   5.435  13.235  0.00  0.00    +0.000 NA
ATOM     25  H   UNL     1      42.955   6.023  14.011  0.00  0.00    +0.000 HD
ATOM     26  H   UNL     1      41.882   4.874  13.600  0.00  0.00    +0.000 HD
ENDBRANCH  23  24
BRANCH  23  27
ATOM     27  C   UNL     1      43.510   3.977  11.452  0.00  0.00    +0.000 C 
BRANCH  27  28
ATOM     28  C   UNL     1      44.734   3.381  10.717  0.00  0.00    +0.000 C 
ATOM     29  C   UNL     1      45.263   4.400   9.708  0.00  0.00    +0.000 C 
ATOM     30  C   UNL     1      44.428   4.125   8.472  0.00  0.00    +0.000 C 
ATOM     31  N   UNL     1      44.294   2.668   8.436  0.00  0.00    +0.000 NA
ATOM     32  C   UNL     1      44.458   2.172   9.815  0.00  0.00    +0.000 C 
ATOM     33  H   UNL     1      45.045   2.282   7.861  0.00  0.00    +0.000 HD
ENDBRANCH  27  28
ENDBRANCH  23  27
ENDBRANCH   4  23
TORSDOF 8
ENDMDL
MODEL 6
REMARK VINA RESULT:    -6.429      3.479      9.448
REMARK INTER + INTRA:         -10.288
REMARK INTER:                  -9.469
REMARK INTRA:                  -0.819
REMARK UNBOUND:                -1.039
REMARK  Name = 
REMARK  9 active torsions:
REMARK  status: ('A' for Active; 'I' for Inactive)
REMARK    1  A    between atoms: C_1  and  C_2
REMARK    2  A    between atoms: C_2  and  N_3
REMARK    3  A    between atoms: C_2  and  C_19
REMARK    4  A    between atoms: N_3  and  C_4
REMARK    5  A    between atoms: C_4  and  C_5
REMARK    6  A    between atoms: C_8  and  C_9
REMARK    7  A    between atoms: C_9  and  N_10
REMARK    8  A    between atoms: C_9  and  C_11
REMARK    9  A    between atoms: C_11  and  C_12
REMARK                            x       y       z     vdW  Elec       q    Type
REMARK                         _______ _______ _______ _____ _____    ______ ____
ROOT
ATOM      1  C   UNL     1      47.623   5.576  14.668  0.00  0.00    +0.000 A 
ATOM      2  C   UNL     1      47.105   4.381  15.166  0.00  0.00    +0.000 A 
ATOM      3  C   UNL     1      47.365   4.012  16.481  0.00  0.00    +0.000 A 
ATOM      4  C   UNL     1      48.147   4.850  17.278  0.00  0.00    +0.000 A 
ATOM      5  N   UNL     1      48.671   6.007  16.810  0.00  0.00    +0.000 NA
ATOM      6  C   UNL     1      48.399   6.343  15.531  0.00  0.00    +0.000 A 
ENDROOT
BRANCH   1   7
ATOM      7  C   UNL     1      47.406   6.011  13.248  0.00  0.00    +0.000 C 
BRANCH   7   8
ATOM      8  N   UNL     1      46.229   6.865  13.101  0.00  0.00    +0.000 NA
ATOM      9  H   UNL     1      45.534   6.591  13.796  0.00  0.00    +0.000 HD
BRANCH   8  11
ATOM     10  C   UNL     1      44.563   7.824  11.499  0.00  0.00    +0.000 C 
ATOM     11  C   UNL     1      45.606   6.730  11.775  0.00  0.00    +0.000 C 
BRANCH  11  12
ATOM     12  C   UNL     1      44.966   5.359  11.721  0.00  0.00    +0.000 A 
ATOM     13  C   UNL     1      44.286   4.776  12.782  0.00  0.00    +0.000 A 
ATOM     14  S   UNL     1      43.601   3.262  12.395  0.00  0.00    +0.000 S 
ATOM     15  C   UNL     1      44.218   3.326  10.809  0.00  0.00    +0.000 A 
ATOM     16  N   UNL     1      43.978   2.316   9.923  0.00  0.00    +0.000 NA
ATOM     17  C   UNL     1      44.510   2.500   8.763  0.00  0.00    +0.000 A 
ATOM     18  N   UNL     1      45.266   3.586   8.406  0.00  0.00    +0.000 N 
ATOM     19  C   UNL     1      45.542   4.623   9.266  0.00  0.00    +0.000 A 
ATOM     20  O   UNL     1      46.251   5.564   8.923  0.00  0.00    +0.000 OA
ATOM     21  C   UNL     1      44.944   4.477  10.580  0.00  0.00    +0.000 A 
ATOM     22  H   UNL     1      45.665   3.654   7.480  0.00  0.00    +0.000 HD
ENDBRANCH  11  12
ENDBRANCH   8  11
ENDBRANCH   7   8
ENDBRANCH   1   7
BRANCH   4  23
ATOM     23  C   UNL     1      48.341   4.578  18.761  0.00  0.00    +0.000 C 
BRANCH  23  24
ATOM     24  N   UNL     1      48.372   3.120  19.012  0.00  0.00    +0.000 NA
ATOM     25  H   UNL     1      48.726   2.641  18.186  0.00  0.00    +0.000 HD
ATOM     26  H   UNL     1      47.402   2.812  19.112  0.00  0.00    +0.000 HD
ENDBRANCH  23  24
BRANCH  23  27
ATOM     27  C   UNL     1      49.608   5.214  19.362  0.00  0.00    +0.000 C 
BRANCH  27  28
ATOM     28  C   UNL     1      49.415   6.102  20.614  0.00  0.00    +0.000 C 
ATOM     29  C   UNL     1      47.927   6.401  20.798  0.00  0.00    +0.000 C 
ATOM     30  C   UNL     1      47.714   7.628  19.934  0.00  0.00    +0.000 C 
ATOM     31  N   UNL     1      48.921   8.432  20.133  0.00  0.00    +0.000 NA
ATOM     32  C   UNL     1      50.003   7.516  20.537  0.00  0.00    +0.000 C 
ATOM     33  H   UNL     1      48.754   9.093  20.894  0.00  0.00    +0.000 HD
ENDBRANCH  27  28
ENDBRANCH  23  27
ENDBRANCH   4  23
TORSDOF 8
ENDMDL
MODEL 7
REMARK VINA RESULT:    -6.318      4.477      5.519
REMARK INTER + INTRA:         -10.127
REMARK INTER:                  -9.327
REMARK INTRA:                  -0.800
REMARK UNBOUND:                -1.039
REMARK  Name = 
REMARK  9 active torsions:
REMARK  status: ('A' for Active; 'I' for Inactive)
REMARK    1  A    between atoms: C_1  and  C_2
REMARK    2  A    between atoms: C_2  and  N_3
REMARK    3  A    between atoms: C_2  and  C_19
REMARK    4  A    between atoms: N_3  and  C_4
REMARK    5  A    between atoms: C_4  and  C_5
REMARK    6  A    between atoms: C_8  and  C_9
REMARK    7  A    between atoms: C_9  and  N_10
REMARK    8  A    between atoms: C_9  and  C_11
REMARK    9  A    between atoms: C_11  and  C_12
REMARK                            x       y       z     vdW  Elec       q    Type
REMARK                         _______ _______ _______ _____ _____    ______ ____
ROOT
ATOM      1  C   UNL     1      45.118   5.520  11.859  0.00  0.00    +0.000 A 
ATOM      2  C   UNL     1      45.245   5.745  10.488  0.00  0.00    +0.000 A 
ATOM      3  C   UNL     1      45.348   4.665   9.620  0.00  0.00    +0.000 A 
ATOM      4  C   UNL     1      45.326   3.371  10.142  0.00  0.00    +0.000 A 
ATOM      5  N   UNL     1      45.218   3.131  11.470  0.00  0.00    +0.000 NA
ATOM      6  C   UNL     1      45.115   4.198  12.291  0.00  0.00    +0.000 A 
ENDROOT
BRANCH   1   7
ATOM      7  C   UNL     1      45.037   6.645  12.849  0.00  0.00    +0.000 C 
BRANCH   7   8
ATOM      8  N   UNL     1      46.356   7.136  13.244  0.00  0.00    +0.000 NA
ATOM      9  H   UNL     1      46.581   6.767  14.168  0.00  0.00    +0.000 HD
BRANCH   8  11
ATOM     10  C   UNL     1      45.251   9.274  12.562  0.00  0.00    +0.000 C 
ATOM     11  C   UNL     1      46.401   8.604  13.329  0.00  0.00    +0.000 C 
BRANCH  11  12
ATOM     12  C   UNL     1      47.738   9.041  12.772  0.00  0.00    +0.000 A 
ATOM     13  C   UNL     1      47.888   9.940  11.725  0.00  0.00    +0.000 A 
ATOM     14  S   UNL     1      49.517  10.304  11.374  0.00  0.00    +0.000 S 
ATOM     15  C   UNL     1      50.073   9.249  12.589  0.00  0.00    +0.000 A 
ATOM     16  N   UNL     1      51.408   9.097  12.830  0.00  0.00    +0.000 NA
ATOM     17  C   UNL     1      51.678   8.263  13.775  0.00  0.00    +0.000 A 
ATOM     18  N   UNL     1      50.748   7.560  14.497  0.00  0.00    +0.000 N 
ATOM     19  C   UNL     1      49.393   7.673  14.285  0.00  0.00    +0.000 A 
ATOM     20  O   UNL     1      48.591   7.003  14.927  0.00  0.00    +0.000 OA
ATOM     21  C   UNL     1      49.034   8.620  13.245  0.00  0.00    +0.000 A 
ATOM     22  H   UNL     1      51.036   6.910  15.214  0.00  0.00    +0.000 HD
ENDBRANCH  11  12
ENDBRANCH   8  11
ENDBRANCH   7   8
ENDBRANCH   1   7
BRANCH   4  23
ATOM     23  C   UNL     1      45.284   2.150   9.236  0.00  0.00    +0.000 C 
BRANCH  23  24
ATOM     24  N   UNL     1      43.961   1.493   9.326  0.00  0.00    +0.000 NA
ATOM     25  H   UNL     1      44.078   0.485   9.249  0.00  0.00    +0.000 HD
ATOM     26  H   UNL     1      43.431   1.771   8.496  0.00  0.00    +0.000 HD
ENDBRANCH  23  24
BRANCH  23  27
ATOM     27  C   UNL     1      45.595   2.447   7.758  0.00  0.00    +0.000 C 
BRANCH  27  28
ATOM     28  C   UNL     1      47.033   2.911   7.427  0.00  0.00    +0.000 C 
ATOM     29  C   UNL     1      47.011   3.751   6.149  0.00  0.00    +0.000 C 
ATOM     30  C   UNL     1      47.129   2.710   5.053  0.00  0.00    +0.000 C 
ATOM     31  N   UNL     1      48.076   1.727   5.579  0.00  0.00    +0.000 NA
ATOM     32  C   UNL     1      48.029   1.808   7.051  0.00  0.00    +0.000 C 
ATOM     33  H   UNL     1      49.017   1.977   5.270  0.00  0.00    +0.000 HD
ENDBRANCH  27  28
ENDBRANCH  23  27
ENDBRANCH   4  23
TORSDOF 8
ENDMDL
MODEL 8
REMARK VINA RESULT:    -6.234      2.315      2.945
REMARK INTER + INTRA:         -10.007
REMARK INTER:                  -9.050
REMARK INTRA:                  -0.957
REMARK UNBOUND:                -1.039
REMARK  Name = 
REMARK  9 active torsions:
REMARK  status: ('A' for Active; 'I' for Inactive)
REMARK    1  A    between atoms: C_1  and  C_2
REMARK    2  A    between atoms: C_2  and  N_3
REMARK    3  A    between atoms: C_2  and  C_19
REMARK    4  A    between atoms: N_3  and  C_4
REMARK    5  A    between atoms: C_4  and  C_5
REMARK    6  A    between atoms: C_8  and  C_9
REMARK    7  A    between atoms: C_9  and  N_10
REMARK    8  A    between atoms: C_9  and  C_11
REMARK    9  A    between atoms: C_11  and  C_12
REMARK                            x       y       z     vdW  Elec       q    Type
REMARK                         _______ _______ _______ _____ _____    ______ ____
ROOT
ATOM      1  C   UNL     1      48.267   7.596  13.917  0.00  0.00    +0.000 A 
ATOM      2  C   UNL     1      48.112   6.288  13.459  0.00  0.00    +0.000 A 
ATOM      3  C   UNL     1      46.939   5.920  12.810  0.00  0.00    +0.000 A 
ATOM      4  C   UNL     1      45.934   6.872  12.635  0.00  0.00    +0.000 A 
ATOM      5  N   UNL     1      46.058   8.143  13.086  0.00  0.00    +0.000 NA
ATOM      6  C   UNL     1      47.209   8.474  13.708  0.00  0.00    +0.000 A 
ENDROOT
BRANCH   1   7
ATOM      7  C   UNL     1      49.495   8.044  14.654  0.00  0.00    +0.000 C 
BRANCH   7   8
ATOM      8  N   UNL     1      50.345   6.924  15.053  0.00  0.00    +0.000 NA
ATOM      9  H   UNL     1      50.042   6.088  14.555  0.00  0.00    +0.000 HD
BRANCH   8  11
ATOM     10  C   UNL     1      49.899   7.888  17.318  0.00  0.00    +0.000 C 
ATOM     11  C   UNL     1      50.253   6.641  16.494  0.00  0.00    +0.000 C 
BRANCH  11  12
ATOM     12  C   UNL     1      51.591   6.080  16.924  0.00  0.00    +0.000 A 
ATOM     13  C   UNL     1      52.764   6.820  16.974  0.00  0.00    +0.000 A 
ATOM     14  S   UNL     1      54.094   5.939  17.579  0.00  0.00    +0.000 S 
ATOM     15  C   UNL     1      53.150   4.534  17.764  0.00  0.00    +0.000 A 
ATOM     16  N   UNL     1      53.693   3.386  18.263  0.00  0.00    +0.000 NA
ATOM     17  C   UNL     1      52.860   2.405  18.342  0.00  0.00    +0.000 A 
ATOM     18  N   UNL     1      51.544   2.455  17.963  0.00  0.00    +0.000 N 
ATOM     19  C   UNL     1      50.955   3.586  17.448  0.00  0.00    +0.000 A 
ATOM     20  O   UNL     1      49.782   3.586  17.088  0.00  0.00    +0.000 OA
ATOM     21  C   UNL     1      51.845   4.729  17.360  0.00  0.00    +0.000 A 
ATOM     22  H   UNL     1      50.954   1.639  18.040  0.00  0.00    +0.000 HD
ENDBRANCH  11  12
ENDBRANCH   8  11
ENDBRANCH   7   8
ENDBRANCH   1   7
BRANCH   4  23
ATOM     23  C   UNL     1      44.695   6.573  11.806  0.00  0.00    +0.000 C 
BRANCH  23  24
ATOM     24  N   UNL     1      44.143   7.827  11.243  0.00  0.00    +0.000 NA
ATOM     25  H   UNL     1      44.731   8.139  10.473  0.00  0.00    +0.000 HD
ATOM     26  H   UNL     1      44.234   8.545  11.965  0.00  0.00    +0.000 HD
ENDBRANCH  23  24
BRANCH  23  27
ATOM     27  C   UNL     1      44.924   5.572  10.660  0.00  0.00    +0.000 C 
BRANCH  27  28
ATOM     28  C   UNL     1      43.758   4.609  10.331  0.00  0.00    +0.000 C 
ATOM     29  C   UNL     1      42.966   4.321  11.608  0.00  0.00    +0.000 C 
ATOM     30  C   UNL     1      43.715   3.153  12.219  0.00  0.00    +0.000 C 
ATOM     31  N   UNL     1      44.097   2.321  11.077  0.00  0.00    +0.000 NA
ATOM     32  C   UNL     1      44.153   3.195   9.891  0.00  0.00    +0.000 C 
ATOM     33  H   UNL     1      43.373   1.616  10.927  0.00  0.00    +0.000 HD
ENDBRANCH  27  28
ENDBRANCH  23  27
ENDBRANCH   4  23
TORSDOF 8
ENDMDL
MODEL 9
REMARK VINA RESULT:    -6.227      1.969      2.280
REMARK INTER + INTRA:          -9.996
REMARK INTER:                  -9.195
REMARK INTRA:                  -0.801
REMARK UNBOUND:                -1.039
REMARK  Name = 
REMARK  9 active torsions:
REMARK  status: ('A' for Active; 'I' for Inactive)
REMARK    1  A    between atoms: C_1  and  C_2
REMARK    2  A    between atoms: C_2  and  N_3
REMARK    3  A    between atoms: C_2  and  C_19
REMARK    4  A    between atoms: N_3  and  C_4
REMARK    5  A    between atoms: C_4  and  C_5
REMARK    6  A    between atoms: C_8  and  C_9
REMARK    7  A    between atoms: C_9  and  N_10
REMARK    8  A    between atoms: C_9  and  C_11
REMARK    9  A    between atoms: C_11  and  C_12
REMARK                            x       y       z     vdW  Elec       q    Type
REMARK                         _______ _______ _______ _____ _____    ______ ____
ROOT
ATOM      1  C   UNL     1      47.234   6.267  13.399  0.00  0.00    +0.000 A 
ATOM      2  C   UNL     1      46.876   4.978  13.795  0.00  0.00    +0.000 A 
ATOM      3  C   UNL     1      45.868   4.304  13.115  0.00  0.00    +0.000 A 
ATOM      4  C   UNL     1      45.230   4.938  12.048  0.00  0.00    +0.000 A 
ATOM      5  N   UNL     1      45.552   6.194  11.658  0.00  0.00    +0.000 NA
ATOM      6  C   UNL     1      46.538   6.823  12.332  0.00  0.00    +0.000 A 
ENDROOT
BRANCH   1   7
ATOM      7  C   UNL     1      48.290   7.057  14.115  0.00  0.00    +0.000 C 
BRANCH   7   8
ATOM      8  N   UNL     1      48.962   6.278  15.153  0.00  0.00    +0.000 NA
ATOM      9  H   UNL     1      48.269   5.706  15.636  0.00  0.00    +0.000 HD
BRANCH   8  11
ATOM     10  C   UNL     1      49.692   8.603  15.720  0.00  0.00    +0.000 C 
ATOM     11  C   UNL     1      49.611   7.133  16.160  0.00  0.00    +0.000 C 
BRANCH  11  12
ATOM     12  C   UNL     1      50.995   6.571  16.396  0.00  0.00    +0.000 A 
ATOM     13  C   UNL     1      52.165   7.172  15.952  0.00  0.00    +0.000 A 
ATOM     14  S   UNL     1      53.577   6.350  16.443  0.00  0.00    +0.000 S 
ATOM     15  C   UNL     1      52.668   5.150  17.238  0.00  0.00    +0.000 A 
ATOM     16  N   UNL     1      53.284   4.124  17.895  0.00  0.00    +0.000 NA
ATOM     17  C   UNL     1      52.469   3.290  18.445  0.00  0.00    +0.000 A 
ATOM     18  N   UNL     1      51.102   3.375  18.395  0.00  0.00    +0.000 N 
ATOM     19  C   UNL     1      50.436   4.384  17.739  0.00  0.00    +0.000 A 
ATOM     20  O   UNL     1      49.211   4.409  17.686  0.00  0.00    +0.000 OA
ATOM     21  C   UNL     1      51.310   5.364  17.122  0.00  0.00    +0.000 A 
ATOM     22  H   UNL     1      50.526   2.673  18.838  0.00  0.00    +0.000 HD
ENDBRANCH  11  12
ENDBRANCH   8  11
ENDBRANCH   7   8
ENDBRANCH   1   7
BRANCH   4  23
ATOM     23  C   UNL     1      44.227   4.201  11.173  0.00  0.00    +0.000 C 
BRANCH  23  24
ATOM     24  N   UNL     1      43.621   5.134  10.197  0.00  0.00    +0.000 NA
ATOM     25  H   UNL     1      42.626   5.230  10.393  0.00  0.00    +0.000 HD
ATOM     26  H   UNL     1      43.676   4.686   9.279  0.00  0.00    +0.000 HD
ENDBRANCH  23  24
BRANCH  23  27
ATOM     27  C   UNL     1      44.812   2.997  10.415  0.00  0.00    +0.000 C 
BRANCH  27  28
ATOM     28  C   UNL     1      44.575   2.953   8.886  0.00  0.00    +0.000 C 
ATOM     29  C   UNL     1      44.807   1.529   8.380  0.00  0.00    +0.000 C 
ATOM     30  C   UNL     1      46.299   1.497   8.116  0.00  0.00    +0.000 C 
ATOM     31  N   UNL     1      46.602   2.813   7.554  0.00  0.00    +0.000 NA
ATOM     32  C   UNL     1      45.563   3.748   8.026  0.00  0.00    +0.000 C 
ATOM     33  H   UNL     1      46.548   2.756   6.535  0.00  0.00    +0.000 HD
ENDBRANCH  27  28
ENDBRANCH  23  27
ENDBRANCH   4  23
TORSDOF 8
ENDMDL
