MODEL 1
REMARK VINA RESULT:    -8.867      0.000      0.000
REMARK INTER + INTRA:         -12.956
REMARK INTER:                 -11.977
REMARK INTRA:                  -0.979
REMARK UNBOUND:                -0.979
REMARK  Name = 
REMARK  7 active torsions:
REMARK  status: ('A' for Active; 'I' for Inactive)
REMARK    1  A    between atoms: C_1  and  O_2
REMARK    2  A    between atoms: O_2  and  C_3
REMARK    3  A    between atoms: N_6  and  C_7
REMARK    4  A    between atoms: C_7  and  C_8
REMARK    5  A    between atoms: C_12  and  C_13
REMARK    6  A    between atoms: C_17  and  C_18
REMARK    7  A    between atoms: C_26  and  C_27
REMARK                            x       y       z     vdW  Elec       q    Type
REMARK                         _______ _______ _______ _____ _____    ______ ____
ROOT
ATOM      1  C   UNL     1      43.382   3.480  11.186  0.00  0.00    +0.000 C 
ENDROOT
BRANCH   1   5
ATOM      2  C   UNL     1      46.459   1.528   8.051  0.00  0.00    +0.000 A 
ATOM      3  N   UNL     1      45.699   1.482   9.181  0.00  0.00    +0.000 NA
ATOM      4  C   UNL     1      44.979   2.568   9.522  0.00  0.00    +0.000 A 
ATOM      5  N   UNL     1      44.268   2.458  10.689  0.00  0.00    +0.000 N 
ATOM      6  C   UNL     1      45.004   3.716   8.744  0.00  0.00    +0.000 A 
ATOM      7  C   UNL     1      45.744   3.734   7.562  0.00  0.00    +0.000 A 
ATOM      8  C   UNL     1      46.488   2.615   7.185  0.00  0.00    +0.000 A 
ATOM      9  H   UNL     1      44.210   1.514  11.050  0.00  0.00    +0.000 HD
BRANCH   8  10
ATOM     10  C   UNL     1      47.255   2.699   5.915  0.00  0.00    +0.000 C 
ATOM     11  N   UNL     1      48.598   2.460   5.935  0.00  0.00    +0.000 N 
ATOM     12  O   UNL     1      46.699   2.967   4.854  0.00  0.00    +0.000 OA
ATOM     13  H   UNL     1      49.091   2.209   6.784  0.00  0.00    +0.000 HD
ATOM     14  H   UNL     1      49.103   2.499   5.060  0.00  0.00    +0.000 HD
ENDBRANCH   8  10
BRANCH   2  16
ATOM     15  C   UNL     1      46.421  -0.710   7.392  0.00  0.00    +0.000 C 
ATOM     16  O   UNL     1      47.222   0.412   7.760  0.00  0.00    +0.000 OA
ENDBRANCH   2  16
ENDBRANCH   1   5
BRANCH   1  17
ATOM     17  C   UNL     1      44.147   4.694  11.645  0.00  0.00    +0.000 A 
ATOM     18  C   UNL     1      43.862   5.971  11.161  0.00  0.00    +0.000 A 
ATOM     19  C   UNL     1      44.565   7.045  11.685  0.00  0.00    +0.000 A 
ATOM     20  N   UNL     1      45.518   6.936  12.641  0.00  0.00    +0.000 NA
ATOM     21  C   UNL     1      45.808   5.695  13.101  0.00  0.00    +0.000 A 
ATOM     22  C   UNL     1      45.135   4.566  12.628  0.00  0.00    +0.000 A 
BRANCH  21  23
ATOM     23  C   UNL     1      46.848   5.603  14.145  0.00  0.00    +0.000 A 
ATOM     24  C   UNL     1      47.844   6.581  14.274  0.00  0.00    +0.000 A 
ATOM     25  C   UNL     1      48.835   6.425  15.227  0.00  0.00    +0.000 A 
ATOM     26  N   UNL     1      48.907   5.373  16.063  0.00  0.00    +0.000 NA
ATOM     27  C   UNL     1      47.933   4.423  15.970  0.00  0.00    +0.000 A 
ATOM     28  C   UNL     1      46.898   4.518  15.034  0.00  0.00    +0.000 A 
BRANCH  27  29
ATOM     29  C   UNL     1      47.989   3.216  16.895  0.00  0.00    +0.000 C 
ATOM     30  F   UNL     1      46.775   2.821  17.378  0.00  0.00    +0.000 F 
ATOM     31  F   UNL     1      48.522   2.112  16.292  0.00  0.00    +0.000 F 
ATOM     32  F   UNL     1      48.765   3.439  17.998  0.00  0.00    +0.000 F 
ENDBRANCH  27  29
ENDBRANCH  21  23
ENDBRANCH   1  17
TORSDOF 6
ENDMDL
MODEL 2
REMARK VINA RESULT:    -7.629      4.802      8.952
REMARK INTER + INTRA:         -11.284
REMARK INTER:                 -10.198
REMARK INTRA:                  -1.086
REMARK UNBOUND:                -0.979
REMARK  Name = 
REMARK  7 active torsions:
REMARK  status: ('A' for Active; 'I' for Inactive)
REMARK    1  A    between atoms: C_1  and  O_2
REMARK    2  A    between atoms: O_2  and  C_3
REMARK    3  A    between atoms: N_6  and  C_7
REMARK    4  A    between atoms: C_7  and  C_8
REMARK    5  A    between atoms: C_12  and  C_13
REMARK    6  A    between atoms: C_17  and  C_18
REMARK    7  A    between atoms: C_26  and  C_27
REMARK                            x       y       z     vdW  Elec       q    Type
REMARK                         _______ _______ _______ _____ _____    ______ ____
ROOT
ATOM      1  C   UNL     1      48.235   7.774  14.320  0.00  0.00    +0.000 C 
ENDROOT
BRANCH   1   5
ATOM      2  C   UNL     1      49.134   4.362  17.584  0.00  0.00    +0.000 A 
ATOM      3  N   UNL     1      48.940   4.782  16.303  0.00  0.00    +0.000 NA
ATOM      4  C   UNL     1      48.677   6.084  16.080  0.00  0.00    +0.000 A 
ATOM      5  N   UNL     1      48.459   6.424  14.770  0.00  0.00    +0.000 N 
ATOM      6  C   UNL     1      48.603   6.988  17.130  0.00  0.00    +0.000 A 
ATOM      7  C   UNL     1      48.855   6.558  18.433  0.00  0.00    +0.000 A 
ATOM      8  C   UNL     1      49.140   5.215  18.683  0.00  0.00    +0.000 A 
ATOM      9  H   UNL     1      48.716   5.701  14.109  0.00  0.00    +0.000 HD
BRANCH   8  10
ATOM     10  C   UNL     1      49.398   4.821  20.092  0.00  0.00    +0.000 C 
ATOM     11  N   UNL     1      48.592   3.888  20.677  0.00  0.00    +0.000 N 
ATOM     12  O   UNL     1      50.326   5.311  20.728  0.00  0.00    +0.000 OA
ATOM     13  H   UNL     1      47.832   3.439  20.180  0.00  0.00    +0.000 HD
ATOM     14  H   UNL     1      48.793   3.614  21.629  0.00  0.00    +0.000 HD
ENDBRANCH   8  10
BRANCH   2  16
ATOM     15  C   UNL     1      50.650   2.605  17.341  0.00  0.00    +0.000 C 
ATOM     16  O   UNL     1      49.354   3.011  17.777  0.00  0.00    +0.000 OA
ENDBRANCH   2  16
ENDBRANCH   1   5
BRANCH   1  17
ATOM     17  C   UNL     1      47.042   7.857  13.404  0.00  0.00    +0.000 A 
ATOM     18  C   UNL     1      46.477   9.079  13.039  0.00  0.00    +0.000 A 
ATOM     19  C   UNL     1      45.423   9.075  12.139  0.00  0.00    +0.000 A 
ATOM     20  N   UNL     1      44.901   7.953  11.586  0.00  0.00    +0.000 NA
ATOM     21  C   UNL     1      45.437   6.764  11.952  0.00  0.00    +0.000 A 
ATOM     22  C   UNL     1      46.506   6.690  12.848  0.00  0.00    +0.000 A 
BRANCH  21  23
ATOM     23  C   UNL     1      44.852   5.557  11.334  0.00  0.00    +0.000 A 
ATOM     24  C   UNL     1      43.803   4.857  11.946  0.00  0.00    +0.000 A 
ATOM     25  C   UNL     1      43.325   3.697  11.364  0.00  0.00    +0.000 A 
ATOM     26  N   UNL     1      43.807   3.184  10.217  0.00  0.00    +0.000 NA
ATOM     27  C   UNL     1      44.811   3.864   9.593  0.00  0.00    +0.000 A 
ATOM     28  C   UNL     1      45.340   5.047  10.122  0.00  0.00    +0.000 A 
BRANCH  27  29
ATOM     29  C   UNL     1      45.386   3.308   8.298  0.00  0.00    +0.000 C 
ATOM     30  F   UNL     1      44.495   3.248   7.266  0.00  0.00    +0.000 F 
ATOM     31  F   UNL     1      46.441   4.039   7.831  0.00  0.00    +0.000 F 
ATOM     32  F   UNL     1      45.861   2.035   8.443  0.00  0.00    +0.000 F 
ENDBRANCH  27  29
ENDBRANCH  21  23
ENDBRANCH   1  17
TORSDOF 6
ENDMDL
MODEL 3
REMARK VINA RESULT:    -7.439      2.147      3.982
REMARK INTER + INTRA:         -11.027
REMARK INTER:                  -9.836
REMARK INTRA:                  -1.191
REMARK UNBOUND:                -0.979
REMARK  Name = 
REMARK  7 active torsions:
REMARK  status: ('A' for Active; 'I' for Inactive)
REMARK    1  A    between atoms: C_1  and  O_2
REMARK    2  A    between atoms: O_2  and  C_3
REMARK    3  A    between atoms: N_6  and  C_7
REMARK    4  A    between atoms: C_7  and  C_8
REMARK    5  A    between atoms: C_12  and  C_13
REMARK    6  A    between atoms: C_17  and  C_18
REMARK    7  A    between atoms: C_26  and  C_27
REMARK                            x       y       z     vdW  Elec       q    Type
REMARK                         _______ _______ _______ _____ _____    ______ ____
ROOT
ATOM      1  C   UNL     1      45.683   8.503  12.482  0.00  0.00    +0.000 C 
ENDROOT
BRANCH   1   5
ATOM      2  C   UNL     1      43.973   4.294  10.917  0.00  0.00    +0.000 A 
ATOM      3  N   UNL     1      43.987   5.338  11.791  0.00  0.00    +0.000 NA
ATOM      4  C   UNL     1      44.881   6.327  11.606  0.00  0.00    +0.000 A 
ATOM      5  N   UNL     1      44.857   7.325  12.546  0.00  0.00    +0.000 N 
ATOM      6  C   UNL     1      45.776   6.293  10.546  0.00  0.00    +0.000 A 
ATOM      7  C   UNL     1      45.719   5.245   9.626  0.00  0.00    +0.000 A 
ATOM      8  C   UNL     1      44.791   4.216   9.795  0.00  0.00    +0.000 A 
ATOM      9  H   UNL     1      44.046   7.303  13.150  0.00  0.00    +0.000 HD
BRANCH   8  10
ATOM     10  C   UNL     1      44.782   3.129   8.782  0.00  0.00    +0.000 C 
ATOM     11  N   UNL     1      44.849   1.833   9.200  0.00  0.00    +0.000 N 
ATOM     12  O   UNL     1      44.704   3.381   7.583  0.00  0.00    +0.000 OA
ATOM     13  H   UNL     1      44.888   1.580  10.180  0.00  0.00    +0.000 HD
ATOM     14  H   UNL     1      44.820   1.103   8.500  0.00  0.00    +0.000 HD
ENDBRANCH   8  10
BRANCH   2  16
ATOM     15  C   UNL     1      43.423   2.519  12.328  0.00  0.00    +0.000 C 
ATOM     16  O   UNL     1      43.074   3.273  11.168  0.00  0.00    +0.000 OA
ENDBRANCH   2  16
ENDBRANCH   1   5
BRANCH   1  17
ATOM     17  C   UNL     1      47.106   8.200  12.874  0.00  0.00    +0.000 A 
ATOM     18  C   UNL     1      48.190   8.660  12.128  0.00  0.00    +0.000 A 
ATOM     19  C   UNL     1      49.469   8.396  12.593  0.00  0.00    +0.000 A 
ATOM     20  N   UNL     1      49.738   7.713  13.732  0.00  0.00    +0.000 NA
ATOM     21  C   UNL     1      48.686   7.250  14.450  0.00  0.00    +0.000 A 
ATOM     22  C   UNL     1      47.369   7.485  14.049  0.00  0.00    +0.000 A 
BRANCH  21  23
ATOM     23  C   UNL     1      49.005   6.511  15.688  0.00  0.00    +0.000 A 
ATOM     24  C   UNL     1      49.996   6.957  16.572  0.00  0.00    +0.000 A 
ATOM     25  C   UNL     1      50.305   6.203  17.690  0.00  0.00    +0.000 A 
ATOM     26  N   UNL     1      49.699   5.041  17.996  0.00  0.00    +0.000 NA
ATOM     27  C   UNL     1      48.715   4.601  17.161  0.00  0.00    +0.000 A 
ATOM     28  C   UNL     1      48.346   5.315  16.015  0.00  0.00    +0.000 A 
BRANCH  27  29
ATOM     29  C   UNL     1      48.015   3.286  17.473  0.00  0.00    +0.000 C 
ATOM     30  F   UNL     1      48.202   2.838  18.748  0.00  0.00    +0.000 F 
ATOM     31  F   UNL     1      46.661   3.355  17.302  0.00  0.00    +0.000 F 
ATOM     32  F   UNL     1      48.433   2.268  16.663  0.00  0.00    +0.000 F 
ENDBRANCH  27  29
ENDBRANCH  21  23
ENDBRANCH   1  17
TORSDOF 6
ENDMDL
MODEL 4
REMARK VINA RESULT:    -7.438      4.811      8.716
REMARK INTER + INTRA:         -11.025
REMARK INTER:                 -10.033
REMARK INTRA:                  -0.993
REMARK UNBOUND:                -0.979
REMARK  Name = 
REMARK  7 active torsions:
REMARK  status: ('A' for Active; 'I' for Inactive)
REMARK    1  A    between atoms: C_1  and  O_2
REMARK    2  A    between atoms: O_2  and  C_3
REMARK    3  A    between atoms: N_6  and  C_7
REMARK    4  A    between atoms: C_7  and  C_8
REMARK    5  A    between atoms: C_12  and  C_13
REMARK    6  A    between atoms: C_17  and  C_18
REMARK    7  A    between atoms: C_26  and  C_27
REMARK                            x       y       z     vdW  Elec       q    Type
REMARK                         _______ _______ _______ _____ _____    ______ ____
ROOT
ATOM      1  C   UNL     1      48.036   7.934  14.265  0.00  0.00    +0.000 C 
ENDROOT
BRANCH   1   5
ATOM      2  C   UNL     1      49.686   4.642  17.355  0.00  0.00    +0.000 A 
ATOM      3  N   UNL     1      48.698   5.193  16.596  0.00  0.00    +0.000 NA
ATOM      4  C   UNL     1      48.977   6.292  15.868  0.00  0.00    +0.000 A 
ATOM      5  N   UNL     1      47.924   6.809  15.158  0.00  0.00    +0.000 N 
ATOM      6  C   UNL     1      50.243   6.859  15.884  0.00  0.00    +0.000 A 
ATOM      7  C   UNL     1      51.261   6.256  16.624  0.00  0.00    +0.000 A 
ATOM      8  C   UNL     1      50.996   5.111  17.376  0.00  0.00    +0.000 A 
ATOM      9  H   UNL     1      47.120   6.195  15.107  0.00  0.00    +0.000 HD
BRANCH   8  10
ATOM     10  C   UNL     1      52.122   4.518  18.142  0.00  0.00    +0.000 C 
ATOM     11  N   UNL     1      51.889   4.034  19.396  0.00  0.00    +0.000 N 
ATOM     12  O   UNL     1      53.249   4.449  17.661  0.00  0.00    +0.000 OA
ATOM     13  H   UNL     1      50.969   4.047  19.820  0.00  0.00    +0.000 HD
ATOM     14  H   UNL     1      52.660   3.614  19.897  0.00  0.00    +0.000 HD
ENDBRANCH   8  10
BRANCH   2  16
ATOM     15  C   UNL     1      48.200   2.864  17.625  0.00  0.00    +0.000 C 
ATOM     16  O   UNL     1      49.350   3.545  18.126  0.00  0.00    +0.000 OA
ENDBRANCH   2  16
ENDBRANCH   1   5
BRANCH   1  17
ATOM     17  C   UNL     1      46.887   7.981  13.292  0.00  0.00    +0.000 A 
ATOM     18  C   UNL     1      46.296   9.184  12.908  0.00  0.00    +0.000 A 
ATOM     19  C   UNL     1      45.289   9.148  11.956  0.00  0.00    +0.000 A 
ATOM     20  N   UNL     1      44.837   8.013  11.371  0.00  0.00    +0.000 NA
ATOM     21  C   UNL     1      45.398   6.841  11.755  0.00  0.00    +0.000 A 
ATOM     22  C   UNL     1      46.424   6.799  12.702  0.00  0.00    +0.000 A 
BRANCH  21  23
ATOM     23  C   UNL     1      44.889   5.618  11.102  0.00  0.00    +0.000 A 
ATOM     24  C   UNL     1      43.832   4.880  11.652  0.00  0.00    +0.000 A 
ATOM     25  C   UNL     1      43.427   3.707  11.040  0.00  0.00    +0.000 A 
ATOM     26  N   UNL     1      43.989   3.218   9.920  0.00  0.00    +0.000 NA
ATOM     27  C   UNL     1      45.002   3.934   9.355  0.00  0.00    +0.000 A 
ATOM     28  C   UNL     1      45.461   5.131   9.916  0.00  0.00    +0.000 A 
BRANCH  27  29
ATOM     29  C   UNL     1      45.667   3.405   8.092  0.00  0.00    +0.000 C 
ATOM     30  F   UNL     1      46.665   4.198   7.606  0.00  0.00    +0.000 F 
ATOM     31  F   UNL     1      46.229   2.172   8.268  0.00  0.00    +0.000 F 
ATOM     32  F   UNL     1      44.783   3.258   7.060  0.00  0.00    +0.000 F 
ENDBRANCH  27  29
ENDBRANCH  21  23
ENDBRANCH   1  17
TORSDOF 6
ENDMDL
MODEL 5
REMARK VINA RESULT:    -7.088      5.046      9.020
REMARK INTER + INTRA:         -10.553
REMARK INTER:                  -9.329
REMARK INTRA:                  -1.223
REMARK UNBOUND:                -0.979
REMARK  Name = 
REMARK  7 active torsions:
REMARK  status: ('A' for Active; 'I' for Inactive)
REMARK    1  A    between atoms: C_1  and  O_2
REMARK    2  A    between atoms: O_2  and  C_3
REMARK    3  A    between atoms: N_6  and  C_7
REMARK    4  A    between atoms: C_7  and  C_8
REMARK    5  A    between atoms: C_12  and  C_13
REMARK    6  A    between atoms: C_17  and  C_18
REMARK    7  A    between atoms: C_26  and  C_27
REMARK                            x       y       z     vdW  Elec       q    Type
REMARK                         _______ _______ _______ _____ _____    ______ ____
ROOT
ATOM      1  C   UNL     1      48.622   8.135  13.002  0.00  0.00    +0.000 C 
ENDROOT
BRANCH   1   5
ATOM      2  C   UNL     1      48.587   7.595  17.777  0.00  0.00    +0.000 A 
ATOM      3  N   UNL     1      48.609   8.362  16.652  0.00  0.00    +0.000 NA
ATOM      4  C   UNL     1      48.619   7.752  15.452  0.00  0.00    +0.000 A 
ATOM      5  N   UNL     1      48.676   8.590  14.367  0.00  0.00    +0.000 N 
ATOM      6  C   UNL     1      48.607   6.369  15.352  0.00  0.00    +0.000 A 
ATOM      7  C   UNL     1      48.532   5.593  16.509  0.00  0.00    +0.000 A 
ATOM      8  C   UNL     1      48.509   6.206  17.763  0.00  0.00    +0.000 A 
ATOM      9  H   UNL     1      48.504   9.562  14.588  0.00  0.00    +0.000 HD
BRANCH   8  10
ATOM     10  C   UNL     1      48.430   5.324  18.956  0.00  0.00    +0.000 C 
ATOM     11  N   UNL     1      47.419   5.511  19.852  0.00  0.00    +0.000 N 
ATOM     12  O   UNL     1      49.251   4.430  19.138  0.00  0.00    +0.000 OA
ATOM     13  H   UNL     1      46.706   6.219  19.726  0.00  0.00    +0.000 HD
ATOM     14  H   UNL     1      47.366   4.889  20.648  0.00  0.00    +0.000 HD
ENDBRANCH   8  10
BRANCH   2  16
ATOM     15  C   UNL     1      47.697   9.336  19.050  0.00  0.00    +0.000 C 
ATOM     16  O   UNL     1      48.627   8.256  18.991  0.00  0.00    +0.000 OA
ENDBRANCH   2  16
ENDBRANCH   1   5
BRANCH   1  17
ATOM     17  C   UNL     1      47.200   8.016  12.517  0.00  0.00    +0.000 A 
ATOM     18  C   UNL     1      46.431   9.138  12.209  0.00  0.00    +0.000 A 
ATOM     19  C   UNL     1      45.155   8.942  11.704  0.00  0.00    +0.000 A 
ATOM     20  N   UNL     1      44.601   7.725  11.489  0.00  0.00    +0.000 NA
ATOM     21  C   UNL     1      45.340   6.634  11.803  0.00  0.00    +0.000 A 
ATOM     22  C   UNL     1      46.638   6.752  12.308  0.00  0.00    +0.000 A 
BRANCH  21  23
ATOM     23  C   UNL     1      44.715   5.318  11.558  0.00  0.00    +0.000 A 
ATOM     24  C   UNL     1      43.833   4.743  12.483  0.00  0.00    +0.000 A 
ATOM     25  C   UNL     1      43.317   3.483  12.242  0.00  0.00    +0.000 A 
ATOM     26  N   UNL     1      43.608   2.754  11.149  0.00  0.00    +0.000 NA
ATOM     27  C   UNL     1      44.445   3.306  10.225  0.00  0.00    +0.000 A 
ATOM     28  C   UNL     1      45.001   4.578  10.400  0.00  0.00    +0.000 A 
BRANCH  27  29
ATOM     29  C   UNL     1      44.803   2.505   8.981  0.00  0.00    +0.000 C 
ATOM     30  F   UNL     1      44.474   3.115   7.805  0.00  0.00    +0.000 F 
ATOM     31  F   UNL     1      46.139   2.234   8.894  0.00  0.00    +0.000 F 
ATOM     32  F   UNL     1      44.181   1.289   8.947  0.00  0.00    +0.000 F 
ENDBRANCH  27  29
ENDBRANCH  21  23
ENDBRANCH   1  17
TORSDOF 6
ENDMDL
MODEL 6
REMARK VINA RESULT:    -6.930      4.922      8.552
REMARK INTER + INTRA:         -10.340
REMARK INTER:                  -9.335
REMARK INTRA:                  -1.004
REMARK UNBOUND:                -0.979
REMARK  Name = 
REMARK  7 active torsions:
REMARK  status: ('A' for Active; 'I' for Inactive)
REMARK    1  A    between atoms: C_1  and  O_2
REMARK    2  A    between atoms: O_2  and  C_3
REMARK    3  A    between atoms: N_6  and  C_7
REMARK    4  A    between atoms: C_7  and  C_8
REMARK    5  A    between atoms: C_12  and  C_13
REMARK    6  A    between atoms: C_17  and  C_18
REMARK    7  A    between atoms: C_26  and  C_27
REMARK                            x       y       z     vdW  Elec       q    Type
REMARK                         _______ _______ _______ _____ _____    ______ ____
ROOT
ATOM      1  C   UNL     1      46.217   7.784  12.274  0.00  0.00    +0.000 C 
ENDROOT
BRANCH   1   5
ATOM      2  C   UNL     1      49.722   6.991  15.465  0.00  0.00    +0.000 A 
ATOM      3  N   UNL     1      48.445   6.841  15.017  0.00  0.00    +0.000 NA
ATOM      4  C   UNL     1      48.084   7.447  13.870  0.00  0.00    +0.000 A 
ATOM      5  N   UNL     1      46.775   7.278  13.502  0.00  0.00    +0.000 N 
ATOM      6  C   UNL     1      48.991   8.212  13.151  0.00  0.00    +0.000 A 
ATOM      7  C   UNL     1      50.310   8.318  13.591  0.00  0.00    +0.000 A 
ATOM      8  C   UNL     1      50.706   7.688  14.771  0.00  0.00    +0.000 A 
ATOM      9  H   UNL     1      46.289   6.560  14.025  0.00  0.00    +0.000 HD
BRANCH   8  10
ATOM     10  C   UNL     1      52.125   7.839  15.186  0.00  0.00    +0.000 C 
ATOM     11  N   UNL     1      52.816   6.738  15.598  0.00  0.00    +0.000 N 
ATOM     12  O   UNL     1      52.682   8.933  15.153  0.00  0.00    +0.000 OA
ATOM     13  H   UNL     1      52.403   5.813  15.615  0.00  0.00    +0.000 HD
ATOM     14  H   UNL     1      53.787   6.853  15.857  0.00  0.00    +0.000 HD
ENDBRANCH   8  10
BRANCH   2  16
ATOM     15  C   UNL     1      49.157   5.322  16.994  0.00  0.00    +0.000 C 
ATOM     16  O   UNL     1      50.041   6.395  16.672  0.00  0.00    +0.000 OA
ENDBRANCH   2  16
ENDBRANCH   1   5
BRANCH   1  17
ATOM     17  C   UNL     1      45.162   6.859  11.726  0.00  0.00    +0.000 A 
ATOM     18  C   UNL     1      43.802   7.086  11.935  0.00  0.00    +0.000 A 
ATOM     19  C   UNL     1      42.892   6.226  11.340  0.00  0.00    +0.000 A 
ATOM     20  N   UNL     1      43.239   5.171  10.564  0.00  0.00    +0.000 NA
ATOM     21  C   UNL     1      44.560   4.939  10.373  0.00  0.00    +0.000 A 
ATOM     22  C   UNL     1      45.535   5.768  10.933  0.00  0.00    +0.000 A 
BRANCH  21  23
ATOM     23  C   UNL     1      44.912   3.785   9.522  0.00  0.00    +0.000 A 
ATOM     24  C   UNL     1      44.466   2.490   9.823  0.00  0.00    +0.000 A 
ATOM     25  C   UNL     1      44.869   1.428   9.033  0.00  0.00    +0.000 A 
ATOM     26  N   UNL     1      45.677   1.558   7.965  0.00  0.00    +0.000 NA
ATOM     27  C   UNL     1      46.102   2.812   7.641  0.00  0.00    +0.000 A 
ATOM     28  C   UNL     1      45.730   3.933   8.392  0.00  0.00    +0.000 A 
BRANCH  27  29
ATOM     29  C   UNL     1      47.025   2.993   6.444  0.00  0.00    +0.000 C 
ATOM     30  F   UNL     1      46.832   2.086   5.443  0.00  0.00    +0.000 F 
ATOM     31  F   UNL     1      46.895   4.221   5.859  0.00  0.00    +0.000 F 
ATOM     32  F   UNL     1      48.344   2.888   6.782  0.00  0.00    +0.000 F 
ENDBRANCH  27  29
ENDBRANCH  21  23
ENDBRANCH   1  17
TORSDOF 6
ENDMDL
MODEL 7
REMARK VINA RESULT:    -6.828      2.922      5.370
REMARK INTER + INTRA:         -10.202
REMARK INTER:                  -9.073
REMARK INTRA:                  -1.129
REMARK UNBOUND:                -0.979
REMARK  Name = 
REMARK  7 active torsions:
REMARK  status: ('A' for Active; 'I' for Inactive)
REMARK    1  A    between atoms: C_1  and  O_2
REMARK    2  A    between atoms: O_2  and  C_3
REMARK    3  A    between atoms: N_6  and  C_7
REMARK    4  A    between atoms: C_7  and  C_8
REMARK    5  A    between atoms: C_12  and  C_13
REMARK    6  A    between atoms: C_17  and  C_18
REMARK    7  A    between atoms: C_26  and  C_27
REMARK                            x       y       z     vdW  Elec       q    Type
REMARK                         _______ _______ _______ _____ _____    ______ ____
ROOT
ATOM      1  C   UNL     1      47.433   9.251  13.283  0.00  0.00    +0.000 C 
ENDROOT
BRANCH   1   5
ATOM      2  C   UNL     1      44.454   5.663  12.118  0.00  0.00    +0.000 A 
ATOM      3  N   UNL     1      44.827   6.713  12.902  0.00  0.00    +0.000 NA
ATOM      4  C   UNL     1      45.968   7.366  12.612  0.00  0.00    +0.000 A 
ATOM      5  N   UNL     1      46.294   8.388  13.465  0.00  0.00    +0.000 N 
ATOM      6  C   UNL     1      46.756   6.984  11.536  0.00  0.00    +0.000 A 
ATOM      7  C   UNL     1      46.340   5.941  10.709  0.00  0.00    +0.000 A 
ATOM      8  C   UNL     1      45.154   5.259  10.986  0.00  0.00    +0.000 A 
ATOM      9  H   UNL     1      45.545   8.658  14.090  0.00  0.00    +0.000 HD
BRANCH   8  10
ATOM     10  C   UNL     1      44.766   4.157  10.068  0.00  0.00    +0.000 C 
ATOM     11  N   UNL     1      44.103   4.458   8.915  0.00  0.00    +0.000 N 
ATOM     12  O   UNL     1      45.043   2.989  10.327  0.00  0.00    +0.000 OA
ATOM     13  H   UNL     1      43.879   5.409   8.650  0.00  0.00    +0.000 HD
ATOM     14  H   UNL     1      43.865   3.699   8.290  0.00  0.00    +0.000 HD
ENDBRANCH   8  10
BRANCH   2  16
ATOM     15  C   UNL     1      42.135   5.556  11.887  0.00  0.00    +0.000 C 
ATOM     16  O   UNL     1      43.303   4.987  12.477  0.00  0.00    +0.000 OA
ENDBRANCH   2  16
ENDBRANCH   1   5
BRANCH   1  17
ATOM     17  C   UNL     1      48.452   9.055  14.375  0.00  0.00    +0.000 A 
ATOM     18  C   UNL     1      49.379  10.043  14.704  0.00  0.00    +0.000 A 
ATOM     19  C   UNL     1      50.238   9.812  15.767  0.00  0.00    +0.000 A 
ATOM     20  N   UNL     1      50.238   8.681  16.512  0.00  0.00    +0.000 NA
ATOM     21  C   UNL     1      49.350   7.712  16.184  0.00  0.00    +0.000 A 
ATOM     22  C   UNL     1      48.446   7.877  15.131  0.00  0.00    +0.000 A 
BRANCH  21  23
ATOM     23  C   UNL     1      49.369   6.490  17.012  0.00  0.00    +0.000 A 
ATOM     24  C   UNL     1      50.018   6.457  18.254  0.00  0.00    +0.000 A 
ATOM     25  C   UNL     1      50.063   5.274  18.970  0.00  0.00    +0.000 A 
ATOM     26  N   UNL     1      49.507   4.125  18.547  0.00  0.00    +0.000 NA
ATOM     27  C   UNL     1      48.849   4.141  17.353  0.00  0.00    +0.000 A 
ATOM     28  C   UNL     1      48.759   5.303  16.577  0.00  0.00    +0.000 A 
BRANCH  27  29
ATOM     29  C   UNL     1      48.216   2.856  16.840  0.00  0.00    +0.000 C 
ATOM     30  F   UNL     1      47.673   2.955  15.592  0.00  0.00    +0.000 F 
ATOM     31  F   UNL     1      49.104   1.820  16.774  0.00  0.00    +0.000 F 
ATOM     32  F   UNL     1      47.203   2.417  17.645  0.00  0.00    +0.000 F 
ENDBRANCH  27  29
ENDBRANCH  21  23
ENDBRANCH   1  17
TORSDOF 6
ENDMDL
MODEL 8
REMARK VINA RESULT:    -6.802      4.869      6.291
REMARK INTER + INTRA:         -10.168
REMARK INTER:                  -9.116
REMARK INTRA:                  -1.052
REMARK UNBOUND:                -0.979
REMARK  Name = 
REMARK  7 active torsions:
REMARK  status: ('A' for Active; 'I' for Inactive)
REMARK    1  A    between atoms: C_1  and  O_2
REMARK    2  A    between atoms: O_2  and  C_3
REMARK    3  A    between atoms: N_6  and  C_7
REMARK    4  A    between atoms: C_7  and  C_8
REMARK    5  A    between atoms: C_12  and  C_13
REMARK    6  A    between atoms: C_17  and  C_18
REMARK    7  A    between atoms: C_26  and  C_27
REMARK                            x       y       z     vdW  Elec       q    Type
REMARK                         _______ _______ _______ _____ _____    ______ ____
ROOT
ATOM      1  C   UNL     1      45.714   8.469  12.413  0.00  0.00    +0.000 C 
ENDROOT
BRANCH   1   5
ATOM      2  C   UNL     1      43.968   4.263  10.875  0.00  0.00    +0.000 A 
ATOM      3  N   UNL     1      43.985   5.317  11.738  0.00  0.00    +0.000 NA
ATOM      4  C   UNL     1      44.895   6.293  11.552  0.00  0.00    +0.000 A 
ATOM      5  N   UNL     1      44.872   7.302  12.480  0.00  0.00    +0.000 N 
ATOM      6  C   UNL     1      45.801   6.235  10.504  0.00  0.00    +0.000 A 
ATOM      7  C   UNL     1      45.742   5.177   9.595  0.00  0.00    +0.000 A 
ATOM      8  C   UNL     1      44.799   4.162   9.765  0.00  0.00    +0.000 A 
ATOM      9  H   UNL     1      44.053   7.297  13.075  0.00  0.00    +0.000 HD
BRANCH   8  10
ATOM     10  C   UNL     1      44.788   3.064   8.764  0.00  0.00    +0.000 C 
ATOM     11  N   UNL     1      45.044   1.789   9.176  0.00  0.00    +0.000 N 
ATOM     12  O   UNL     1      44.542   3.285   7.582  0.00  0.00    +0.000 OA
ATOM     13  H   UNL     1      45.225   1.559  10.146  0.00  0.00    +0.000 HD
ATOM     14  H   UNL     1      45.012   1.049   8.488  0.00  0.00    +0.000 HD
ENDBRANCH   8  10
BRANCH   2  16
ATOM     15  C   UNL     1      43.422   2.460  12.252  0.00  0.00    +0.000 C 
ATOM     16  O   UNL     1      43.053   3.258  11.128  0.00  0.00    +0.000 OA
ENDBRANCH   2  16
ENDBRANCH   1   5
BRANCH   1  17
ATOM     17  C   UNL     1      47.136   8.144  12.792  0.00  0.00    +0.000 A 
ATOM     18  C   UNL     1      47.448   7.469  13.972  0.00  0.00    +0.000 A 
ATOM     19  C   UNL     1      48.775   7.148  14.215  0.00  0.00    +0.000 A 
ATOM     20  N   UNL     1      49.795   7.449  13.376  0.00  0.00    +0.000 NA
ATOM     21  C   UNL     1      49.496   8.119  12.238  0.00  0.00    +0.000 A 
ATOM     22  C   UNL     1      48.181   8.469  11.920  0.00  0.00    +0.000 A 
BRANCH  21  23
ATOM     23  C   UNL     1      50.626   8.434  11.339  0.00  0.00    +0.000 A 
ATOM     24  C   UNL     1      50.992   9.757  11.059  0.00  0.00    +0.000 A 
ATOM     25  C   UNL     1      52.017  10.008  10.165  0.00  0.00    +0.000 A 
ATOM     26  N   UNL     1      52.708   9.042   9.534  0.00  0.00    +0.000 NA
ATOM     27  C   UNL     1      52.384   7.747   9.811  0.00  0.00    +0.000 A 
ATOM     28  C   UNL     1      51.362   7.419  10.708  0.00  0.00    +0.000 A 
BRANCH  27  29
ATOM     29  C   UNL     1      53.140   6.630   9.107  0.00  0.00    +0.000 C 
ATOM     30  F   UNL     1      52.582   6.229   7.927  0.00  0.00    +0.000 F 
ATOM     31  F   UNL     1      54.428   6.971   8.807  0.00  0.00    +0.000 F 
ATOM     32  F   UNL     1      53.231   5.500   9.870  0.00  0.00    +0.000 F 
ENDBRANCH  27  29
ENDBRANCH  21  23
ENDBRANCH   1  17
TORSDOF 6
ENDMDL
MODEL 9
REMARK VINA RESULT:    -6.734      5.681      7.758
REMARK INTER + INTRA:         -10.075
REMARK INTER:                  -8.833
REMARK INTRA:                  -1.241
REMARK UNBOUND:                -0.979
REMARK  Name = 
REMARK  7 active torsions:
REMARK  status: ('A' for Active; 'I' for Inactive)
REMARK    1  A    between atoms: C_1  and  O_2
REMARK    2  A    between atoms: O_2  and  C_3
REMARK    3  A    between atoms: N_6  and  C_7
REMARK    4  A    between atoms: C_7  and  C_8
REMARK    5  A    between atoms: C_12  and  C_13
REMARK    6  A    between atoms: C_17  and  C_18
REMARK    7  A    between atoms: C_26  and  C_27
REMARK                            x       y       z     vdW  Elec       q    Type
REMARK                         _______ _______ _______ _____ _____    ______ ____
ROOT
ATOM      1  C   UNL     1      49.005   7.929  13.293  0.00  0.00    +0.000 C 
ENDROOT
BRANCH   1   5
ATOM      2  C   UNL     1      52.284   7.857   9.779  0.00  0.00    +0.000 A 
ATOM      3  N   UNL     1      51.414   7.241  10.627  0.00  0.00    +0.000 NA
ATOM      4  C   UNL     1      50.716   7.994  11.498  0.00  0.00    +0.000 A 
ATOM      5  N   UNL     1      49.887   7.300  12.342  0.00  0.00    +0.000 N 
ATOM      6  C   UNL     1      50.872   9.372  11.538  0.00  0.00    +0.000 A 
ATOM      7  C   UNL     1      51.726   9.998  10.630  0.00  0.00    +0.000 A 
ATOM      8  C   UNL     1      52.450   9.236   9.712  0.00  0.00    +0.000 A 
ATOM      9  H   UNL     1      49.749   6.332  12.081  0.00  0.00    +0.000 HD
BRANCH   8  10
ATOM     10  C   UNL     1      53.344   9.962   8.773  0.00  0.00    +0.000 C 
ATOM     11  N   UNL     1      53.446   9.526   7.484  0.00  0.00    +0.000 N 
ATOM     12  O   UNL     1      53.978  10.949   9.136  0.00  0.00    +0.000 OA
ATOM     13  H   UNL     1      52.921   8.733   7.137  0.00  0.00    +0.000 HD
ATOM     14  H   UNL     1      54.041  10.043   6.851  0.00  0.00    +0.000 HD
ENDBRANCH   8  10
BRANCH   2  16
ATOM     15  C   UNL     1      53.555   5.908   9.607  0.00  0.00    +0.000 C 
ATOM     16  O   UNL     1      53.019   7.046   8.933  0.00  0.00    +0.000 OA
ENDBRANCH   2  16
ENDBRANCH   1   5
BRANCH   1  17
ATOM     17  C   UNL     1      47.590   7.982  12.778  0.00  0.00    +0.000 A 
ATOM     18  C   UNL     1      46.837   9.155  12.815  0.00  0.00    +0.000 A 
ATOM     19  C   UNL     1      45.566   9.139  12.260  0.00  0.00    +0.000 A 
ATOM     20  N   UNL     1      45.004   8.051  11.682  0.00  0.00    +0.000 NA
ATOM     21  C   UNL     1      45.727   6.906  11.660  0.00  0.00    +0.000 A 
ATOM     22  C   UNL     1      47.018   6.848  12.192  0.00  0.00    +0.000 A 
BRANCH  21  23
ATOM     23  C   UNL     1      45.092   5.734  11.023  0.00  0.00    +0.000 A 
ATOM     24  C   UNL     1      43.959   5.124  11.577  0.00  0.00    +0.000 A 
ATOM     25  C   UNL     1      43.432   3.992  10.981  0.00  0.00    +0.000 A 
ATOM     26  N   UNL     1      43.944   3.426   9.873  0.00  0.00    +0.000 NA
ATOM     27  C   UNL     1      45.032   4.019   9.304  0.00  0.00    +0.000 A 
ATOM     28  C   UNL     1      45.615   5.169   9.850  0.00  0.00    +0.000 A 
BRANCH  27  29
ATOM     29  C   UNL     1      45.642   3.399   8.055  0.00  0.00    +0.000 C 
ATOM     30  F   UNL     1      46.143   2.143   8.237  0.00  0.00    +0.000 F 
ATOM     31  F   UNL     1      44.748   3.294   7.027  0.00  0.00    +0.000 F 
ATOM     32  F   UNL     1      46.680   4.138   7.561  0.00  0.00    +0.000 F 
ENDBRANCH  27  29
ENDBRANCH  21  23
ENDBRANCH   1  17
TORSDOF 6
ENDMDL
