MODEL 1
REMARK VINA RESULT:    -7.630      0.000      0.000
REMARK INTER + INTRA:         -10.296
REMARK INTER:                  -9.861
REMARK INTRA:                  -0.435
REMARK UNBOUND:                -0.435
REMARK  Name = 
REMARK  6 active torsions:
REMARK  status: ('A' for Active; 'I' for Inactive)
REMARK    1  A    between atoms: N_1  and  C_2
REMARK    2  A    between atoms: C_2  and  C_3
REMARK    3  A    between atoms: C_3  and  C_4
REMARK    4  A    between atoms: C_7  and  C_8
REMARK    5  A    between atoms: C_8  and  N_9
REMARK    6  A    between atoms: C_14  and  N_15
REMARK                            x       y       z     vdW  Elec       q    Type
REMARK                         _______ _______ _______ _____ _____    ______ ____
ROOT
ATOM      1  C   UNL     1      43.793   4.725  10.446  0.00  0.00    +0.000 C 
ENDROOT
BRANCH   1   2
ATOM      2  N   UNL     1      44.428   4.875  11.745  0.00  0.00    +0.000 N 
ATOM      3  C   UNL     1      44.070   4.189  12.874  0.00  0.00    +0.000 A 
ATOM      4  N   UNL     1      44.920   4.386  13.856  0.00  0.00    +0.000 NA
ATOM      5  C   UNL     1      45.874   5.233  13.344  0.00  0.00    +0.000 A 
ATOM      6  C   UNL     1      47.033   5.732  13.936  0.00  0.00    +0.000 A 
ATOM      7  C   UNL     1      47.819   6.560  13.150  0.00  0.00    +0.000 A 
ATOM      8  N   UNL     1      47.516   6.905  11.883  0.00  0.00    +0.000 NA
ATOM      9  C   UNL     1      46.391   6.425  11.302  0.00  0.00    +0.000 A 
ATOM     10  C   UNL     1      45.576   5.574  12.028  0.00  0.00    +0.000 A 
BRANCH   7  11
ATOM     11  N   UNL     1      49.036   7.038  13.637  0.00  0.00    +0.000 N 
ATOM     12  H   UNL     1      49.674   7.278  12.887  0.00  0.00    +0.000 HD
ATOM     13  H   UNL     1      49.413   6.321  14.251  0.00  0.00    +0.000 HD
ENDBRANCH   7  11
ENDBRANCH   1   2
BRANCH   1  17
ATOM     14  C   UNL     1      46.124   2.203   7.804  0.00  0.00    +0.000 A 
ATOM     15  C   UNL     1      45.319   1.638   8.801  0.00  0.00    +0.000 A 
ATOM     16  C   UNL     1      44.562   2.451   9.650  0.00  0.00    +0.000 A 
ATOM     17  C   UNL     1      44.587   3.845   9.515  0.00  0.00    +0.000 A 
ATOM     18  C   UNL     1      45.372   4.407   8.498  0.00  0.00    +0.000 A 
ATOM     19  C   UNL     1      46.129   3.594   7.649  0.00  0.00    +0.000 A 
BRANCH  14  20
ATOM     20  C   UNL     1      46.987   1.328   6.927  0.00  0.00    +0.000 C 
BRANCH  20  21
ATOM     21  C   UNL     1      48.303   1.998   6.524  0.00  0.00    +0.000 C 
BRANCH  21  22
ATOM     22  N   UNL     1      48.352   2.215   5.078  0.00  0.00    +0.000 NA
ATOM     23  H   UNL     1      47.989   1.392   4.598  0.00  0.00    +0.000 HD
ATOM     24  H   UNL     1      49.322   2.315   4.777  0.00  0.00    +0.000 HD
ENDBRANCH  21  22
ENDBRANCH  20  21
ENDBRANCH  14  20
ENDBRANCH   1  17
TORSDOF 6
ENDMDL
MODEL 2
REMARK VINA RESULT:    -7.507      1.254      1.866
REMARK INTER + INTRA:         -10.136
REMARK INTER:                  -9.752
REMARK INTRA:                  -0.385
REMARK UNBOUND:                -0.435
REMARK  Name = 
REMARK  6 active torsions:
REMARK  status: ('A' for Active; 'I' for Inactive)
REMARK    1  A    between atoms: N_1  and  C_2
REMARK    2  A    between atoms: C_2  and  C_3
REMARK    3  A    between atoms: C_3  and  C_4
REMARK    4  A    between atoms: C_7  and  C_8
REMARK    5  A    between atoms: C_8  and  N_9
REMARK    6  A    between atoms: C_14  and  N_15
REMARK                            x       y       z     vdW  Elec       q    Type
REMARK                         _______ _______ _______ _____ _____    ______ ____
ROOT
ATOM      1  C   UNL     1      43.883   4.832  10.438  0.00  0.00    +0.000 C 
ENDROOT
BRANCH   1   2
ATOM      2  N   UNL     1      44.763   5.556  11.341  0.00  0.00    +0.000 N 
ATOM      3  C   UNL     1      44.856   6.920  11.417  0.00  0.00    +0.000 A 
ATOM      4  N   UNL     1      45.591   7.305  12.435  0.00  0.00    +0.000 NA
ATOM      5  C   UNL     1      45.991   6.143  13.051  0.00  0.00    +0.000 A 
ATOM      6  C   UNL     1      46.749   5.963  14.207  0.00  0.00    +0.000 A 
ATOM      7  C   UNL     1      46.974   4.652  14.598  0.00  0.00    +0.000 A 
ATOM      8  N   UNL     1      46.519   3.577  13.925  0.00  0.00    +0.000 NA
ATOM      9  C   UNL     1      45.783   3.745  12.801  0.00  0.00    +0.000 A 
ATOM     10  C   UNL     1      45.505   5.030  12.371  0.00  0.00    +0.000 A 
BRANCH   7  11
ATOM     11  N   UNL     1      47.654   4.383  15.787  0.00  0.00    +0.000 N 
ATOM     12  H   UNL     1      48.370   3.677  15.660  0.00  0.00    +0.000 HD
ATOM     13  H   UNL     1      46.956   4.108  16.473  0.00  0.00    +0.000 HD
ENDBRANCH   7  11
ENDBRANCH   1   2
BRANCH   1  17
ATOM     14  C   UNL     1      46.102   2.192   7.816  0.00  0.00    +0.000 A 
ATOM     15  C   UNL     1      45.253   1.670   8.799  0.00  0.00    +0.000 A 
ATOM     16  C   UNL     1      44.532   2.521   9.643  0.00  0.00    +0.000 A 
ATOM     17  C   UNL     1      44.638   3.913   9.514  0.00  0.00    +0.000 A 
ATOM     18  C   UNL     1      45.468   4.433   8.510  0.00  0.00    +0.000 A 
ATOM     19  C   UNL     1      46.188   3.581   7.667  0.00  0.00    +0.000 A 
BRANCH  14  20
ATOM     20  C   UNL     1      46.926   1.273   6.947  0.00  0.00    +0.000 C 
BRANCH  20  21
ATOM     21  C   UNL     1      48.274   1.876   6.547  0.00  0.00    +0.000 C 
BRANCH  21  22
ATOM     22  N   UNL     1      48.377   1.997   5.092  0.00  0.00    +0.000 NA
ATOM     23  H   UNL     1      49.338   1.820   4.803  0.00  0.00    +0.000 HD
ATOM     24  H   UNL     1      48.167   2.954   4.810  0.00  0.00    +0.000 HD
ENDBRANCH  21  22
ENDBRANCH  20  21
ENDBRANCH  14  20
ENDBRANCH   1  17
TORSDOF 6
ENDMDL
MODEL 3
REMARK VINA RESULT:    -7.445      1.571      1.704
REMARK INTER + INTRA:         -10.056
REMARK INTER:                  -9.630
REMARK INTRA:                  -0.426
REMARK UNBOUND:                -0.435
REMARK  Name = 
REMARK  6 active torsions:
REMARK  status: ('A' for Active; 'I' for Inactive)
REMARK    1  A    between atoms: N_1  and  C_2
REMARK    2  A    between atoms: C_2  and  C_3
REMARK    3  A    between atoms: C_3  and  C_4
REMARK    4  A    between atoms: C_7  and  C_8
REMARK    5  A    between atoms: C_8  and  N_9
REMARK    6  A    between atoms: C_14  and  N_15
REMARK                            x       y       z     vdW  Elec       q    Type
REMARK                         _______ _______ _______ _____ _____    ______ ____
ROOT
ATOM      1  C   UNL     1      43.838   4.734  10.642  0.00  0.00    +0.000 C 
ENDROOT
BRANCH   1   2
ATOM      2  N   UNL     1      44.684   5.321  11.668  0.00  0.00    +0.000 N 
ATOM      3  C   UNL     1      45.480   4.611  12.526  0.00  0.00    +0.000 A 
ATOM      4  N   UNL     1      46.267   5.395  13.226  0.00  0.00    +0.000 NA
ATOM      5  C   UNL     1      45.975   6.670  12.804  0.00  0.00    +0.000 A 
ATOM      6  C   UNL     1      46.545   7.886  13.178  0.00  0.00    +0.000 A 
ATOM      7  C   UNL     1      46.047   9.018  12.555  0.00  0.00    +0.000 A 
ATOM      8  N   UNL     1      45.057   9.000  11.640  0.00  0.00    +0.000 NA
ATOM      9  C   UNL     1      44.498   7.823  11.273  0.00  0.00    +0.000 A 
ATOM     10  C   UNL     1      44.968   6.653  11.843  0.00  0.00    +0.000 A 
BRANCH   7  11
ATOM     11  N   UNL     1      46.615  10.267  12.811  0.00  0.00    +0.000 N 
ATOM     12  H   UNL     1      47.298  10.522  12.108  0.00  0.00    +0.000 HD
ATOM     13  H   UNL     1      47.018  10.224  13.744  0.00  0.00    +0.000 HD
ENDBRANCH   7  11
ENDBRANCH   1   2
BRANCH   1  17
ATOM     14  C   UNL     1      46.133   2.348   7.847  0.00  0.00    +0.000 A 
ATOM     15  C   UNL     1      45.316   1.734   8.804  0.00  0.00    +0.000 A 
ATOM     16  C   UNL     1      44.571   2.503   9.703  0.00  0.00    +0.000 A 
ATOM     17  C   UNL     1      44.620   3.903   9.658  0.00  0.00    +0.000 A 
ATOM     18  C   UNL     1      45.417   4.515   8.680  0.00  0.00    +0.000 A 
ATOM     19  C   UNL     1      46.162   3.745   7.782  0.00  0.00    +0.000 A 
BRANCH  14  20
ATOM     20  C   UNL     1      46.984   1.516   6.918  0.00  0.00    +0.000 C 
BRANCH  20  21
ATOM     21  C   UNL     1      48.283   2.215   6.509  0.00  0.00    +0.000 C 
BRANCH  21  22
ATOM     22  N   UNL     1      48.290   2.498   5.073  0.00  0.00    +0.000 NA
ATOM     23  H   UNL     1      48.198   3.503   4.925  0.00  0.00    +0.000 HD
ATOM     24  H   UNL     1      47.474   2.072   4.635  0.00  0.00    +0.000 HD
ENDBRANCH  21  22
ENDBRANCH  20  21
ENDBRANCH  14  20
ENDBRANCH   1  17
TORSDOF 6
ENDMDL
MODEL 4
REMARK VINA RESULT:    -6.656      1.598      1.898
REMARK INTER + INTRA:          -9.036
REMARK INTER:                  -8.578
REMARK INTRA:                  -0.459
REMARK UNBOUND:                -0.435
REMARK  Name = 
REMARK  6 active torsions:
REMARK  status: ('A' for Active; 'I' for Inactive)
REMARK    1  A    between atoms: N_1  and  C_2
REMARK    2  A    between atoms: C_2  and  C_3
REMARK    3  A    between atoms: C_3  and  C_4
REMARK    4  A    between atoms: C_7  and  C_8
REMARK    5  A    between atoms: C_8  and  N_9
REMARK    6  A    between atoms: C_14  and  N_15
REMARK                            x       y       z     vdW  Elec       q    Type
REMARK                         _______ _______ _______ _____ _____    ______ ____
ROOT
ATOM      1  C   UNL     1      44.435   5.212  11.995  0.00  0.00    +0.000 C 
ENDROOT
BRANCH   1   2
ATOM      2  N   UNL     1      45.582   5.406  12.867  0.00  0.00    +0.000 N 
ATOM      3  C   UNL     1      46.356   4.399  13.378  0.00  0.00    +0.000 A 
ATOM      4  N   UNL     1      47.424   4.863  13.985  0.00  0.00    +0.000 NA
ATOM      5  C   UNL     1      47.346   6.229  13.861  0.00  0.00    +0.000 A 
ATOM      6  C   UNL     1      48.238   7.215  14.280  0.00  0.00    +0.000 A 
ATOM      7  C   UNL     1      47.890   8.525  13.991  0.00  0.00    +0.000 A 
ATOM      8  N   UNL     1      46.756   8.879  13.354  0.00  0.00    +0.000 NA
ATOM      9  C   UNL     1      45.885   7.927  12.945  0.00  0.00    +0.000 A 
ATOM     10  C   UNL     1      46.187   6.598  13.185  0.00  0.00    +0.000 A 
BRANCH   7  11
ATOM     11  N   UNL     1      48.764   9.567  14.303  0.00  0.00    +0.000 N 
ATOM     12  H   UNL     1      48.279  10.453  14.388  0.00  0.00    +0.000 HD
ATOM     13  H   UNL     1      49.477   9.584  13.579  0.00  0.00    +0.000 HD
ENDBRANCH   7  11
ENDBRANCH   1   2
BRANCH   1  17
ATOM     14  C   UNL     1      45.600   3.573   8.158  0.00  0.00    +0.000 A 
ATOM     15  C   UNL     1      44.776   2.844   9.023  0.00  0.00    +0.000 A 
ATOM     16  C   UNL     1      44.395   3.373  10.259  0.00  0.00    +0.000 A 
ATOM     17  C   UNL     1      44.823   4.648  10.653  0.00  0.00    +0.000 A 
ATOM     18  C   UNL     1      45.625   5.389   9.772  0.00  0.00    +0.000 A 
ATOM     19  C   UNL     1      46.006   4.858   8.536  0.00  0.00    +0.000 A 
BRANCH  14  20
ATOM     20  C   UNL     1      46.060   2.975   6.850  0.00  0.00    +0.000 C 
BRANCH  20  21
ATOM     21  C   UNL     1      47.578   2.797   6.774  0.00  0.00    +0.000 C 
BRANCH  21  22
ATOM     22  N   UNL     1      47.932   1.377   6.738  0.00  0.00    +0.000 NA
ATOM     23  H   UNL     1      48.931   1.272   6.913  0.00  0.00    +0.000 HD
ATOM     24  H   UNL     1      47.767   1.005   5.803  0.00  0.00    +0.000 HD
ENDBRANCH  21  22
ENDBRANCH  20  21
ENDBRANCH  14  20
ENDBRANCH   1  17
TORSDOF 6
ENDMDL
MODEL 5
REMARK VINA RESULT:    -6.407      1.803      6.071
REMARK INTER + INTRA:          -8.715
REMARK INTER:                  -8.317
REMARK INTRA:                  -0.399
REMARK UNBOUND:                -0.435
REMARK  Name = 
REMARK  6 active torsions:
REMARK  status: ('A' for Active; 'I' for Inactive)
REMARK    1  A    between atoms: N_1  and  C_2
REMARK    2  A    between atoms: C_2  and  C_3
REMARK    3  A    between atoms: C_3  and  C_4
REMARK    4  A    between atoms: C_7  and  C_8
REMARK    5  A    between atoms: C_8  and  N_9
REMARK    6  A    between atoms: C_14  and  N_15
REMARK                            x       y       z     vdW  Elec       q    Type
REMARK                         _______ _______ _______ _____ _____    ______ ____
ROOT
ATOM      1  C   UNL     1      44.034   5.751  12.379  0.00  0.00    +0.000 C 
ENDROOT
BRANCH   1   2
ATOM      2  N   UNL     1      44.117   4.553  11.560  0.00  0.00    +0.000 N 
ATOM      3  C   UNL     1      43.416   3.399  11.788  0.00  0.00    +0.000 A 
ATOM      4  N   UNL     1      43.545   2.545  10.799  0.00  0.00    +0.000 NA
ATOM      5  C   UNL     1      44.361   3.169   9.886  0.00  0.00    +0.000 A 
ATOM      6  C   UNL     1      44.789   2.738   8.632  0.00  0.00    +0.000 A 
ATOM      7  C   UNL     1      45.603   3.609   7.925  0.00  0.00    +0.000 A 
ATOM      8  N   UNL     1      45.998   4.812   8.386  0.00  0.00    +0.000 NA
ATOM      9  C   UNL     1      45.587   5.237   9.604  0.00  0.00    +0.000 A 
ATOM     10  C   UNL     1      44.754   4.421  10.350  0.00  0.00    +0.000 A 
BRANCH   7  11
ATOM     11  N   UNL     1      46.010   3.291   6.628  0.00  0.00    +0.000 N 
ATOM     12  H   UNL     1      46.495   4.063   6.186  0.00  0.00    +0.000 HD
ATOM     13  H   UNL     1      45.178   3.010   6.116  0.00  0.00    +0.000 HD
ENDBRANCH   7  11
ENDBRANCH   1   2
BRANCH   1  17
ATOM     14  C   UNL     1      47.877   7.019  13.926  0.00  0.00    +0.000 A 
ATOM     15  C   UNL     1      47.481   5.679  14.015  0.00  0.00    +0.000 A 
ATOM     16  C   UNL     1      46.243   5.268  13.512  0.00  0.00    +0.000 A 
ATOM     17  C   UNL     1      45.379   6.186  12.900  0.00  0.00    +0.000 A 
ATOM     18  C   UNL     1      45.791   7.522  12.787  0.00  0.00    +0.000 A 
ATOM     19  C   UNL     1      47.029   7.933  13.291  0.00  0.00    +0.000 A 
BRANCH  14  20
ATOM     20  C   UNL     1      49.187   7.473  14.524  0.00  0.00    +0.000 C 
BRANCH  20  21
ATOM     21  C   UNL     1      50.051   8.266  13.541  0.00  0.00    +0.000 C 
BRANCH  21  22
ATOM     22  N   UNL     1      50.492   7.415  12.436  0.00  0.00    +0.000 NA
ATOM     23  H   UNL     1      49.740   6.777  12.177  0.00  0.00    +0.000 HD
ATOM     24  H   UNL     1      51.269   6.828  12.742  0.00  0.00    +0.000 HD
ENDBRANCH  21  22
ENDBRANCH  20  21
ENDBRANCH  14  20
ENDBRANCH   1  17
TORSDOF 6
ENDMDL
MODEL 6
REMARK VINA RESULT:    -5.552      2.657      6.012
REMARK INTER + INTRA:          -7.609
REMARK INTER:                  -7.239
REMARK INTRA:                  -0.371
REMARK UNBOUND:                -0.435
REMARK  Name = 
REMARK  6 active torsions:
REMARK  status: ('A' for Active; 'I' for Inactive)
REMARK    1  A    between atoms: N_1  and  C_2
REMARK    2  A    between atoms: C_2  and  C_3
REMARK    3  A    between atoms: C_3  and  C_4
REMARK    4  A    between atoms: C_7  and  C_8
REMARK    5  A    between atoms: C_8  and  N_9
REMARK    6  A    between atoms: C_14  and  N_15
REMARK                            x       y       z     vdW  Elec       q    Type
REMARK                         _______ _______ _______ _____ _____    ______ ____
ROOT
ATOM      1  C   UNL     1      45.837   7.247  12.862  0.00  0.00    +0.000 C 
ENDROOT
BRANCH   1   2
ATOM      2  N   UNL     1      45.605   5.827  12.649  0.00  0.00    +0.000 N 
ATOM      3  C   UNL     1      45.355   4.918  13.643  0.00  0.00    +0.000 A 
ATOM      4  N   UNL     1      45.008   3.748  13.158  0.00  0.00    +0.000 NA
ATOM      5  C   UNL     1      45.030   3.901  11.793  0.00  0.00    +0.000 A 
ATOM      6  C   UNL     1      44.702   2.991  10.789  0.00  0.00    +0.000 A 
ATOM      7  C   UNL     1      44.805   3.449   9.485  0.00  0.00    +0.000 A 
ATOM      8  N   UNL     1      45.207   4.691   9.153  0.00  0.00    +0.000 NA
ATOM      9  C   UNL     1      45.529   5.579  10.123  0.00  0.00    +0.000 A 
ATOM     10  C   UNL     1      45.425   5.190  11.446  0.00  0.00    +0.000 A 
BRANCH   7  11
ATOM     11  N   UNL     1      44.419   2.630   8.422  0.00  0.00    +0.000 N 
ATOM     12  H   UNL     1      45.068   2.689   7.646  0.00  0.00    +0.000 HD
ATOM     13  H   UNL     1      43.476   2.907   8.161  0.00  0.00    +0.000 HD
ENDBRANCH   7  11
ENDBRANCH   1   2
BRANCH   1  17
ATOM     14  C   UNL     1      49.868   8.408  11.780  0.00  0.00    +0.000 A 
ATOM     15  C   UNL     1      48.801   9.300  11.615  0.00  0.00    +0.000 A 
ATOM     16  C   UNL     1      47.501   8.929  11.968  0.00  0.00    +0.000 A 
ATOM     17  C   UNL     1      47.241   7.660  12.503  0.00  0.00    +0.000 A 
ATOM     18  C   UNL     1      48.315   6.778  12.694  0.00  0.00    +0.000 A 
ATOM     19  C   UNL     1      49.615   7.151  12.339  0.00  0.00    +0.000 A 
BRANCH  14  20
ATOM     20  C   UNL     1      51.261   8.789  11.341  0.00  0.00    +0.000 C 
BRANCH  20  21
ATOM     21  C   UNL     1      51.924   7.725  10.463  0.00  0.00    +0.000 C 
BRANCH  21  22
ATOM     22  N   UNL     1      53.102   7.165  11.127  0.00  0.00    +0.000 NA
ATOM     23  H   UNL     1      52.851   6.287  11.582  0.00  0.00    +0.000 HD
ATOM     24  H   UNL     1      53.408   7.792  11.871  0.00  0.00    +0.000 HD
ENDBRANCH  21  22
ENDBRANCH  20  21
ENDBRANCH  14  20
ENDBRANCH   1  17
TORSDOF 6
ENDMDL
MODEL 7
REMARK VINA RESULT:    -5.162      2.338      3.941
REMARK INTER + INTRA:          -7.106
REMARK INTER:                  -6.637
REMARK INTRA:                  -0.469
REMARK UNBOUND:                -0.435
REMARK  Name = 
REMARK  6 active torsions:
REMARK  status: ('A' for Active; 'I' for Inactive)
REMARK    1  A    between atoms: N_1  and  C_2
REMARK    2  A    between atoms: C_2  and  C_3
REMARK    3  A    between atoms: C_3  and  C_4
REMARK    4  A    between atoms: C_7  and  C_8
REMARK    5  A    between atoms: C_8  and  N_9
REMARK    6  A    between atoms: C_14  and  N_15
REMARK                            x       y       z     vdW  Elec       q    Type
REMARK                         _______ _______ _______ _____ _____    ______ ____
ROOT
ATOM      1  C   UNL     1      45.867   7.396  12.891  0.00  0.00    +0.000 C 
ENDROOT
BRANCH   1   2
ATOM      2  N   UNL     1      47.286   7.396  13.207  0.00  0.00    +0.000 N 
ATOM      3  C   UNL     1      47.905   6.488  14.025  0.00  0.00    +0.000 A 
ATOM      4  N   UNL     1      49.212   6.614  13.994  0.00  0.00    +0.000 NA
ATOM      5  C   UNL     1      49.455   7.644  13.117  0.00  0.00    +0.000 A 
ATOM      6  C   UNL     1      50.668   8.170  12.674  0.00  0.00    +0.000 A 
ATOM      7  C   UNL     1      50.592   9.209  11.759  0.00  0.00    +0.000 A 
ATOM      8  N   UNL     1      49.434   9.727  11.303  0.00  0.00    +0.000 NA
ATOM      9  C   UNL     1      48.253   9.222  11.731  0.00  0.00    +0.000 A 
ATOM     10  C   UNL     1      48.262   8.168  12.627  0.00  0.00    +0.000 A 
BRANCH   7  11
ATOM     11  N   UNL     1      51.757   9.739  11.203  0.00  0.00    +0.000 N 
ATOM     12  H   UNL     1      51.555  10.381  10.446  0.00  0.00    +0.000 HD
ATOM     13  H   UNL     1      52.327   8.952  10.903  0.00  0.00    +0.000 HD
ENDBRANCH   7  11
ENDBRANCH   1   2
BRANCH   1  17
ATOM     14  C   UNL     1      44.779   4.013  10.413  0.00  0.00    +0.000 A 
ATOM     15  C   UNL     1      44.333   4.097  11.737  0.00  0.00    +0.000 A 
ATOM     16  C   UNL     1      44.679   5.191  12.537  0.00  0.00    +0.000 A 
ATOM     17  C   UNL     1      45.471   6.228  12.025  0.00  0.00    +0.000 A 
ATOM     18  C   UNL     1      45.893   6.154  10.689  0.00  0.00    +0.000 A 
ATOM     19  C   UNL     1      45.546   5.060   9.891  0.00  0.00    +0.000 A 
BRANCH  14  20
ATOM     20  C   UNL     1      44.456   2.802   9.570  0.00  0.00    +0.000 C 
BRANCH  20  21
ATOM     21  C   UNL     1      45.447   2.588   8.424  0.00  0.00    +0.000 C 
BRANCH  21  22
ATOM     22  N   UNL     1      46.006   1.236   8.467  0.00  0.00    +0.000 NA
ATOM     23  H   UNL     1      45.848   0.775   7.572  0.00  0.00    +0.000 HD
ATOM     24  H   UNL     1      45.509   0.681   9.164  0.00  0.00    +0.000 HD
ENDBRANCH  21  22
ENDBRANCH  20  21
ENDBRANCH  14  20
ENDBRANCH   1  17
TORSDOF 6
ENDMDL
MODEL 8
REMARK VINA RESULT:    -5.081      4.309      6.728
REMARK INTER + INTRA:          -7.001
REMARK INTER:                  -6.589
REMARK INTRA:                  -0.412
REMARK UNBOUND:                -0.435
REMARK  Name = 
REMARK  6 active torsions:
REMARK  status: ('A' for Active; 'I' for Inactive)
REMARK    1  A    between atoms: N_1  and  C_2
REMARK    2  A    between atoms: C_2  and  C_3
REMARK    3  A    between atoms: C_3  and  C_4
REMARK    4  A    between atoms: C_7  and  C_8
REMARK    5  A    between atoms: C_8  and  N_9
REMARK    6  A    between atoms: C_14  and  N_15
REMARK                            x       y       z     vdW  Elec       q    Type
REMARK                         _______ _______ _______ _____ _____    ______ ____
ROOT
ATOM      1  C   UNL     1      48.999   6.821  14.545  0.00  0.00    +0.000 C 
ENDROOT
BRANCH   1   2
ATOM      2  N   UNL     1      48.915   7.047  15.979  0.00  0.00    +0.000 N 
ATOM      3  C   UNL     1      48.630   8.250  16.566  0.00  0.00    +0.000 A 
ATOM      4  N   UNL     1      48.442   8.132  17.860  0.00  0.00    +0.000 NA
ATOM      5  C   UNL     1      48.608   6.794  18.128  0.00  0.00    +0.000 A 
ATOM      6  C   UNL     1      48.477   6.103  19.332  0.00  0.00    +0.000 A 
ATOM      7  C   UNL     1      48.690   4.734  19.283  0.00  0.00    +0.000 A 
ATOM      8  N   UNL     1      49.021   4.063  18.162  0.00  0.00    +0.000 NA
ATOM      9  C   UNL     1      49.151   4.728  16.990  0.00  0.00    +0.000 A 
ATOM     10  C   UNL     1      48.929   6.094  16.968  0.00  0.00    +0.000 A 
BRANCH   7  11
ATOM     11  N   UNL     1      48.500   3.954  20.425  0.00  0.00    +0.000 N 
ATOM     12  H   UNL     1      49.088   4.258  21.191  0.00  0.00    +0.000 HD
ATOM     13  H   UNL     1      48.678   2.989  20.158  0.00  0.00    +0.000 HD
ENDBRANCH   7  11
ENDBRANCH   1   2
BRANCH   1  17
ATOM     14  C   UNL     1      45.135   5.842  12.850  0.00  0.00    +0.000 A 
ATOM     15  C   UNL     1      45.644   7.143  12.756  0.00  0.00    +0.000 A 
ATOM     16  C   UNL     1      46.894   7.459  13.299  0.00  0.00    +0.000 A 
ATOM     17  C   UNL     1      47.664   6.478  13.938  0.00  0.00    +0.000 A 
ATOM     18  C   UNL     1      47.163   5.170  14.005  0.00  0.00    +0.000 A 
ATOM     19  C   UNL     1      45.914   4.855  13.463  0.00  0.00    +0.000 A 
BRANCH  14  20
ATOM     20  C   UNL     1      43.759   5.517  12.318  0.00  0.00    +0.000 C 
BRANCH  20  21
ATOM     21  C   UNL     1      43.309   4.093  12.654  0.00  0.00    +0.000 C 
BRANCH  21  22
ATOM     22  N   UNL     1      42.906   3.378  11.442  0.00  0.00    +0.000 NA
ATOM     23  H   UNL     1      43.670   3.397  10.767  0.00  0.00    +0.000 HD
ATOM     24  H   UNL     1      42.125   3.862  11.001  0.00  0.00    +0.000 HD
ENDBRANCH  21  22
ENDBRANCH  20  21
ENDBRANCH  14  20
ENDBRANCH   1  17
TORSDOF 6
ENDMDL
MODEL 9
REMARK VINA RESULT:    -5.052      3.772      8.388
REMARK INTER + INTRA:          -6.964
REMARK INTER:                  -6.556
REMARK INTRA:                  -0.408
REMARK UNBOUND:                -0.435
REMARK  Name = 
REMARK  6 active torsions:
REMARK  status: ('A' for Active; 'I' for Inactive)
REMARK    1  A    between atoms: N_1  and  C_2
REMARK    2  A    between atoms: C_2  and  C_3
REMARK    3  A    between atoms: C_3  and  C_4
REMARK    4  A    between atoms: C_7  and  C_8
REMARK    5  A    between atoms: C_8  and  N_9
REMARK    6  A    between atoms: C_14  and  N_15
REMARK                            x       y       z     vdW  Elec       q    Type
REMARK                         _______ _______ _______ _____ _____    ______ ____
ROOT
ATOM      1  C   UNL     1      48.260   6.591  13.709  0.00  0.00    +0.000 C 
ENDROOT
BRANCH   1   2
ATOM      2  N   UNL     1      46.871   6.484  13.291  0.00  0.00    +0.000 N 
ATOM      3  C   UNL     1      46.096   7.534  12.876  0.00  0.00    +0.000 A 
ATOM      4  N   UNL     1      44.945   7.130  12.390  0.00  0.00    +0.000 NA
ATOM      5  C   UNL     1      44.972   5.759  12.488  0.00  0.00    +0.000 A 
ATOM      6  C   UNL     1      44.030   4.817  12.077  0.00  0.00    +0.000 A 
ATOM      7  C   UNL     1      44.353   3.487  12.295  0.00  0.00    +0.000 A 
ATOM      8  N   UNL     1      45.496   3.076  12.879  0.00  0.00    +0.000 NA
ATOM      9  C   UNL     1      46.414   3.985  13.282  0.00  0.00    +0.000 A 
ATOM     10  C   UNL     1      46.160   5.329  13.072  0.00  0.00    +0.000 A 
BRANCH   7  11
ATOM     11  N   UNL     1      43.503   2.477  11.842  0.00  0.00    +0.000 N 
ATOM     12  H   UNL     1      43.080   2.711  10.952  0.00  0.00    +0.000 HD
ATOM     13  H   UNL     1      42.812   2.321  12.571  0.00  0.00    +0.000 HD
ENDBRANCH   7  11
ENDBRANCH   1   2
BRANCH   1  17
ATOM     14  C   UNL     1      48.736   6.749  18.012  0.00  0.00    +0.000 A 
ATOM     15  C   UNL     1      48.806   7.918  17.244  0.00  0.00    +0.000 A 
ATOM     16  C   UNL     1      48.647   7.869  15.856  0.00  0.00    +0.000 A 
ATOM     17  C   UNL     1      48.406   6.651  15.207  0.00  0.00    +0.000 A 
ATOM     18  C   UNL     1      48.308   5.485  15.982  0.00  0.00    +0.000 A 
ATOM     19  C   UNL     1      48.467   5.536  17.370  0.00  0.00    +0.000 A 
BRANCH  14  20
ATOM     20  C   UNL     1      48.968   6.796  19.503  0.00  0.00    +0.000 C 
BRANCH  20  21
ATOM     21  C   UNL     1      48.509   5.523  20.220  0.00  0.00    +0.000 C 
BRANCH  21  22
ATOM     22  N   UNL     1      47.146   5.679  20.730  0.00  0.00    +0.000 NA
ATOM     23  H   UNL     1      47.117   6.456  21.389  0.00  0.00    +0.000 HD
ATOM     24  H   UNL     1      46.880   4.848  21.260  0.00  0.00    +0.000 HD
ENDBRANCH  21  22
ENDBRANCH  20  21
ENDBRANCH  14  20
ENDBRANCH   1  17
TORSDOF 6
ENDMDL
