MODEL 1
REMARK VINA RESULT:    -9.123      0.000      0.000
REMARK INTER + INTRA:         -12.375
REMARK INTER:                 -11.789
REMARK INTRA:                  -0.586
REMARK UNBOUND:                -0.586
REMARK  Name = 
REMARK  5 active torsions:
REMARK  status: ('A' for Active; 'I' for Inactive)
REMARK    1  A    between atoms: C_2  and  C_4
REMARK    2  A    between atoms: C_7  and  O_8
REMARK    3  A    between atoms: O_8  and  C_9
REMARK    4  A    between atoms: C_9  and  C_10
REMARK    5  A    between atoms: C_14  and  C_15
REMARK                            x       y       z     vdW  Elec       q    Type
REMARK                         _______ _______ _______ _____ _____    ______ ____
ROOT
ATOM      1  C   UNL     1      43.980   4.838  11.489  0.00  0.00    +0.000 C 
ATOM      2  C   UNL     1      42.707   4.921  12.318  0.00  0.00    +0.000 C 
ATOM      3  C   UNL     1      42.962   5.932  11.251  0.00  0.00    +0.000 C 
ENDROOT
BRANCH   1   4
ATOM      4  C   UNL     1      45.314   5.169  12.137  0.00  0.00    +0.000 A 
ATOM      5  C   UNL     1      46.104   6.235  11.682  0.00  0.00    +0.000 A 
ATOM      6  C   UNL     1      47.269   6.611  12.353  0.00  0.00    +0.000 A 
ATOM      7  C   UNL     1      47.667   5.928  13.502  0.00  0.00    +0.000 A 
ATOM      8  C   UNL     1      46.929   4.840  13.994  0.00  0.00    +0.000 A 
ATOM      9  C   UNL     1      45.770   4.476  13.276  0.00  0.00    +0.000 A 
BRANCH   8  10
ATOM     10  C   UNL     1      47.307   4.131  15.234  0.00  0.00    +0.000 A 
ATOM     11  N   UNL     1      47.870   2.911  15.122  0.00  0.00    +0.000 NA
ATOM     12  C   UNL     1      48.271   2.326  16.267  0.00  0.00    +0.000 A 
ATOM     13  C   UNL     1      48.125   2.900  17.506  0.00  0.00    +0.000 A 
ATOM     14  C   UNL     1      47.530   4.137  17.518  0.00  0.00    +0.000 A 
ATOM     15  N   UNL     1      47.117   4.774  16.406  0.00  0.00    +0.000 NA
ENDBRANCH   8  10
ENDBRANCH   1   4
BRANCH   1  16
ATOM     16  O   UNL     1      43.944   3.641  10.680  0.00  0.00    +0.000 OA
BRANCH  16  20
ATOM     17  C   UNL     1      46.423   2.755   7.590  0.00  0.00    +0.000 A 
ATOM     18  N   UNL     1      46.103   4.073   7.706  0.00  0.00    +0.000 NA
ATOM     19  C   UNL     1      45.299   4.387   8.758  0.00  0.00    +0.000 A 
ATOM     20  C   UNL     1      44.806   3.461   9.648  0.00  0.00    +0.000 A 
ATOM     21  C   UNL     1      45.218   2.162   9.423  0.00  0.00    +0.000 A 
ATOM     22  N   UNL     1      46.019   1.773   8.412  0.00  0.00    +0.000 NA
BRANCH  17  24
ATOM     23  N   UNL     1      47.147   3.151   5.286  0.00  0.00    +0.000 N 
ATOM     24  C   UNL     1      47.265   2.353   6.401  0.00  0.00    +0.000 C 
ATOM     25  O   UNL     1      48.011   1.380   6.386  0.00  0.00    +0.000 OA
ATOM     26  H   UNL     1      47.674   2.911   4.460  0.00  0.00    +0.000 HD
ATOM     27  H   UNL     1      46.522   3.947   5.293  0.00  0.00    +0.000 HD
ENDBRANCH  17  24
ENDBRANCH  16  20
ENDBRANCH   1  16
TORSDOF 5
ENDMDL
MODEL 2
REMARK VINA RESULT:    -8.044      2.448      7.513
REMARK INTER + INTRA:         -10.981
REMARK INTER:                 -10.406
REMARK INTRA:                  -0.575
REMARK UNBOUND:                -0.586
REMARK  Name = 
REMARK  5 active torsions:
REMARK  status: ('A' for Active; 'I' for Inactive)
REMARK    1  A    between atoms: C_2  and  C_4
REMARK    2  A    between atoms: C_7  and  O_8
REMARK    3  A    between atoms: O_8  and  C_9
REMARK    4  A    between atoms: C_9  and  C_10
REMARK    5  A    between atoms: C_14  and  C_15
REMARK                            x       y       z     vdW  Elec       q    Type
REMARK                         _______ _______ _______ _____ _____    ______ ____
ROOT
ATOM      1  C   UNL     1      46.249   7.270  12.413  0.00  0.00    +0.000 C 
ATOM      2  C   UNL     1      46.496   8.643  11.807  0.00  0.00    +0.000 C 
ATOM      3  C   UNL     1      45.664   8.517  13.039  0.00  0.00    +0.000 C 
ENDROOT
BRANCH   1   4
ATOM      4  C   UNL     1      45.344   6.287  11.689  0.00  0.00    +0.000 A 
ATOM      5  C   UNL     1      43.959   6.270  11.909  0.00  0.00    +0.000 A 
ATOM      6  C   UNL     1      43.116   5.450  11.156  0.00  0.00    +0.000 A 
ATOM      7  C   UNL     1      43.645   4.629  10.159  0.00  0.00    +0.000 A 
ATOM      8  C   UNL     1      45.025   4.589   9.906  0.00  0.00    +0.000 A 
ATOM      9  C   UNL     1      45.846   5.415  10.703  0.00  0.00    +0.000 A 
BRANCH   8  10
ATOM     10  C   UNL     1      45.601   3.762   8.826  0.00  0.00    +0.000 A 
ATOM     11  N   UNL     1      46.141   4.391   7.763  0.00  0.00    +0.000 NA
ATOM     12  C   UNL     1      46.723   3.610   6.833  0.00  0.00    +0.000 A 
ATOM     13  C   UNL     1      46.779   2.240   6.917  0.00  0.00    +0.000 A 
ATOM     14  C   UNL     1      46.191   1.692   8.030  0.00  0.00    +0.000 A 
ATOM     15  N   UNL     1      45.602   2.422   8.995  0.00  0.00    +0.000 NA
ENDBRANCH   8  10
ENDBRANCH   1   4
BRANCH   1  16
ATOM     16  O   UNL     1      47.497   6.738  12.912  0.00  0.00    +0.000 OA
BRANCH  16  20
ATOM     17  C   UNL     1      47.729   4.438  16.250  0.00  0.00    +0.000 A 
ATOM     18  N   UNL     1      46.846   3.998  15.312  0.00  0.00    +0.000 NA
ATOM     19  C   UNL     1      46.783   4.742  14.175  0.00  0.00    +0.000 A 
ATOM     20  C   UNL     1      47.527   5.879  13.962  0.00  0.00    +0.000 A 
ATOM     21  C   UNL     1      48.393   6.208  14.987  0.00  0.00    +0.000 A 
ATOM     22  N   UNL     1      48.521   5.518  16.137  0.00  0.00    +0.000 NA
BRANCH  17  24
ATOM     23  N   UNL     1      46.828   2.705  17.723  0.00  0.00    +0.000 N 
ATOM     24  C   UNL     1      47.788   3.675  17.553  0.00  0.00    +0.000 C 
ATOM     25  O   UNL     1      48.617   3.883  18.433  0.00  0.00    +0.000 OA
ATOM     26  H   UNL     1      46.813   2.182  18.586  0.00  0.00    +0.000 HD
ATOM     27  H   UNL     1      46.136   2.541  17.003  0.00  0.00    +0.000 HD
ENDBRANCH  17  24
ENDBRANCH  16  20
ENDBRANCH   1  16
TORSDOF 5
ENDMDL
MODEL 3
REMARK VINA RESULT:    -7.453      2.202      7.436
REMARK INTER + INTRA:         -10.216
REMARK INTER:                  -9.769
REMARK INTRA:                  -0.447
REMARK UNBOUND:                -0.586
REMARK  Name = 
REMARK  5 active torsions:
REMARK  status: ('A' for Active; 'I' for Inactive)
REMARK    1  A    between atoms: C_2  and  C_4
REMARK    2  A    between atoms: C_7  and  O_8
REMARK    3  A    between atoms: O_8  and  C_9
REMARK    4  A    between atoms: C_9  and  C_10
REMARK    5  A    between atoms: C_14  and  C_15
REMARK                            x       y       z     vdW  Elec       q    Type
REMARK                         _______ _______ _______ _____ _____    ______ ____
ROOT
ATOM      1  C   UNL     1      45.216   5.713  12.077  0.00  0.00    +0.000 C 
ATOM      2  C   UNL     1      44.694   7.043  11.552  0.00  0.00    +0.000 C 
ATOM      3  C   UNL     1      44.096   6.446  12.782  0.00  0.00    +0.000 C 
ENDROOT
BRANCH   1   4
ATOM      4  C   UNL     1      44.920   4.439  11.302  0.00  0.00    +0.000 A 
ATOM      5  C   UNL     1      43.878   3.580  11.677  0.00  0.00    +0.000 A 
ATOM      6  C   UNL     1      43.532   2.475  10.896  0.00  0.00    +0.000 A 
ATOM      7  C   UNL     1      44.224   2.209   9.714  0.00  0.00    +0.000 A 
ATOM      8  C   UNL     1      45.290   3.022   9.297  0.00  0.00    +0.000 A 
ATOM      9  C   UNL     1      45.624   4.115  10.125  0.00  0.00    +0.000 A 
BRANCH   8  10
ATOM     10  C   UNL     1      46.007   2.785   8.027  0.00  0.00    +0.000 A 
ATOM     11  N   UNL     1      46.047   3.784   7.123  0.00  0.00    +0.000 NA
ATOM     12  C   UNL     1      46.772   3.561   6.011  0.00  0.00    +0.000 A 
ATOM     13  C   UNL     1      47.442   2.389   5.762  0.00  0.00    +0.000 A 
ATOM     14  C   UNL     1      47.332   1.427   6.736  0.00  0.00    +0.000 A 
ATOM     15  N   UNL     1      46.630   1.597   7.871  0.00  0.00    +0.000 NA
ENDBRANCH   8  10
ENDBRANCH   1   4
BRANCH   1  16
ATOM     16  O   UNL     1      46.577   5.881  12.531  0.00  0.00    +0.000 OA
BRANCH  16  20
ATOM     17  C   UNL     1      47.962   3.719  15.676  0.00  0.00    +0.000 A 
ATOM     18  N   UNL     1      48.088   5.068  15.809  0.00  0.00    +0.000 NA
ATOM     19  C   UNL     1      47.598   5.805  14.776  0.00  0.00    +0.000 A 
ATOM     20  C   UNL     1      47.029   5.259  13.649  0.00  0.00    +0.000 A 
ATOM     21  C   UNL     1      46.951   3.880  13.647  0.00  0.00    +0.000 A 
ATOM     22  N   UNL     1      47.404   3.082  14.634  0.00  0.00    +0.000 NA
BRANCH  17  24
ATOM     23  N   UNL     1      49.204   1.725  16.359  0.00  0.00    +0.000 N 
ATOM     24  C   UNL     1      48.548   2.861  16.773  0.00  0.00    +0.000 C 
ATOM     25  O   UNL     1      48.459   3.120  17.968  0.00  0.00    +0.000 OA
ATOM     26  H   UNL     1      49.595   1.108  17.056  0.00  0.00    +0.000 HD
ATOM     27  H   UNL     1      49.268   1.503  15.374  0.00  0.00    +0.000 HD
ENDBRANCH  17  24
ENDBRANCH  16  20
ENDBRANCH   1  16
TORSDOF 5
ENDMDL
MODEL 4
REMARK VINA RESULT:    -7.140      2.747      7.553
REMARK INTER + INTRA:          -9.813
REMARK INTER:                  -9.190
REMARK INTRA:                  -0.624
REMARK UNBOUND:                -0.586
REMARK  Name = 
REMARK  5 active torsions:
REMARK  status: ('A' for Active; 'I' for Inactive)
REMARK    1  A    between atoms: C_2  and  C_4
REMARK    2  A    between atoms: C_7  and  O_8
REMARK    3  A    between atoms: O_8  and  C_9
REMARK    4  A    between atoms: C_9  and  C_10
REMARK    5  A    between atoms: C_14  and  C_15
REMARK                            x       y       z     vdW  Elec       q    Type
REMARK                         _______ _______ _______ _____ _____    ______ ____
ROOT
ATOM      1  C   UNL     1      45.945   7.724  12.074  0.00  0.00    +0.000 C 
ATOM      2  C   UNL     1      45.724   9.109  11.483  0.00  0.00    +0.000 C 
ATOM      3  C   UNL     1      45.267   8.816  12.873  0.00  0.00    +0.000 C 
ENDROOT
BRANCH   1   4
ATOM      4  C   UNL     1      45.133   6.551  11.549  0.00  0.00    +0.000 A 
ATOM      5  C   UNL     1      43.795   6.363  11.922  0.00  0.00    +0.000 A 
ATOM      6  C   UNL     1      43.017   5.355  11.347  0.00  0.00    +0.000 A 
ATOM      7  C   UNL     1      43.566   4.515  10.377  0.00  0.00    +0.000 A 
ATOM      8  C   UNL     1      44.905   4.642   9.979  0.00  0.00    +0.000 A 
ATOM      9  C   UNL     1      45.665   5.657  10.599  0.00  0.00    +0.000 A 
BRANCH   8  10
ATOM     10  C   UNL     1      45.494   3.793   8.922  0.00  0.00    +0.000 A 
ATOM     11  N   UNL     1      46.063   4.400   7.862  0.00  0.00    +0.000 NA
ATOM     12  C   UNL     1      46.655   3.598   6.956  0.00  0.00    +0.000 A 
ATOM     13  C   UNL     1      46.692   2.229   7.060  0.00  0.00    +0.000 A 
ATOM     14  C   UNL     1      46.074   1.705   8.169  0.00  0.00    +0.000 A 
ATOM     15  N   UNL     1      45.475   2.456   9.111  0.00  0.00    +0.000 NA
ENDBRANCH   8  10
ENDBRANCH   1   4
BRANCH   1  16
ATOM     16  O   UNL     1      47.363   7.497  12.236  0.00  0.00    +0.000 OA
BRANCH  16  20
ATOM     17  C   UNL     1      48.878   6.166  15.759  0.00  0.00    +0.000 A 
ATOM     18  N   UNL     1      49.290   7.411  15.393  0.00  0.00    +0.000 NA
ATOM     19  C   UNL     1      48.763   7.881  14.230  0.00  0.00    +0.000 A 
ATOM     20  C   UNL     1      47.891   7.168  13.442  0.00  0.00    +0.000 A 
ATOM     21  C   UNL     1      47.545   5.925  13.934  0.00  0.00    +0.000 A 
ATOM     22  N   UNL     1      48.015   5.393  15.080  0.00  0.00    +0.000 NA
BRANCH  17  24
ATOM     23  N   UNL     1      48.889   5.951  18.196  0.00  0.00    +0.000 N 
ATOM     24  C   UNL     1      49.486   5.581  17.014  0.00  0.00    +0.000 C 
ATOM     25  O   UNL     1      50.453   4.828  17.020  0.00  0.00    +0.000 OA
ATOM     26  H   UNL     1      49.271   5.602  19.063  0.00  0.00    +0.000 HD
ATOM     27  H   UNL     1      48.098   6.582  18.193  0.00  0.00    +0.000 HD
ENDBRANCH  17  24
ENDBRANCH  16  20
ENDBRANCH   1  16
TORSDOF 5
ENDMDL
MODEL 5
REMARK VINA RESULT:    -6.814      2.916      4.613
REMARK INTER + INTRA:          -9.391
REMARK INTER:                  -8.736
REMARK INTRA:                  -0.655
REMARK UNBOUND:                -0.586
REMARK  Name = 
REMARK  5 active torsions:
REMARK  status: ('A' for Active; 'I' for Inactive)
REMARK    1  A    between atoms: C_2  and  C_4
REMARK    2  A    between atoms: C_7  and  O_8
REMARK    3  A    between atoms: O_8  and  C_9
REMARK    4  A    between atoms: C_9  and  C_10
REMARK    5  A    between atoms: C_14  and  C_15
REMARK                            x       y       z     vdW  Elec       q    Type
REMARK                         _______ _______ _______ _____ _____    ______ ____
ROOT
ATOM      1  C   UNL     1      47.696   7.967  12.801  0.00  0.00    +0.000 C 
ATOM      2  C   UNL     1      48.264   9.061  11.909  0.00  0.00    +0.000 C 
ATOM      3  C   UNL     1      48.640   7.638  11.665  0.00  0.00    +0.000 C 
ENDROOT
BRANCH   1   4
ATOM      4  C   UNL     1      48.171   7.857  14.240  0.00  0.00    +0.000 A 
ATOM      5  C   UNL     1      48.117   8.952  15.114  0.00  0.00    +0.000 A 
ATOM      6  C   UNL     1      48.443   8.818  16.465  0.00  0.00    +0.000 A 
ATOM      7  C   UNL     1      48.826   7.576  16.973  0.00  0.00    +0.000 A 
ATOM      8  C   UNL     1      48.918   6.448  16.143  0.00  0.00    +0.000 A 
ATOM      9  C   UNL     1      48.603   6.629  14.779  0.00  0.00    +0.000 A 
BRANCH   8  10
ATOM     10  C   UNL     1      49.278   5.114  16.667  0.00  0.00    +0.000 A 
ATOM     11  N   UNL     1      48.361   4.130  16.587  0.00  0.00    +0.000 NA
ATOM     12  C   UNL     1      48.748   2.910  17.005  0.00  0.00    +0.000 A 
ATOM     13  C   UNL     1      49.998   2.639  17.505  0.00  0.00    +0.000 A 
ATOM     14  C   UNL     1      50.858   3.708  17.559  0.00  0.00    +0.000 A 
ATOM     15  N   UNL     1      50.529   4.947  17.147  0.00  0.00    +0.000 NA
ENDBRANCH   8  10
ENDBRANCH   1   4
BRANCH   1  16
ATOM     16  O   UNL     1      46.269   7.877  12.592  0.00  0.00    +0.000 OA
BRANCH  16  20
ATOM     17  C   UNL     1      44.549   4.337  11.593  0.00  0.00    +0.000 A 
ATOM     18  N   UNL     1      44.848   4.475  12.914  0.00  0.00    +0.000 NA
ATOM     19  C   UNL     1      45.395   5.670  13.267  0.00  0.00    +0.000 A 
ATOM     20  C   UNL     1      45.662   6.682  12.375  0.00  0.00    +0.000 A 
ATOM     21  C   UNL     1      45.299   6.418  11.069  0.00  0.00    +0.000 A 
ATOM     22  N   UNL     1      44.745   5.266  10.642  0.00  0.00    +0.000 NA
BRANCH  17  24
ATOM     23  N   UNL     1      44.687   2.375  10.138  0.00  0.00    +0.000 N 
ATOM     24  C   UNL     1      43.996   3.003  11.147  0.00  0.00    +0.000 C 
ATOM     25  O   UNL     1      42.992   2.484  11.623  0.00  0.00    +0.000 OA
ATOM     26  H   UNL     1      44.345   1.491   9.792  0.00  0.00    +0.000 HD
ATOM     27  H   UNL     1      45.509   2.808   9.736  0.00  0.00    +0.000 HD
ENDBRANCH  17  24
ENDBRANCH  16  20
ENDBRANCH   1  16
TORSDOF 5
ENDMDL
MODEL 6
REMARK VINA RESULT:    -6.402      3.279      8.271
REMARK INTER + INTRA:          -8.858
REMARK INTER:                  -8.312
REMARK INTRA:                  -0.546
REMARK UNBOUND:                -0.586
REMARK  Name = 
REMARK  5 active torsions:
REMARK  status: ('A' for Active; 'I' for Inactive)
REMARK    1  A    between atoms: C_2  and  C_4
REMARK    2  A    between atoms: C_7  and  O_8
REMARK    3  A    between atoms: O_8  and  C_9
REMARK    4  A    between atoms: C_9  and  C_10
REMARK    5  A    between atoms: C_14  and  C_15
REMARK                            x       y       z     vdW  Elec       q    Type
REMARK                         _______ _______ _______ _____ _____    ______ ____
ROOT
ATOM      1  C   UNL     1      48.510   7.493  13.546  0.00  0.00    +0.000 C 
ATOM      2  C   UNL     1      49.672   8.163  12.829  0.00  0.00    +0.000 C 
ATOM      3  C   UNL     1      49.055   8.825  14.015  0.00  0.00    +0.000 C 
ENDROOT
BRANCH   1   4
ATOM      4  C   UNL     1      47.153   7.425  12.864  0.00  0.00    +0.000 A 
ATOM      5  C   UNL     1      46.267   8.510  12.889  0.00  0.00    +0.000 A 
ATOM      6  C   UNL     1      45.074   8.489  12.163  0.00  0.00    +0.000 A 
ATOM      7  C   UNL     1      44.745   7.375  11.389  0.00  0.00    +0.000 A 
ATOM      8  C   UNL     1      45.583   6.250  11.341  0.00  0.00    +0.000 A 
ATOM      9  C   UNL     1      46.768   6.301  12.106  0.00  0.00    +0.000 A 
BRANCH   8  10
ATOM     10  C   UNL     1      45.277   5.079  10.494  0.00  0.00    +0.000 A 
ATOM     11  N   UNL     1      44.619   4.044  11.054  0.00  0.00    +0.000 NA
ATOM     12  C   UNL     1      44.290   3.027  10.236  0.00  0.00    +0.000 A 
ATOM     13  C   UNL     1      44.598   2.996   8.897  0.00  0.00    +0.000 A 
ATOM     14  C   UNL     1      45.279   4.090   8.423  0.00  0.00    +0.000 A 
ATOM     15  N   UNL     1      45.626   5.139   9.191  0.00  0.00    +0.000 NA
ENDBRANCH   8  10
ENDBRANCH   1   4
BRANCH   1  16
ATOM     16  O   UNL     1      48.973   6.274  14.168  0.00  0.00    +0.000 OA
BRANCH  16  20
ATOM     17  C   UNL     1      48.398   5.328  18.074  0.00  0.00    +0.000 A 
ATOM     18  N   UNL     1      49.352   6.273  17.849  0.00  0.00    +0.000 NA
ATOM     19  C   UNL     1      49.531   6.622  16.546  0.00  0.00    +0.000 A 
ATOM     20  C   UNL     1      48.832   6.064  15.501  0.00  0.00    +0.000 A 
ATOM     21  C   UNL     1      47.886   5.128  15.869  0.00  0.00    +0.000 A 
ATOM     22  N   UNL     1      47.642   4.736  17.135  0.00  0.00    +0.000 NA
BRANCH  17  24
ATOM     23  N   UNL     1      48.392   3.522  19.725  0.00  0.00    +0.000 N 
ATOM     24  C   UNL     1      48.209   4.867  19.501  0.00  0.00    +0.000 C 
ATOM     25  O   UNL     1      47.902   5.610  20.427  0.00  0.00    +0.000 OA
ATOM     26  H   UNL     1      48.256   3.162  20.658  0.00  0.00    +0.000 HD
ATOM     27  H   UNL     1      48.633   2.905  18.960  0.00  0.00    +0.000 HD
ENDBRANCH  17  24
ENDBRANCH  16  20
ENDBRANCH   1  16
TORSDOF 5
ENDMDL
