MODEL 1
REMARK VINA RESULT:    -8.481      0.000      0.000
REMARK INTER + INTRA:         -11.724
REMARK INTER:                 -10.960
REMARK INTRA:                  -0.764
REMARK UNBOUND:                -0.764
REMARK  Name = 
REMARK  5 active torsions:
REMARK  status: ('A' for Active; 'I' for Inactive)
REMARK    1  A    between atoms: C_2  and  C_18
REMARK    2  A    between atoms: N_3  and  C_4
REMARK    3  A    between atoms: C_4  and  C_5
REMARK    4  A    between atoms: C_8  and  O_9
REMARK    5  A    between atoms: O_9  and  C_10
REMARK                            x       y       z     vdW  Elec       q    Type
REMARK                         _______ _______ _______ _____ _____    ______ ____
ROOT
ATOM      1  O   UNL     1      48.284   7.439  12.629  0.00  0.00    +0.000 OA
ATOM      2  C   UNL     1      47.626   7.067  13.598  0.00  0.00    +0.000 C 
ATOM      3  N   UNL     1      46.256   7.046  13.588  0.00  0.00    +0.000 N 
ATOM      4  H   UNL     1      45.751   6.899  14.455  0.00  0.00    +0.000 HD
ENDROOT
BRANCH   2   5
ATOM      5  C   UNL     1      48.279   6.566  14.813  0.00  0.00    +0.000 A 
ATOM      6  C   UNL     1      49.310   7.298  15.385  0.00  0.00    +0.000 A 
ATOM      7  S   UNL     1      49.962   6.580  16.787  0.00  0.00    +0.000 S 
ATOM      8  C   UNL     1      48.860   5.288  16.705  0.00  0.00    +0.000 A 
ATOM      9  N   UNL     1      48.852   4.316  17.656  0.00  0.00    +0.000 NA
ATOM     10  C   UNL     1      47.938   3.418  17.492  0.00  0.00    +0.000 A 
ATOM     11  N   UNL     1      47.043   3.396  16.455  0.00  0.00    +0.000 N 
ATOM     12  C   UNL     1      47.067   4.313  15.426  0.00  0.00    +0.000 A 
ATOM     13  O   UNL     1      46.344   4.181  14.445  0.00  0.00    +0.000 OA
ATOM     14  C   UNL     1      48.033   5.379  15.598  0.00  0.00    +0.000 A 
ATOM     15  H   UNL     1      46.374   2.647  16.368  0.00  0.00    +0.000 HD
ENDBRANCH   2   5
BRANCH   3  16
ATOM     16  C   UNL     1      45.485   7.511  12.465  0.00  0.00    +0.000 C 
BRANCH  16  17
ATOM     17  C   UNL     1      45.208   6.404  11.483  0.00  0.00    +0.000 A 
ATOM     18  C   UNL     1      44.106   5.561  11.672  0.00  0.00    +0.000 A 
ATOM     19  C   UNL     1      43.806   4.568  10.740  0.00  0.00    +0.000 A 
ATOM     20  C   UNL     1      44.573   4.443   9.580  0.00  0.00    +0.000 A 
ATOM     21  C   UNL     1      45.720   5.221   9.425  0.00  0.00    +0.000 A 
ATOM     22  C   UNL     1      46.042   6.194  10.376  0.00  0.00    +0.000 A 
BRANCH  20  23
ATOM     23  O   UNL     1      44.298   3.549   8.569  0.00  0.00    +0.000 OA
BRANCH  23  24
ATOM     24  C   UNL     1      45.330   2.851   7.985  0.00  0.00    +0.000 A 
ATOM     25  C   UNL     1      46.111   3.304   6.922  0.00  0.00    +0.000 A 
ATOM     26  C   UNL     1      47.093   2.471   6.389  0.00  0.00    +0.000 A 
ATOM     27  C   UNL     1      47.299   1.235   6.979  0.00  0.00    +0.000 A 
ATOM     28  N   UNL     1      46.607   0.791   8.051  0.00  0.00    +0.000 NA
ATOM     29  C   UNL     1      45.642   1.613   8.530  0.00  0.00    +0.000 A 
ENDBRANCH  23  24
ENDBRANCH  20  23
ENDBRANCH  16  17
ENDBRANCH   3  16
TORSDOF 5
ENDMDL
MODEL 2
REMARK VINA RESULT:    -7.808      1.855      2.521
REMARK INTER + INTRA:         -10.854
REMARK INTER:                 -10.172
REMARK INTRA:                  -0.681
REMARK UNBOUND:                -0.764
REMARK  Name = 
REMARK  5 active torsions:
REMARK  status: ('A' for Active; 'I' for Inactive)
REMARK    1  A    between atoms: C_2  and  C_18
REMARK    2  A    between atoms: N_3  and  C_4
REMARK    3  A    between atoms: C_4  and  C_5
REMARK    4  A    between atoms: C_8  and  O_9
REMARK    5  A    between atoms: O_9  and  C_10
REMARK                            x       y       z     vdW  Elec       q    Type
REMARK                         _______ _______ _______ _____ _____    ______ ____
ROOT
ATOM      1  O   UNL     1      49.022   6.252  14.463  0.00  0.00    +0.000 OA
ATOM      2  C   UNL     1      48.005   5.765  14.949  0.00  0.00    +0.000 C 
ATOM      3  N   UNL     1      46.776   5.888  14.354  0.00  0.00    +0.000 N 
ATOM      4  H   UNL     1      45.942   5.624  14.867  0.00  0.00    +0.000 HD
ENDROOT
BRANCH   2   5
ATOM      5  C   UNL     1      48.058   4.965  16.179  0.00  0.00    +0.000 A 
ATOM      6  C   UNL     1      47.714   3.620  16.134  0.00  0.00    +0.000 A 
ATOM      7  S   UNL     1      47.826   2.834  17.642  0.00  0.00    +0.000 S 
ATOM      8  C   UNL     1      48.381   4.252  18.401  0.00  0.00    +0.000 A 
ATOM      9  N   UNL     1      48.711   4.253  19.719  0.00  0.00    +0.000 NA
ATOM     10  C   UNL     1      49.155   5.385  20.156  0.00  0.00    +0.000 A 
ATOM     11  N   UNL     1      49.283   6.518  19.397  0.00  0.00    +0.000 N 
ATOM     12  C   UNL     1      48.884   6.585  18.079  0.00  0.00    +0.000 A 
ATOM     13  O   UNL     1      48.881   7.650  17.472  0.00  0.00    +0.000 OA
ATOM     14  C   UNL     1      48.438   5.323  17.525  0.00  0.00    +0.000 A 
ATOM     15  H   UNL     1      49.607   7.380  19.808  0.00  0.00    +0.000 HD
ENDBRANCH   2   5
BRANCH   3  16
ATOM     16  C   UNL     1      46.576   6.647  13.148  0.00  0.00    +0.000 C 
BRANCH  16  17
ATOM     17  C   UNL     1      45.988   5.801  12.050  0.00  0.00    +0.000 A 
ATOM     18  C   UNL     1      46.095   6.213  10.715  0.00  0.00    +0.000 A 
ATOM     19  C   UNL     1      45.604   5.412   9.685  0.00  0.00    +0.000 A 
ATOM     20  C   UNL     1      45.050   4.163   9.974  0.00  0.00    +0.000 A 
ATOM     21  C   UNL     1      44.863   3.783  11.303  0.00  0.00    +0.000 A 
ATOM     22  C   UNL     1      45.323   4.600  12.338  0.00  0.00    +0.000 A 
BRANCH  20  23
ATOM     23  O   UNL     1      44.619   3.273   9.016  0.00  0.00    +0.000 OA
BRANCH  23  24
ATOM     24  C   UNL     1      45.541   2.659   8.200  0.00  0.00    +0.000 A 
ATOM     25  C   UNL     1      46.160   3.246   7.097  0.00  0.00    +0.000 A 
ATOM     26  C   UNL     1      47.039   2.492   6.322  0.00  0.00    +0.000 A 
ATOM     27  C   UNL     1      47.313   1.192   6.713  0.00  0.00    +0.000 A 
ATOM     28  N   UNL     1      46.784   0.613   7.812  0.00  0.00    +0.000 NA
ATOM     29  C   UNL     1      45.913   1.363   8.531  0.00  0.00    +0.000 A 
ENDBRANCH  23  24
ENDBRANCH  20  23
ENDBRANCH  16  17
ENDBRANCH   3  16
TORSDOF 5
ENDMDL
MODEL 3
REMARK VINA RESULT:    -7.681      2.268      3.161
REMARK INTER + INTRA:         -10.690
REMARK INTER:                 -10.195
REMARK INTRA:                  -0.494
REMARK UNBOUND:                -0.764
REMARK  Name = 
REMARK  5 active torsions:
REMARK  status: ('A' for Active; 'I' for Inactive)
REMARK    1  A    between atoms: C_2  and  C_18
REMARK    2  A    between atoms: N_3  and  C_4
REMARK    3  A    between atoms: C_4  and  C_5
REMARK    4  A    between atoms: C_8  and  O_9
REMARK    5  A    between atoms: O_9  and  C_10
REMARK                            x       y       z     vdW  Elec       q    Type
REMARK                         _______ _______ _______ _____ _____    ______ ____
ROOT
ATOM      1  O   UNL     1      47.695   4.918  13.595  0.00  0.00    +0.000 OA
ATOM      2  C   UNL     1      47.519   6.104  13.325  0.00  0.00    +0.000 C 
ATOM      3  N   UNL     1      46.268   6.644  13.179  0.00  0.00    +0.000 N 
ATOM      4  H   UNL     1      46.166   7.575  12.791  0.00  0.00    +0.000 HD
ENDROOT
BRANCH   2   5
ATOM      5  C   UNL     1      48.650   7.030  13.197  0.00  0.00    +0.000 A 
ATOM      6  C   UNL     1      48.826   7.734  12.013  0.00  0.00    +0.000 A 
ATOM      7  S   UNL     1      50.183   8.765  12.024  0.00  0.00    +0.000 S 
ATOM      8  C   UNL     1      50.559   8.341  13.628  0.00  0.00    +0.000 A 
ATOM      9  N   UNL     1      51.611   8.914  14.272  0.00  0.00    +0.000 NA
ATOM     10  C   UNL     1      51.759   8.531  15.497  0.00  0.00    +0.000 A 
ATOM     11  N   UNL     1      50.959   7.617  16.130  0.00  0.00    +0.000 N 
ATOM     12  C   UNL     1      49.933   6.951  15.492  0.00  0.00    +0.000 A 
ATOM     13  O   UNL     1      49.330   6.039  16.046  0.00  0.00    +0.000 OA
ATOM     14  C   UNL     1      49.687   7.393  14.135  0.00  0.00    +0.000 A 
ATOM     15  H   UNL     1      51.148   7.337  17.080  0.00  0.00    +0.000 HD
ENDBRANCH   2   5
BRANCH   3  16
ATOM     16  C   UNL     1      45.070   5.852  13.275  0.00  0.00    +0.000 C 
BRANCH  16  17
ATOM     17  C   UNL     1      44.861   5.009  12.046  0.00  0.00    +0.000 A 
ATOM     18  C   UNL     1      45.168   5.526  10.781  0.00  0.00    +0.000 A 
ATOM     19  C   UNL     1      45.032   4.737   9.640  0.00  0.00    +0.000 A 
ATOM     20  C   UNL     1      44.639   3.401   9.757  0.00  0.00    +0.000 A 
ATOM     21  C   UNL     1      44.250   2.904  11.001  0.00  0.00    +0.000 A 
ATOM     22  C   UNL     1      44.353   3.705  12.141  0.00  0.00    +0.000 A 
BRANCH  20  23
ATOM     23  O   UNL     1      44.560   2.527   8.695  0.00  0.00    +0.000 OA
BRANCH  23  24
ATOM     24  C   UNL     1      45.633   2.398   7.845  0.00  0.00    +0.000 A 
ATOM     25  C   UNL     1      46.017   3.331   6.882  0.00  0.00    +0.000 A 
ATOM     26  C   UNL     1      47.097   3.051   6.047  0.00  0.00    +0.000 A 
ATOM     27  C   UNL     1      47.793   1.870   6.246  0.00  0.00    +0.000 A 
ATOM     28  N   UNL     1      47.492   0.975   7.211  0.00  0.00    +0.000 NA
ATOM     29  C   UNL     1      46.421   1.264   7.990  0.00  0.00    +0.000 A 
ENDBRANCH  23  24
ENDBRANCH  20  23
ENDBRANCH  16  17
ENDBRANCH   3  16
TORSDOF 5
ENDMDL
MODEL 4
REMARK VINA RESULT:    -7.532      1.370      1.869
REMARK INTER + INTRA:         -10.497
REMARK INTER:                  -9.745
REMARK INTRA:                  -0.752
REMARK UNBOUND:                -0.764
REMARK  Name = 
REMARK  5 active torsions:
REMARK  status: ('A' for Active; 'I' for Inactive)
REMARK    1  A    between atoms: C_2  and  C_18
REMARK    2  A    between atoms: N_3  and  C_4
REMARK    3  A    between atoms: C_4  and  C_5
REMARK    4  A    between atoms: C_8  and  O_9
REMARK    5  A    between atoms: O_9  and  C_10
REMARK                            x       y       z     vdW  Elec       q    Type
REMARK                         _______ _______ _______ _____ _____    ______ ____
ROOT
ATOM      1  O   UNL     1      49.475   6.776  13.976  0.00  0.00    +0.000 OA
ATOM      2  C   UNL     1      48.722   6.996  14.921  0.00  0.00    +0.000 C 
ATOM      3  N   UNL     1      47.547   7.686  14.776  0.00  0.00    +0.000 N 
ATOM      4  H   UNL     1      47.042   7.994  15.600  0.00  0.00    +0.000 HD
ENDROOT
BRANCH   2   5
ATOM      5  C   UNL     1      49.014   6.477  16.262  0.00  0.00    +0.000 A 
ATOM      6  C   UNL     1      49.714   7.269  17.163  0.00  0.00    +0.000 A 
ATOM      7  S   UNL     1      49.973   6.522  18.673  0.00  0.00    +0.000 S 
ATOM      8  C   UNL     1      49.121   5.131  18.192  0.00  0.00    +0.000 A 
ATOM      9  N   UNL     1      48.932   4.096  19.054  0.00  0.00    +0.000 NA
ATOM     10  C   UNL     1      48.235   3.122  18.573  0.00  0.00    +0.000 A 
ATOM     11  N   UNL     1      47.722   3.082  17.303  0.00  0.00    +0.000 N 
ATOM     12  C   UNL     1      47.957   4.071  16.370  0.00  0.00    +0.000 A 
ATOM     13  O   UNL     1      47.603   3.937  15.204  0.00  0.00    +0.000 OA
ATOM     14  C   UNL     1      48.681   5.216  16.883  0.00  0.00    +0.000 A 
ATOM     15  H   UNL     1      47.212   2.276  16.977  0.00  0.00    +0.000 HD
ENDBRANCH   2   5
BRANCH   3  16
ATOM     16  C   UNL     1      47.136   8.254  13.520  0.00  0.00    +0.000 C 
BRANCH  16  17
ATOM     17  C   UNL     1      46.263   7.307  12.740  0.00  0.00    +0.000 A 
ATOM     18  C   UNL     1      45.296   7.811  11.860  0.00  0.00    +0.000 A 
ATOM     19  C   UNL     1      44.520   6.945  11.090  0.00  0.00    +0.000 A 
ATOM     20  C   UNL     1      44.740   5.567  11.151  0.00  0.00    +0.000 A 
ATOM     21  C   UNL     1      45.640   5.053  12.085  0.00  0.00    +0.000 A 
ATOM     22  C   UNL     1      46.394   5.918  12.882  0.00  0.00    +0.000 A 
BRANCH  20  23
ATOM     23  O   UNL     1      44.080   4.647  10.366  0.00  0.00    +0.000 OA
BRANCH  23  24
ATOM     24  C   UNL     1      44.794   3.892   9.465  0.00  0.00    +0.000 A 
ATOM     25  C   UNL     1      45.581   4.399   8.432  0.00  0.00    +0.000 A 
ATOM     26  C   UNL     1      46.211   3.518   7.554  0.00  0.00    +0.000 A 
ATOM     27  C   UNL     1      46.079   2.158   7.779  0.00  0.00    +0.000 A 
ATOM     28  N   UNL     1      45.380   1.632   8.808  0.00  0.00    +0.000 NA
ATOM     29  C   UNL     1      44.758   2.513   9.629  0.00  0.00    +0.000 A 
ENDBRANCH  23  24
ENDBRANCH  20  23
ENDBRANCH  16  17
ENDBRANCH   3  16
TORSDOF 5
ENDMDL
MODEL 5
REMARK VINA RESULT:    -7.251      1.805      3.046
REMARK INTER + INTRA:         -10.134
REMARK INTER:                  -9.776
REMARK INTRA:                  -0.358
REMARK UNBOUND:                -0.764
REMARK  Name = 
REMARK  5 active torsions:
REMARK  status: ('A' for Active; 'I' for Inactive)
REMARK    1  A    between atoms: C_2  and  C_18
REMARK    2  A    between atoms: N_3  and  C_4
REMARK    3  A    between atoms: C_4  and  C_5
REMARK    4  A    between atoms: C_8  and  O_9
REMARK    5  A    between atoms: O_9  and  C_10
REMARK                            x       y       z     vdW  Elec       q    Type
REMARK                         _______ _______ _______ _____ _____    ______ ____
ROOT
ATOM      1  O   UNL     1      46.903   4.435  15.467  0.00  0.00    +0.000 OA
ATOM      2  C   UNL     1      47.131   5.404  14.747  0.00  0.00    +0.000 C 
ATOM      3  N   UNL     1      46.269   5.801  13.758  0.00  0.00    +0.000 N 
ATOM      4  H   UNL     1      46.569   6.492  13.079  0.00  0.00    +0.000 HD
ENDROOT
BRANCH   2   5
ATOM      5  C   UNL     1      48.326   6.234  14.944  0.00  0.00    +0.000 A 
ATOM      6  C   UNL     1      48.875   6.349  16.214  0.00  0.00    +0.000 A 
ATOM      7  S   UNL     1      50.255   7.347  16.275  0.00  0.00    +0.000 S 
ATOM      8  C   UNL     1      50.194   7.626  14.598  0.00  0.00    +0.000 A 
ATOM      9  N   UNL     1      51.139   8.386  13.983  0.00  0.00    +0.000 NA
ATOM     10  C   UNL     1      50.995   8.482  12.703  0.00  0.00    +0.000 A 
ATOM     11  N   UNL     1      49.982   7.902  11.986  0.00  0.00    +0.000 N 
ATOM     12  C   UNL     1      48.958   7.192  12.577  0.00  0.00    +0.000 A 
ATOM     13  O   UNL     1      47.995   6.808  11.924  0.00  0.00    +0.000 OA
ATOM     14  C   UNL     1      49.110   7.002  14.006  0.00  0.00    +0.000 A 
ATOM     15  H   UNL     1      49.909   8.043  10.991  0.00  0.00    +0.000 HD
ENDBRANCH   2   5
BRANCH   3  16
ATOM     16  C   UNL     1      45.062   5.080  13.453  0.00  0.00    +0.000 C 
BRANCH  16  17
ATOM     17  C   UNL     1      45.045   4.602  12.025  0.00  0.00    +0.000 A 
ATOM     18  C   UNL     1      44.481   3.359  11.709  0.00  0.00    +0.000 A 
ATOM     19  C   UNL     1      44.409   2.930  10.384  0.00  0.00    +0.000 A 
ATOM     20  C   UNL     1      44.850   3.763   9.354  0.00  0.00    +0.000 A 
ATOM     21  C   UNL     1      45.489   4.964   9.665  0.00  0.00    +0.000 A 
ATOM     22  C   UNL     1      45.594   5.380  10.995  0.00  0.00    +0.000 A 
BRANCH  20  23
ATOM     23  O   UNL     1      44.739   3.457   8.016  0.00  0.00    +0.000 OA
BRANCH  23  24
ATOM     24  C   UNL     1      45.816   2.912   7.356  0.00  0.00    +0.000 A 
ATOM     25  C   UNL     1      46.447   3.469   6.244  0.00  0.00    +0.000 A 
ATOM     26  C   UNL     1      47.498   2.784   5.637  0.00  0.00    +0.000 A 
ATOM     27  C   UNL     1      47.920   1.592   6.202  0.00  0.00    +0.000 A 
ATOM     28  N   UNL     1      47.376   1.056   7.316  0.00  0.00    +0.000 NA
ATOM     29  C   UNL     1      46.339   1.732   7.868  0.00  0.00    +0.000 A 
ENDBRANCH  23  24
ENDBRANCH  20  23
ENDBRANCH  16  17
ENDBRANCH   3  16
TORSDOF 5
ENDMDL
MODEL 6
REMARK VINA RESULT:    -7.153      3.198      4.399
REMARK INTER + INTRA:         -10.008
REMARK INTER:                  -9.582
REMARK INTRA:                  -0.426
REMARK UNBOUND:                -0.764
REMARK  Name = 
REMARK  5 active torsions:
REMARK  status: ('A' for Active; 'I' for Inactive)
REMARK    1  A    between atoms: C_2  and  C_18
REMARK    2  A    between atoms: N_3  and  C_4
REMARK    3  A    between atoms: C_4  and  C_5
REMARK    4  A    between atoms: C_8  and  O_9
REMARK    5  A    between atoms: O_9  and  C_10
REMARK                            x       y       z     vdW  Elec       q    Type
REMARK                         _______ _______ _______ _____ _____    ______ ____
ROOT
ATOM      1  O   UNL     1      47.242   6.320  13.235  0.00  0.00    +0.000 OA
ATOM      2  C   UNL     1      46.474   7.174  12.799  0.00  0.00    +0.000 C 
ATOM      3  N   UNL     1      45.120   6.975  12.733  0.00  0.00    +0.000 N 
ATOM      4  H   UNL     1      44.543   7.628  12.214  0.00  0.00    +0.000 HD
ENDROOT
BRANCH   2   5
ATOM      5  C   UNL     1      46.964   8.490  12.373  0.00  0.00    +0.000 A 
ATOM      6  C   UNL     1      46.086   9.565  12.335  0.00  0.00    +0.000 A 
ATOM      7  S   UNL     1      46.807  11.020  11.818  0.00  0.00    +0.000 S 
ATOM      8  C   UNL     1      48.329  10.275  11.667  0.00  0.00    +0.000 A 
ATOM      9  N   UNL     1      49.422  10.992  11.293  0.00  0.00    +0.000 NA
ATOM     10  C   UNL     1      50.519  10.311  11.258  0.00  0.00    +0.000 A 
ATOM     11  N   UNL     1      50.618   8.976  11.547  0.00  0.00    +0.000 N 
ATOM     12  C   UNL     1      49.525   8.193  11.851  0.00  0.00    +0.000 A 
ATOM     13  O   UNL     1      49.629   6.977  11.965  0.00  0.00    +0.000 OA
ATOM     14  C   UNL     1      48.279   8.924  11.966  0.00  0.00    +0.000 A 
ATOM     15  H   UNL     1      51.501   8.496  11.469  0.00  0.00    +0.000 HD
ENDBRANCH   2   5
BRANCH   3  16
ATOM     16  C   UNL     1      44.503   5.733  13.116  0.00  0.00    +0.000 C 
BRANCH  16  17
ATOM     17  C   UNL     1      44.444   4.763  11.965  0.00  0.00    +0.000 A 
ATOM     18  C   UNL     1      43.964   5.185  10.718  0.00  0.00    +0.000 A 
ATOM     19  C   UNL     1      43.957   4.313   9.630  0.00  0.00    +0.000 A 
ATOM     20  C   UNL     1      44.482   3.025   9.763  0.00  0.00    +0.000 A 
ATOM     21  C   UNL     1      44.884   2.571  11.019  0.00  0.00    +0.000 A 
ATOM     22  C   UNL     1      44.859   3.433  12.118  0.00  0.00    +0.000 A 
BRANCH  20  23
ATOM     23  O   UNL     1      44.593   2.129   8.723  0.00  0.00    +0.000 OA
BRANCH  23  24
ATOM     24  C   UNL     1      45.653   2.232   7.853  0.00  0.00    +0.000 A 
ATOM     25  C   UNL     1      45.860   3.275   6.951  0.00  0.00    +0.000 A 
ATOM     26  C   UNL     1      46.951   3.228   6.086  0.00  0.00    +0.000 A 
ATOM     27  C   UNL     1      47.833   2.166   6.196  0.00  0.00    +0.000 A 
ATOM     28  N   UNL     1      47.702   1.173   7.102  0.00  0.00    +0.000 NA
ATOM     29  C   UNL     1      46.616   1.233   7.911  0.00  0.00    +0.000 A 
ENDBRANCH  23  24
ENDBRANCH  20  23
ENDBRANCH  16  17
ENDBRANCH   3  16
TORSDOF 5
ENDMDL
MODEL 7
REMARK VINA RESULT:    -7.096      2.611      3.397
REMARK INTER + INTRA:          -9.933
REMARK INTER:                  -9.193
REMARK INTRA:                  -0.740
REMARK UNBOUND:                -0.764
REMARK  Name = 
REMARK  5 active torsions:
REMARK  status: ('A' for Active; 'I' for Inactive)
REMARK    1  A    between atoms: C_2  and  C_18
REMARK    2  A    between atoms: N_3  and  C_4
REMARK    3  A    between atoms: C_4  and  C_5
REMARK    4  A    between atoms: C_8  and  O_9
REMARK    5  A    between atoms: O_9  and  C_10
REMARK                            x       y       z     vdW  Elec       q    Type
REMARK                         _______ _______ _______ _____ _____    ______ ____
ROOT
ATOM      1  O   UNL     1      50.180   6.596  15.380  0.00  0.00    +0.000 OA
ATOM      2  C   UNL     1      49.075   6.545  15.912  0.00  0.00    +0.000 C 
ATOM      3  N   UNL     1      47.924   6.869  15.243  0.00  0.00    +0.000 N 
ATOM      4  H   UNL     1      47.058   6.980  15.759  0.00  0.00    +0.000 HD
ENDROOT
BRANCH   2   5
ATOM      5  C   UNL     1      48.917   6.074  17.293  0.00  0.00    +0.000 A 
ATOM      6  C   UNL     1      49.290   4.777  17.619  0.00  0.00    +0.000 A 
ATOM      7  S   UNL     1      49.043   4.385  19.260  0.00  0.00    +0.000 S 
ATOM      8  C   UNL     1      48.469   5.949  19.603  0.00  0.00    +0.000 A 
ATOM      9  N   UNL     1      48.115   6.300  20.868  0.00  0.00    +0.000 NA
ATOM     10  C   UNL     1      47.735   7.528  20.994  0.00  0.00    +0.000 A 
ATOM     11  N   UNL     1      47.662   8.431  19.966  0.00  0.00    +0.000 N 
ATOM     12  C   UNL     1      47.933   8.098  18.656  0.00  0.00    +0.000 A 
ATOM     13  O   UNL     1      47.722   8.890  17.745  0.00  0.00    +0.000 OA
ATOM     14  C   UNL     1      48.425   6.747  18.472  0.00  0.00    +0.000 A 
ATOM     15  H   UNL     1      47.326   9.368  20.126  0.00  0.00    +0.000 HD
ENDBRANCH   2   5
BRANCH   3  16
ATOM     16  C   UNL     1      47.930   7.348  13.886  0.00  0.00    +0.000 C 
BRANCH  16  17
ATOM     17  C   UNL     1      46.955   6.591  13.024  0.00  0.00    +0.000 A 
ATOM     18  C   UNL     1      46.504   7.149  11.821  0.00  0.00    +0.000 A 
ATOM     19  C   UNL     1      45.646   6.434  10.986  0.00  0.00    +0.000 A 
ATOM     20  C   UNL     1      45.272   5.130  11.319  0.00  0.00    +0.000 A 
ATOM     21  C   UNL     1      45.647   4.599  12.553  0.00  0.00    +0.000 A 
ATOM     22  C   UNL     1      46.479   5.328  13.407  0.00  0.00    +0.000 A 
BRANCH  20  23
ATOM     23  O   UNL     1      44.499   4.323  10.515  0.00  0.00    +0.000 OA
BRANCH  23  24
ATOM     24  C   UNL     1      45.088   3.639   9.478  0.00  0.00    +0.000 A 
ATOM     25  C   UNL     1      45.225   2.253   9.398  0.00  0.00    +0.000 A 
ATOM     26  C   UNL     1      45.892   1.690   8.312  0.00  0.00    +0.000 A 
ATOM     27  C   UNL     1      46.348   2.532   7.311  0.00  0.00    +0.000 A 
ATOM     28  N   UNL     1      46.174   3.872   7.322  0.00  0.00    +0.000 NA
ATOM     29  C   UNL     1      45.545   4.391   8.403  0.00  0.00    +0.000 A 
ENDBRANCH  23  24
ENDBRANCH  20  23
ENDBRANCH  16  17
ENDBRANCH   3  16
TORSDOF 5
ENDMDL
MODEL 8
REMARK VINA RESULT:    -7.085      3.646      7.944
REMARK INTER + INTRA:          -9.920
REMARK INTER:                  -9.022
REMARK INTRA:                  -0.898
REMARK UNBOUND:                -0.764
REMARK  Name = 
REMARK  5 active torsions:
REMARK  status: ('A' for Active; 'I' for Inactive)
REMARK    1  A    between atoms: C_2  and  C_18
REMARK    2  A    between atoms: N_3  and  C_4
REMARK    3  A    between atoms: C_4  and  C_5
REMARK    4  A    between atoms: C_8  and  O_9
REMARK    5  A    between atoms: O_9  and  C_10
REMARK                            x       y       z     vdW  Elec       q    Type
REMARK                         _______ _______ _______ _____ _____    ______ ____
ROOT
ATOM      1  O   UNL     1      48.033   6.682  11.898  0.00  0.00    +0.000 OA
ATOM      2  C   UNL     1      47.063   6.762  12.648  0.00  0.00    +0.000 C 
ATOM      3  N   UNL     1      47.146   7.322  13.896  0.00  0.00    +0.000 N 
ATOM      4  H   UNL     1      46.374   7.216  14.545  0.00  0.00    +0.000 HD
ENDROOT
BRANCH   2   5
ATOM      5  C   UNL     1      45.734   6.308  12.222  0.00  0.00    +0.000 A 
ATOM      6  C   UNL     1      44.856   7.215  11.644  0.00  0.00    +0.000 A 
ATOM      7  S   UNL     1      43.356   6.533  11.208  0.00  0.00    +0.000 S 
ATOM      8  C   UNL     1      43.842   4.991  11.736  0.00  0.00    +0.000 A 
ATOM      9  N   UNL     1      43.018   3.917  11.605  0.00  0.00    +0.000 NA
ATOM     10  C   UNL     1      43.529   2.802  12.009  0.00  0.00    +0.000 A 
ATOM     11  N   UNL     1      44.781   2.666  12.547  0.00  0.00    +0.000 N 
ATOM     12  C   UNL     1      45.618   3.739  12.774  0.00  0.00    +0.000 A 
ATOM     13  O   UNL     1      46.672   3.601  13.385  0.00  0.00    +0.000 OA
ATOM     14  C   UNL     1      45.116   5.004  12.278  0.00  0.00    +0.000 A 
ATOM     15  H   UNL     1      45.108   1.770  12.873  0.00  0.00    +0.000 HD
ENDBRANCH   2   5
BRANCH   3  16
ATOM     16  C   UNL     1      48.386   7.806  14.443  0.00  0.00    +0.000 C 
BRANCH  16  17
ATOM     17  C   UNL     1      48.972   6.837  15.435  0.00  0.00    +0.000 A 
ATOM     18  C   UNL     1      50.312   6.959  15.825  0.00  0.00    +0.000 A 
ATOM     19  C   UNL     1      50.852   6.103  16.784  0.00  0.00    +0.000 A 
ATOM     20  C   UNL     1      50.041   5.151  17.407  0.00  0.00    +0.000 A 
ATOM     21  C   UNL     1      48.731   4.967  16.966  0.00  0.00    +0.000 A 
ATOM     22  C   UNL     1      48.199   5.801  15.979  0.00  0.00    +0.000 A 
BRANCH  20  23
ATOM     23  O   UNL     1      50.467   4.324  18.423  0.00  0.00    +0.000 OA
BRANCH  23  24
ATOM     24  C   UNL     1      51.286   3.258  18.129  0.00  0.00    +0.000 A 
ATOM     25  C   UNL     1      52.653   3.192  18.396  0.00  0.00    +0.000 A 
ATOM     26  C   UNL     1      53.376   2.070  17.996  0.00  0.00    +0.000 A 
ATOM     27  C   UNL     1      52.693   1.026  17.396  0.00  0.00    +0.000 A 
ATOM     28  N   UNL     1      51.360   1.027  17.181  0.00  0.00    +0.000 NA
ATOM     29  C   UNL     1      50.688   2.142  17.557  0.00  0.00    +0.000 A 
ENDBRANCH  23  24
ENDBRANCH  20  23
ENDBRANCH  16  17
ENDBRANCH   3  16
TORSDOF 5
ENDMDL
MODEL 9
REMARK VINA RESULT:    -6.914      3.908      8.715
REMARK INTER + INTRA:          -9.699
REMARK INTER:                  -8.868
REMARK INTRA:                  -0.831
REMARK UNBOUND:                -0.764
REMARK  Name = 
REMARK  5 active torsions:
REMARK  status: ('A' for Active; 'I' for Inactive)
REMARK    1  A    between atoms: C_2  and  C_18
REMARK    2  A    between atoms: N_3  and  C_4
REMARK    3  A    between atoms: C_4  and  C_5
REMARK    4  A    between atoms: C_8  and  O_9
REMARK    5  A    between atoms: O_9  and  C_10
REMARK                            x       y       z     vdW  Elec       q    Type
REMARK                         _______ _______ _______ _____ _____    ______ ____
ROOT
ATOM      1  O   UNL     1      47.172   3.020  14.030  0.00  0.00    +0.000 OA
ATOM      2  C   UNL     1      46.784   4.091  14.489  0.00  0.00    +0.000 C 
ATOM      3  N   UNL     1      46.796   4.360  15.832  0.00  0.00    +0.000 N 
ATOM      4  H   UNL     1      46.313   5.179  16.184  0.00  0.00    +0.000 HD
ENDROOT
BRANCH   2   5
ATOM      5  C   UNL     1      46.333   5.177  13.609  0.00  0.00    +0.000 A 
ATOM      6  C   UNL     1      47.204   6.212  13.302  0.00  0.00    +0.000 A 
ATOM      7  S   UNL     1      46.530   7.392  12.273  0.00  0.00    +0.000 S 
ATOM      8  C   UNL     1      45.063   6.538  12.166  0.00  0.00    +0.000 A 
ATOM      9  N   UNL     1      44.045   6.994  11.388  0.00  0.00    +0.000 NA
ATOM     10  C   UNL     1      43.006   6.228  11.367  0.00  0.00    +0.000 A 
ATOM     11  N   UNL     1      42.886   5.057  12.068  0.00  0.00    +0.000 N 
ATOM     12  C   UNL     1      43.858   4.598  12.932  0.00  0.00    +0.000 A 
ATOM     13  O   UNL     1      43.660   3.623  13.647  0.00  0.00    +0.000 OA
ATOM     14  C   UNL     1      45.071   5.390  12.940  0.00  0.00    +0.000 A 
ATOM     15  H   UNL     1      42.032   4.521  12.033  0.00  0.00    +0.000 HD
ENDBRANCH   2   5
BRANCH   3  16
ATOM     16  C   UNL     1      47.210   3.388  16.809  0.00  0.00    +0.000 C 
BRANCH  16  17
ATOM     17  C   UNL     1      48.653   3.570  17.199  0.00  0.00    +0.000 A 
ATOM     18  C   UNL     1      49.087   4.795  17.724  0.00  0.00    +0.000 A 
ATOM     19  C   UNL     1      50.407   4.959  18.141  0.00  0.00    +0.000 A 
ATOM     20  C   UNL     1      51.296   3.882  18.089  0.00  0.00    +0.000 A 
ATOM     21  C   UNL     1      50.896   2.687  17.492  0.00  0.00    +0.000 A 
ATOM     22  C   UNL     1      49.582   2.532  17.041  0.00  0.00    +0.000 A 
BRANCH  20  23
ATOM     23  O   UNL     1      52.590   3.930  18.557  0.00  0.00    +0.000 OA
BRANCH  23  24
ATOM     24  C   UNL     1      53.602   4.316  17.710  0.00  0.00    +0.000 A 
ATOM     25  C   UNL     1      53.685   5.547  17.060  0.00  0.00    +0.000 A 
ATOM     26  C   UNL     1      54.741   5.790  16.184  0.00  0.00    +0.000 A 
ATOM     27  C   UNL     1      55.710   4.813  16.033  0.00  0.00    +0.000 A 
ATOM     28  N   UNL     1      55.698   3.636  16.696  0.00  0.00    +0.000 NA
ATOM     29  C   UNL     1      54.645   3.419  17.522  0.00  0.00    +0.000 A 
ENDBRANCH  23  24
ENDBRANCH  20  23
ENDBRANCH  16  17
ENDBRANCH   3  16
TORSDOF 5
ENDMDL
