MODEL 1
REMARK VINA RESULT:    -7.931      0.000      0.000
REMARK INTER + INTRA:         -12.093
REMARK INTER:                 -11.177
REMARK INTRA:                  -0.916
REMARK UNBOUND:                -0.916
REMARK  Name = 
REMARK  8 active torsions:
REMARK  status: ('A' for Active; 'I' for Inactive)
REMARK    1  A    between atoms: C_1  and  N_2
REMARK    2  A    between atoms: C_4  and  C_5
REMARK    3  A    between atoms: N_7  and  C_8
REMARK    4  A    between atoms: C_8  and  C_9
REMARK    5  A    between atoms: C_12  and  C_13
REMARK    6  A    between atoms: C_13  and  O_14
REMARK    7  A    between atoms: O_14  and  C_15
REMARK    8  A    between atoms: C_15  and  C_16
REMARK                            x       y       z     vdW  Elec       q    Type
REMARK                         _______ _______ _______ _____ _____    ______ ____
ROOT
ATOM      1  C   UNL     1      46.658   7.585  12.869  0.00  0.00    +0.000 C 
ENDROOT
BRANCH   1   2
ATOM      2  C   UNL     1      45.857   6.418  12.374  0.00  0.00    +0.000 A 
ATOM      3  C   UNL     1      45.298   5.485  13.249  0.00  0.00    +0.000 A 
ATOM      4  C   UNL     1      44.634   4.372  12.740  0.00  0.00    +0.000 A 
ATOM      5  C   UNL     1      44.529   4.225  11.359  0.00  0.00    +0.000 A 
ATOM      6  N   UNL     1      45.008   5.149  10.492  0.00  0.00    +0.000 NA
ATOM      7  C   UNL     1      45.661   6.212  11.014  0.00  0.00    +0.000 A 
BRANCH   5   8
ATOM      8  C   UNL     1      43.830   3.018  10.773  0.00  0.00    +0.000 C 
BRANCH   8   9
ATOM      9  O   UNL     1      44.110   2.842   9.381  0.00  0.00    +0.000 OA
BRANCH   9  10
ATOM     10  C   UNL     1      44.853   1.650   9.122  0.00  0.00    +0.000 C 
BRANCH  10  11
ATOM     11  C   UNL     1      45.951   1.952   8.157  0.00  0.00    +0.000 A 
ATOM     12  C   UNL     1      46.839   0.980   7.740  0.00  0.00    +0.000 A 
ATOM     13  N   UNL     1      47.833   1.194   6.857  0.00  0.00    +0.000 NA
ATOM     14  C   UNL     1      47.916   2.443   6.372  0.00  0.00    +0.000 A 
ATOM     15  N   UNL     1      47.106   3.466   6.684  0.00  0.00    +0.000 NA
ATOM     16  C   UNL     1      46.132   3.189   7.575  0.00  0.00    +0.000 A 
ENDBRANCH  10  11
ENDBRANCH   9  10
ENDBRANCH   8   9
ENDBRANCH   5   8
ENDBRANCH   1   2
BRANCH   1  19
ATOM     17  C   UNL     1      48.384   6.718  14.362  0.00  0.00    +0.000 C 
ATOM     18  O   UNL     1      49.031   6.294  13.412  0.00  0.00    +0.000 OA
ATOM     19  N   UNL     1      47.187   7.379  14.193  0.00  0.00    +0.000 N 
ATOM     20  H   UNL     1      46.702   7.768  14.988  0.00  0.00    +0.000 HD
BRANCH  17  24
ATOM     21  C   UNL     1      50.477   7.552  18.834  0.00  0.00    +0.000 C 
ATOM     22  N   UNL     1      49.758   6.908  17.757  0.00  0.00    +0.000 N 
ATOM     23  C   UNL     1      49.576   7.443  16.508  0.00  0.00    +0.000 A 
ATOM     24  C   UNL     1      48.833   6.555  15.747  0.00  0.00    +0.000 A 
ATOM     25  C   UNL     1      48.566   5.423  16.598  0.00  0.00    +0.000 A 
ATOM     26  C   UNL     1      47.875   4.213  16.424  0.00  0.00    +0.000 A 
ATOM     27  N   UNL     1      47.778   3.315  17.437  0.00  0.00    +0.000 NA
ATOM     28  C   UNL     1      48.357   3.603  18.621  0.00  0.00    +0.000 A 
ATOM     29  C   UNL     1      49.061   4.764  18.897  0.00  0.00    +0.000 A 
ATOM     30  C   UNL     1      49.152   5.677  17.842  0.00  0.00    +0.000 A 
ENDBRANCH  17  24
ENDBRANCH   1  19
TORSDOF 7
ENDMDL
MODEL 2
REMARK VINA RESULT:    -7.617      1.646      2.665
REMARK INTER + INTRA:         -11.650
REMARK INTER:                 -10.812
REMARK INTRA:                  -0.838
REMARK UNBOUND:                -0.916
REMARK  Name = 
REMARK  8 active torsions:
REMARK  status: ('A' for Active; 'I' for Inactive)
REMARK    1  A    between atoms: C_1  and  N_2
REMARK    2  A    between atoms: C_4  and  C_5
REMARK    3  A    between atoms: N_7  and  C_8
REMARK    4  A    between atoms: C_8  and  C_9
REMARK    5  A    between atoms: C_12  and  C_13
REMARK    6  A    between atoms: C_13  and  O_14
REMARK    7  A    between atoms: O_14  and  C_15
REMARK    8  A    between atoms: C_15  and  C_16
REMARK                            x       y       z     vdW  Elec       q    Type
REMARK                         _______ _______ _______ _____ _____    ______ ____
ROOT
ATOM      1  C   UNL     1      47.872   7.000  13.561  0.00  0.00    +0.000 C 
ENDROOT
BRANCH   1   2
ATOM      2  C   UNL     1      46.873   6.198  12.782  0.00  0.00    +0.000 A 
ATOM      3  C   UNL     1      46.605   6.462  11.437  0.00  0.00    +0.000 A 
ATOM      4  C   UNL     1      45.610   5.747  10.778  0.00  0.00    +0.000 A 
ATOM      5  C   UNL     1      44.911   4.766  11.476  0.00  0.00    +0.000 A 
ATOM      6  N   UNL     1      45.196   4.448  12.763  0.00  0.00    +0.000 NA
ATOM      7  C   UNL     1      46.158   5.170  13.382  0.00  0.00    +0.000 A 
BRANCH   5   8
ATOM      8  C   UNL     1      43.811   3.982  10.795  0.00  0.00    +0.000 C 
BRANCH   8   9
ATOM      9  O   UNL     1      44.167   3.571   9.472  0.00  0.00    +0.000 OA
BRANCH   9  10
ATOM     10  C   UNL     1      44.839   2.310   9.456  0.00  0.00    +0.000 C 
BRANCH  10  11
ATOM     11  C   UNL     1      45.761   2.257   8.282  0.00  0.00    +0.000 A 
ATOM     12  C   UNL     1      45.973   3.357   7.475  0.00  0.00    +0.000 A 
ATOM     13  N   UNL     1      46.809   3.368   6.419  0.00  0.00    +0.000 NA
ATOM     14  C   UNL     1      47.460   2.218   6.185  0.00  0.00    +0.000 A 
ATOM     15  N   UNL     1      47.354   1.091   6.905  0.00  0.00    +0.000 NA
ATOM     16  C   UNL     1      46.501   1.142   7.947  0.00  0.00    +0.000 A 
ENDBRANCH  10  11
ENDBRANCH   9  10
ENDBRANCH   8   9
ENDBRANCH   5   8
ENDBRANCH   1   2
BRANCH   1  19
ATOM     17  C   UNL     1      48.934   6.621  15.727  0.00  0.00    +0.000 C 
ATOM     18  O   UNL     1      50.047   6.674  15.221  0.00  0.00    +0.000 OA
ATOM     19  N   UNL     1      47.785   6.775  14.981  0.00  0.00    +0.000 N 
ATOM     20  H   UNL     1      46.882   6.784  15.431  0.00  0.00    +0.000 HD
BRANCH  17  24
ATOM     21  C   UNL     1      48.795   4.462  20.243  0.00  0.00    +0.000 C 
ATOM     22  N   UNL     1      48.670   5.448  19.191  0.00  0.00    +0.000 N 
ATOM     23  C   UNL     1      48.962   5.223  17.871  0.00  0.00    +0.000 A 
ATOM     24  C   UNL     1      48.737   6.392  17.161  0.00  0.00    +0.000 A 
ATOM     25  C   UNL     1      48.278   7.363  18.120  0.00  0.00    +0.000 A 
ATOM     26  C   UNL     1      47.891   8.710  18.036  0.00  0.00    +0.000 A 
ATOM     27  N   UNL     1      47.503   9.393  19.143  0.00  0.00    +0.000 NA
ATOM     28  C   UNL     1      47.495   8.757  20.333  0.00  0.00    +0.000 A 
ATOM     29  C   UNL     1      47.857   7.433  20.525  0.00  0.00    +0.000 A 
ATOM     30  C   UNL     1      48.252   6.745  19.374  0.00  0.00    +0.000 A 
ENDBRANCH  17  24
ENDBRANCH   1  19
TORSDOF 7
ENDMDL
MODEL 3
REMARK VINA RESULT:    -7.473      1.724      2.116
REMARK INTER + INTRA:         -11.447
REMARK INTER:                 -10.687
REMARK INTRA:                  -0.761
REMARK UNBOUND:                -0.916
REMARK  Name = 
REMARK  8 active torsions:
REMARK  status: ('A' for Active; 'I' for Inactive)
REMARK    1  A    between atoms: C_1  and  N_2
REMARK    2  A    between atoms: C_4  and  C_5
REMARK    3  A    between atoms: N_7  and  C_8
REMARK    4  A    between atoms: C_8  and  C_9
REMARK    5  A    between atoms: C_12  and  C_13
REMARK    6  A    between atoms: C_13  and  O_14
REMARK    7  A    between atoms: O_14  and  C_15
REMARK    8  A    between atoms: C_15  and  C_16
REMARK                            x       y       z     vdW  Elec       q    Type
REMARK                         _______ _______ _______ _____ _____    ______ ____
ROOT
ATOM      1  C   UNL     1      48.215   6.486  13.731  0.00  0.00    +0.000 C 
ENDROOT
BRANCH   1   2
ATOM      2  C   UNL     1      46.991   5.949  13.050  0.00  0.00    +0.000 A 
ATOM      3  C   UNL     1      46.527   4.653  13.284  0.00  0.00    +0.000 A 
ATOM      4  C   UNL     1      45.436   4.169  12.566  0.00  0.00    +0.000 A 
ATOM      5  C   UNL     1      44.820   5.002  11.637  0.00  0.00    +0.000 A 
ATOM      6  N   UNL     1      45.212   6.284  11.437  0.00  0.00    +0.000 NA
ATOM      7  C   UNL     1      46.284   6.722  12.138  0.00  0.00    +0.000 A 
BRANCH   5   8
ATOM      8  C   UNL     1      43.644   4.502  10.827  0.00  0.00    +0.000 C 
BRANCH   8   9
ATOM      9  O   UNL     1      44.007   3.462   9.915  0.00  0.00    +0.000 OA
BRANCH   9  10
ATOM     10  C   UNL     1      44.535   3.972   8.689  0.00  0.00    +0.000 C 
BRANCH  10  11
ATOM     11  C   UNL     1      45.550   3.017   8.154  0.00  0.00    +0.000 A 
ATOM     12  C   UNL     1      46.551   3.427   7.295  0.00  0.00    +0.000 A 
ATOM     13  N   UNL     1      47.502   2.611   6.801  0.00  0.00    +0.000 NA
ATOM     14  C   UNL     1      47.436   1.334   7.206  0.00  0.00    +0.000 A 
ATOM     15  N   UNL     1      46.528   0.819   8.048  0.00  0.00    +0.000 NA
ATOM     16  C   UNL     1      45.601   1.684   8.507  0.00  0.00    +0.000 A 
ENDBRANCH  10  11
ENDBRANCH   9  10
ENDBRANCH   8   9
ENDBRANCH   5   8
ENDBRANCH   1   2
BRANCH   1  19
ATOM     17  C   UNL     1      48.966   6.722  16.042  0.00  0.00    +0.000 C 
ATOM     18  O   UNL     1      50.071   6.277  15.757  0.00  0.00    +0.000 OA
ATOM     19  N   UNL     1      47.972   6.867  15.098  0.00  0.00    +0.000 N 
ATOM     20  H   UNL     1      47.089   7.288  15.347  0.00  0.00    +0.000 HD
BRANCH  17  24
ATOM     21  C   UNL     1      47.562   9.459  19.993  0.00  0.00    +0.000 C 
ATOM     22  N   UNL     1      47.988   8.337  19.185  0.00  0.00    +0.000 N 
ATOM     23  C   UNL     1      48.248   8.395  17.840  0.00  0.00    +0.000 A 
ATOM     24  C   UNL     1      48.617   7.133  17.404  0.00  0.00    +0.000 A 
ATOM     25  C   UNL     1      48.579   6.280  18.564  0.00  0.00    +0.000 A 
ATOM     26  C   UNL     1      48.841   4.917  18.782  0.00  0.00    +0.000 A 
ATOM     27  N   UNL     1      48.708   4.373  20.019  0.00  0.00    +0.000 NA
ATOM     28  C   UNL     1      48.317   5.162  21.041  0.00  0.00    +0.000 A 
ATOM     29  C   UNL     1      48.036   6.515  20.934  0.00  0.00    +0.000 A 
ATOM     30  C   UNL     1      48.180   7.059  19.654  0.00  0.00    +0.000 A 
ENDBRANCH  17  24
ENDBRANCH   1  19
TORSDOF 7
ENDMDL
MODEL 4
REMARK VINA RESULT:    -7.253      1.708      2.258
REMARK INTER + INTRA:         -11.137
REMARK INTER:                 -10.404
REMARK INTRA:                  -0.733
REMARK UNBOUND:                -0.916
REMARK  Name = 
REMARK  8 active torsions:
REMARK  status: ('A' for Active; 'I' for Inactive)
REMARK    1  A    between atoms: C_1  and  N_2
REMARK    2  A    between atoms: C_4  and  C_5
REMARK    3  A    between atoms: N_7  and  C_8
REMARK    4  A    between atoms: C_8  and  C_9
REMARK    5  A    between atoms: C_12  and  C_13
REMARK    6  A    between atoms: C_13  and  O_14
REMARK    7  A    between atoms: O_14  and  C_15
REMARK    8  A    between atoms: C_15  and  C_16
REMARK                            x       y       z     vdW  Elec       q    Type
REMARK                         _______ _______ _______ _____ _____    ______ ____
ROOT
ATOM      1  C   UNL     1      47.959   6.844  13.850  0.00  0.00    +0.000 C 
ENDROOT
BRANCH   1   2
ATOM      2  C   UNL     1      46.966   5.954  13.164  0.00  0.00    +0.000 A 
ATOM      3  C   UNL     1      46.481   6.241  11.886  0.00  0.00    +0.000 A 
ATOM      4  C   UNL     1      45.498   5.432  11.323  0.00  0.00    +0.000 A 
ATOM      5  C   UNL     1      45.030   4.339  12.047  0.00  0.00    +0.000 A 
ATOM      6  N   UNL     1      45.530   4.004  13.261  0.00  0.00    +0.000 NA
ATOM      7  C   UNL     1      46.474   4.816  13.790  0.00  0.00    +0.000 A 
BRANCH   5   8
ATOM      8  C   UNL     1      43.949   3.450  11.473  0.00  0.00    +0.000 C 
BRANCH   8   9
ATOM      9  O   UNL     1      43.972   3.411  10.043  0.00  0.00    +0.000 OA
BRANCH   9  10
ATOM     10  C   UNL     1      44.450   2.163   9.539  0.00  0.00    +0.000 C 
BRANCH  10  11
ATOM     11  C   UNL     1      45.494   2.416   8.503  0.00  0.00    +0.000 A 
ATOM     12  C   UNL     1      46.339   1.415   8.064  0.00  0.00    +0.000 A 
ATOM     13  N   UNL     1      47.283   1.585   7.118  0.00  0.00    +0.000 NA
ATOM     14  C   UNL     1      47.359   2.818   6.592  0.00  0.00    +0.000 A 
ATOM     15  N   UNL     1      46.586   3.864   6.920  0.00  0.00    +0.000 NA
ATOM     16  C   UNL     1      45.662   3.632   7.874  0.00  0.00    +0.000 A 
ENDBRANCH  10  11
ENDBRANCH   9  10
ENDBRANCH   8   9
ENDBRANCH   5   8
ENDBRANCH   1   2
BRANCH   1  19
ATOM     17  C   UNL     1      49.407   6.602  15.801  0.00  0.00    +0.000 C 
ATOM     18  O   UNL     1      50.379   6.984  15.161  0.00  0.00    +0.000 OA
ATOM     19  N   UNL     1      48.155   6.500  15.235  0.00  0.00    +0.000 N 
ATOM     20  H   UNL     1      47.360   6.236  15.798  0.00  0.00    +0.000 HD
BRANCH  17  24
ATOM     21  C   UNL     1      48.330   5.906  20.641  0.00  0.00    +0.000 C 
ATOM     22  N   UNL     1      49.040   5.898  19.381  0.00  0.00    +0.000 N 
ATOM     23  C   UNL     1      48.559   6.421  18.209  0.00  0.00    +0.000 A 
ATOM     24  C   UNL     1      49.502   6.223  17.213  0.00  0.00    +0.000 A 
ATOM     25  C   UNL     1      50.610   5.548  17.838  0.00  0.00    +0.000 A 
ATOM     26  C   UNL     1      51.850   5.077  17.378  0.00  0.00    +0.000 A 
ATOM     27  N   UNL     1      52.713   4.452  18.220  0.00  0.00    +0.000 NA
ATOM     28  C   UNL     1      52.360   4.288  19.512  0.00  0.00    +0.000 A 
ATOM     29  C   UNL     1      51.164   4.715  20.066  0.00  0.00    +0.000 A 
ATOM     30  C   UNL     1      50.289   5.357  19.186  0.00  0.00    +0.000 A 
ENDBRANCH  17  24
ENDBRANCH   1  19
TORSDOF 7
ENDMDL
MODEL 5
REMARK VINA RESULT:    -7.126      2.044      2.839
REMARK INTER + INTRA:         -10.959
REMARK INTER:                 -10.145
REMARK INTRA:                  -0.814
REMARK UNBOUND:                -0.916
REMARK  Name = 
REMARK  8 active torsions:
REMARK  status: ('A' for Active; 'I' for Inactive)
REMARK    1  A    between atoms: C_1  and  N_2
REMARK    2  A    between atoms: C_4  and  C_5
REMARK    3  A    between atoms: N_7  and  C_8
REMARK    4  A    between atoms: C_8  and  C_9
REMARK    5  A    between atoms: C_12  and  C_13
REMARK    6  A    between atoms: C_13  and  O_14
REMARK    7  A    between atoms: O_14  and  C_15
REMARK    8  A    between atoms: C_15  and  C_16
REMARK                            x       y       z     vdW  Elec       q    Type
REMARK                         _______ _______ _______ _____ _____    ______ ____
ROOT
ATOM      1  C   UNL     1      47.469   4.261  15.043  0.00  0.00    +0.000 C 
ENDROOT
BRANCH   1   2
ATOM      2  C   UNL     1      46.472   4.311  13.924  0.00  0.00    +0.000 A 
ATOM      3  C   UNL     1      46.169   3.184  13.157  0.00  0.00    +0.000 A 
ATOM      4  C   UNL     1      45.301   3.299  12.075  0.00  0.00    +0.000 A 
ATOM      5  C   UNL     1      44.738   4.541  11.792  0.00  0.00    +0.000 A 
ATOM      6  N   UNL     1      44.968   5.634  12.559  0.00  0.00    +0.000 NA
ATOM      7  C   UNL     1      45.828   5.497  13.594  0.00  0.00    +0.000 A 
BRANCH   5   8
ATOM      8  C   UNL     1      43.805   4.703  10.613  0.00  0.00    +0.000 C 
BRANCH   8   9
ATOM      9  O   UNL     1      43.965   3.669   9.637  0.00  0.00    +0.000 OA
BRANCH   9  10
ATOM     10  C   UNL     1      44.611   4.134   8.451  0.00  0.00    +0.000 C 
BRANCH  10  11
ATOM     11  C   UNL     1      45.631   3.133   8.019  0.00  0.00    +0.000 A 
ATOM     12  C   UNL     1      46.728   3.494   7.262  0.00  0.00    +0.000 A 
ATOM     13  N   UNL     1      47.686   2.634   6.864  0.00  0.00    +0.000 NA
ATOM     14  C   UNL     1      47.525   1.363   7.264  0.00  0.00    +0.000 A 
ATOM     15  N   UNL     1      46.517   0.894   8.015  0.00  0.00    +0.000 NA
ATOM     16  C   UNL     1      45.589   1.802   8.379  0.00  0.00    +0.000 A 
ENDBRANCH  10  11
ENDBRANCH   9  10
ENDBRANCH   8   9
ENDBRANCH   5   8
ENDBRANCH   1   2
BRANCH   1  19
ATOM     17  C   UNL     1      48.661   5.769  16.548  0.00  0.00    +0.000 C 
ATOM     18  O   UNL     1      49.596   4.983  16.639  0.00  0.00    +0.000 OA
ATOM     19  N   UNL     1      47.554   5.499  15.773  0.00  0.00    +0.000 N 
ATOM     20  H   UNL     1      46.823   6.187  15.670  0.00  0.00    +0.000 HD
BRANCH  17  24
ATOM     21  C   UNL     1      49.045  10.652  17.589  0.00  0.00    +0.000 C 
ATOM     22  N   UNL     1      48.809   9.233  17.742  0.00  0.00    +0.000 N 
ATOM     23  C   UNL     1      48.978   8.300  16.752  0.00  0.00    +0.000 A 
ATOM     24  C   UNL     1      48.648   7.052  17.255  0.00  0.00    +0.000 A 
ATOM     25  C   UNL     1      48.266   7.261  18.628  0.00  0.00    +0.000 A 
ATOM     26  C   UNL     1      47.833   6.413  19.660  0.00  0.00    +0.000 A 
ATOM     27  N   UNL     1      47.527   6.909  20.886  0.00  0.00    +0.000 NA
ATOM     28  C   UNL     1      47.643   8.236  21.100  0.00  0.00    +0.000 A 
ATOM     29  C   UNL     1      48.060   9.157  20.154  0.00  0.00    +0.000 A 
ATOM     30  C   UNL     1      48.373   8.629  18.898  0.00  0.00    +0.000 A 
ENDBRANCH  17  24
ENDBRANCH   1  19
TORSDOF 7
ENDMDL
MODEL 6
REMARK VINA RESULT:    -7.076      1.302      1.412
REMARK INTER + INTRA:         -10.889
REMARK INTER:                 -10.131
REMARK INTRA:                  -0.757
REMARK UNBOUND:                -0.916
REMARK  Name = 
REMARK  8 active torsions:
REMARK  status: ('A' for Active; 'I' for Inactive)
REMARK    1  A    between atoms: C_1  and  N_2
REMARK    2  A    between atoms: C_4  and  C_5
REMARK    3  A    between atoms: N_7  and  C_8
REMARK    4  A    between atoms: C_8  and  C_9
REMARK    5  A    between atoms: C_12  and  C_13
REMARK    6  A    between atoms: C_13  and  O_14
REMARK    7  A    between atoms: O_14  and  C_15
REMARK    8  A    between atoms: C_15  and  C_16
REMARK                            x       y       z     vdW  Elec       q    Type
REMARK                         _______ _______ _______ _____ _____    ______ ____
ROOT
ATOM      1  C   UNL     1      47.183   7.338  13.486  0.00  0.00    +0.000 C 
ENDROOT
BRANCH   1   2
ATOM      2  C   UNL     1      46.265   6.357  12.819  0.00  0.00    +0.000 A 
ATOM      3  C   UNL     1      46.224   5.013  13.195  0.00  0.00    +0.000 A 
ATOM      4  C   UNL     1      45.418   4.123  12.491  0.00  0.00    +0.000 A 
ATOM      5  C   UNL     1      44.653   4.602  11.431  0.00  0.00    +0.000 A 
ATOM      6  N   UNL     1      44.627   5.912  11.088  0.00  0.00    +0.000 NA
ATOM      7  C   UNL     1      45.432   6.752  11.780  0.00  0.00    +0.000 A 
BRANCH   5   8
ATOM      8  C   UNL     1      43.780   3.658  10.634  0.00  0.00    +0.000 C 
BRANCH   8   9
ATOM      9  O   UNL     1      44.271   3.441   9.309  0.00  0.00    +0.000 OA
BRANCH   9  10
ATOM     10  C   UNL     1      44.849   2.145   9.147  0.00  0.00    +0.000 C 
BRANCH  10  11
ATOM     11  C   UNL     1      45.930   2.211   8.119  0.00  0.00    +0.000 A 
ATOM     12  C   UNL     1      46.718   1.116   7.823  0.00  0.00    +0.000 A 
ATOM     13  N   UNL     1      47.691   1.117   6.891  0.00  0.00    +0.000 NA
ATOM     14  C   UNL     1      47.856   2.272   6.228  0.00  0.00    +0.000 A 
ATOM     15  N   UNL     1      47.144   3.394   6.410  0.00  0.00    +0.000 NA
ATOM     16  C   UNL     1      46.188   3.332   7.358  0.00  0.00    +0.000 A 
ENDBRANCH  10  11
ENDBRANCH   9  10
ENDBRANCH   8   9
ENDBRANCH   5   8
ENDBRANCH   1   2
BRANCH   1  19
ATOM     17  C   UNL     1      48.761   7.494  15.342  0.00  0.00    +0.000 C 
ATOM     18  O   UNL     1      48.654   8.713  15.366  0.00  0.00    +0.000 OA
ATOM     19  N   UNL     1      48.065   6.718  14.441  0.00  0.00    +0.000 N 
ATOM     20  H   UNL     1      48.128   5.711  14.479  0.00  0.00    +0.000 HD
BRANCH  17  24
ATOM     21  C   UNL     1      52.811   5.540  17.547  0.00  0.00    +0.000 C 
ATOM     22  N   UNL     1      51.434   5.887  17.273  0.00  0.00    +0.000 N 
ATOM     23  C   UNL     1      51.012   6.625  16.196  0.00  0.00    +0.000 A 
ATOM     24  C   UNL     1      49.636   6.768  16.267  0.00  0.00    +0.000 A 
ATOM     25  C   UNL     1      49.219   6.067  17.455  0.00  0.00    +0.000 A 
ATOM     26  C   UNL     1      47.977   5.845  18.071  0.00  0.00    +0.000 A 
ATOM     27  N   UNL     1      47.891   5.132  19.224  0.00  0.00    +0.000 NA
ATOM     28  C   UNL     1      49.020   4.640  19.773  0.00  0.00    +0.000 A 
ATOM     29  C   UNL     1      50.292   4.800  19.246  0.00  0.00    +0.000 A 
ATOM     30  C   UNL     1      50.362   5.534  18.059  0.00  0.00    +0.000 A 
ENDBRANCH  17  24
ENDBRANCH   1  19
TORSDOF 7
ENDMDL
MODEL 7
REMARK VINA RESULT:    -6.386      4.220      9.092
REMARK INTER + INTRA:          -9.915
REMARK INTER:                  -9.046
REMARK INTRA:                  -0.869
REMARK UNBOUND:                -0.916
REMARK  Name = 
REMARK  8 active torsions:
REMARK  status: ('A' for Active; 'I' for Inactive)
REMARK    1  A    between atoms: C_1  and  N_2
REMARK    2  A    between atoms: C_4  and  C_5
REMARK    3  A    between atoms: N_7  and  C_8
REMARK    4  A    between atoms: C_8  and  C_9
REMARK    5  A    between atoms: C_12  and  C_13
REMARK    6  A    between atoms: C_13  and  O_14
REMARK    7  A    between atoms: O_14  and  C_15
REMARK    8  A    between atoms: C_15  and  C_16
REMARK                            x       y       z     vdW  Elec       q    Type
REMARK                         _______ _______ _______ _____ _____    ______ ____
ROOT
ATOM      1  C   UNL     1      47.322   3.337  17.052  0.00  0.00    +0.000 C 
ENDROOT
BRANCH   1   2
ATOM      2  C   UNL     1      48.759   3.525  17.439  0.00  0.00    +0.000 A 
ATOM      3  C   UNL     1      49.745   2.606  17.076  0.00  0.00    +0.000 A 
ATOM      4  C   UNL     1      51.051   2.778  17.529  0.00  0.00    +0.000 A 
ATOM      5  C   UNL     1      51.346   3.882  18.325  0.00  0.00    +0.000 A 
ATOM      6  N   UNL     1      50.420   4.821  18.638  0.00  0.00    +0.000 NA
ATOM      7  C   UNL     1      49.157   4.619  18.196  0.00  0.00    +0.000 A 
BRANCH   5   8
ATOM      8  C   UNL     1      52.750   4.090  18.849  0.00  0.00    +0.000 C 
BRANCH   8   9
ATOM      9  O   UNL     1      53.749   3.853  17.853  0.00  0.00    +0.000 OA
BRANCH   9  10
ATOM     10  C   UNL     1      54.828   3.056  18.344  0.00  0.00    +0.000 C 
BRANCH  10  11
ATOM     11  C   UNL     1      54.854   1.755  17.612  0.00  0.00    +0.000 A 
ATOM     12  C   UNL     1      55.482   1.621  16.389  0.00  0.00    +0.000 A 
ATOM     13  N   UNL     1      55.552   0.467  15.698  0.00  0.00    +0.000 NA
ATOM     14  C   UNL     1      54.970  -0.592  16.282  0.00  0.00    +0.000 A 
ATOM     15  N   UNL     1      54.347  -0.595  17.470  0.00  0.00    +0.000 NA
ATOM     16  C   UNL     1      54.308   0.590  18.112  0.00  0.00    +0.000 A 
ENDBRANCH  10  11
ENDBRANCH   9  10
ENDBRANCH   8   9
ENDBRANCH   5   8
ENDBRANCH   1   2
BRANCH   1  19
ATOM     17  C   UNL     1      46.963   4.071  14.751  0.00  0.00    +0.000 C 
ATOM     18  O   UNL     1      47.429   3.025  14.316  0.00  0.00    +0.000 OA
ATOM     19  N   UNL     1      46.865   4.319  16.103  0.00  0.00    +0.000 N 
ATOM     20  H   UNL     1      46.426   5.165  16.436  0.00  0.00    +0.000 HD
BRANCH  17  24
ATOM     21  C   UNL     1      46.638   8.320  12.121  0.00  0.00    +0.000 C 
ATOM     22  N   UNL     1      46.310   7.027  12.682  0.00  0.00    +0.000 N 
ATOM     23  C   UNL     1      47.102   6.331  13.559  0.00  0.00    +0.000 A 
ATOM     24  C   UNL     1      46.476   5.135  13.870  0.00  0.00    +0.000 A 
ATOM     25  C   UNL     1      45.236   5.127  13.136  0.00  0.00    +0.000 A 
ATOM     26  C   UNL     1      44.174   4.215  13.024  0.00  0.00    +0.000 A 
ATOM     27  N   UNL     1      43.109   4.482  12.225  0.00  0.00    +0.000 NA
ATOM     28  C   UNL     1      43.086   5.641  11.536  0.00  0.00    +0.000 A 
ATOM     29  C   UNL     1      44.078   6.607  11.576  0.00  0.00    +0.000 A 
ATOM     30  C   UNL     1      45.166   6.317  12.404  0.00  0.00    +0.000 A 
ENDBRANCH  17  24
ENDBRANCH   1  19
TORSDOF 7
ENDMDL
MODEL 8
REMARK VINA RESULT:    -6.307      2.031      3.282
REMARK INTER + INTRA:          -9.804
REMARK INTER:                  -9.413
REMARK INTRA:                  -0.391
REMARK UNBOUND:                -0.916
REMARK  Name = 
REMARK  8 active torsions:
REMARK  status: ('A' for Active; 'I' for Inactive)
REMARK    1  A    between atoms: C_1  and  N_2
REMARK    2  A    between atoms: C_4  and  C_5
REMARK    3  A    between atoms: N_7  and  C_8
REMARK    4  A    between atoms: C_8  and  C_9
REMARK    5  A    between atoms: C_12  and  C_13
REMARK    6  A    between atoms: C_13  and  O_14
REMARK    7  A    between atoms: O_14  and  C_15
REMARK    8  A    between atoms: C_15  and  C_16
REMARK                            x       y       z     vdW  Elec       q    Type
REMARK                         _______ _______ _______ _____ _____    ______ ____
ROOT
ATOM      1  C   UNL     1      47.046   4.638  14.935  0.00  0.00    +0.000 C 
ENDROOT
BRANCH   1   2
ATOM      2  C   UNL     1      46.135   4.533  13.748  0.00  0.00    +0.000 A 
ATOM      3  C   UNL     1      45.989   3.341  13.035  0.00  0.00    +0.000 A 
ATOM      4  C   UNL     1      45.197   3.314  11.891  0.00  0.00    +0.000 A 
ATOM      5  C   UNL     1      44.551   4.481  11.492  0.00  0.00    +0.000 A 
ATOM      6  N   UNL     1      44.626   5.633  12.202  0.00  0.00    +0.000 NA
ATOM      7  C   UNL     1      45.415   5.634  13.301  0.00  0.00    +0.000 A 
BRANCH   5   8
ATOM      8  C   UNL     1      43.697   4.490  10.243  0.00  0.00    +0.000 C 
BRANCH   8   9
ATOM      9  O   UNL     1      44.443   4.179   9.064  0.00  0.00    +0.000 OA
BRANCH   9  10
ATOM     10  C   UNL     1      44.499   2.774   8.810  0.00  0.00    +0.000 C 
BRANCH  10  11
ATOM     11  C   UNL     1      45.727   2.464   8.019  0.00  0.00    +0.000 A 
ATOM     12  C   UNL     1      46.376   3.430   7.276  0.00  0.00    +0.000 A 
ATOM     13  N   UNL     1      47.497   3.207   6.563  0.00  0.00    +0.000 NA
ATOM     14  C   UNL     1      47.980   1.957   6.620  0.00  0.00    +0.000 A 
ATOM     15  N   UNL     1      47.454   0.939   7.318  0.00  0.00    +0.000 NA
ATOM     16  C   UNL     1      46.331   1.223   8.009  0.00  0.00    +0.000 A 
ENDBRANCH  10  11
ENDBRANCH   9  10
ENDBRANCH   8   9
ENDBRANCH   5   8
ENDBRANCH   1   2
BRANCH   1  19
ATOM     17  C   UNL     1      48.689   6.112  15.978  0.00  0.00    +0.000 C 
ATOM     18  O   UNL     1      48.843   5.329  16.906  0.00  0.00    +0.000 OA
ATOM     19  N   UNL     1      47.815   5.856  14.944  0.00  0.00    +0.000 N 
ATOM     20  H   UNL     1      47.748   6.491  14.163  0.00  0.00    +0.000 HD
BRANCH  17  24
ATOM     21  C   UNL     1      49.768  10.984  15.552  0.00  0.00    +0.000 C 
ATOM     22  N   UNL     1      49.925   9.555  15.713  0.00  0.00    +0.000 N 
ATOM     23  C   UNL     1      48.896   8.649  15.704  0.00  0.00    +0.000 A 
ATOM     24  C   UNL     1      49.419   7.380  15.897  0.00  0.00    +0.000 A 
ATOM     25  C   UNL     1      50.844   7.548  16.021  0.00  0.00    +0.000 A 
ATOM     26  C   UNL     1      51.916   6.664  16.226  0.00  0.00    +0.000 A 
ATOM     27  N   UNL     1      53.190   7.125  16.312  0.00  0.00    +0.000 NA
ATOM     28  C   UNL     1      53.414   8.450  16.197  0.00  0.00    +0.000 A 
ATOM     29  C   UNL     1      52.431   9.404  15.993  0.00  0.00    +0.000 A 
ATOM     30  C   UNL     1      51.125   8.913  15.905  0.00  0.00    +0.000 A 
ENDBRANCH  17  24
ENDBRANCH   1  19
TORSDOF 7
ENDMDL
MODEL 9
REMARK VINA RESULT:    -6.056      3.695      8.872
REMARK INTER + INTRA:          -9.451
REMARK INTER:                  -8.304
REMARK INTRA:                  -1.147
REMARK UNBOUND:                -0.916
REMARK  Name = 
REMARK  8 active torsions:
REMARK  status: ('A' for Active; 'I' for Inactive)
REMARK    1  A    between atoms: C_1  and  N_2
REMARK    2  A    between atoms: C_4  and  C_5
REMARK    3  A    between atoms: N_7  and  C_8
REMARK    4  A    between atoms: C_8  and  C_9
REMARK    5  A    between atoms: C_12  and  C_13
REMARK    6  A    between atoms: C_13  and  O_14
REMARK    7  A    between atoms: O_14  and  C_15
REMARK    8  A    between atoms: C_15  and  C_16
REMARK                            x       y       z     vdW  Elec       q    Type
REMARK                         _______ _______ _______ _____ _____    ______ ____
ROOT
ATOM      1  C   UNL     1      47.311   3.276  16.945  0.00  0.00    +0.000 C 
ENDROOT
BRANCH   1   2
ATOM      2  C   UNL     1      48.665   3.647  17.472  0.00  0.00    +0.000 A 
ATOM      3  C   UNL     1      49.799   2.882  17.193  0.00  0.00    +0.000 A 
ATOM      4  C   UNL     1      51.020   3.218  17.773  0.00  0.00    +0.000 A 
ATOM      5  C   UNL     1      51.083   4.328  18.611  0.00  0.00    +0.000 A 
ATOM      6  N   UNL     1      50.011   5.122  18.847  0.00  0.00    +0.000 NA
ATOM      7  C   UNL     1      48.835   4.763  18.283  0.00  0.00    +0.000 A 
BRANCH   5   8
ATOM      8  C   UNL     1      52.389   4.710  19.272  0.00  0.00    +0.000 C 
BRANCH   8   9
ATOM      9  O   UNL     1      52.759   6.068  19.015  0.00  0.00    +0.000 OA
BRANCH   9  10
ATOM     10  C   UNL     1      53.496   6.210  17.799  0.00  0.00    +0.000 C 
BRANCH  10  11
ATOM     11  C   UNL     1      52.773   7.150  16.891  0.00  0.00    +0.000 A 
ATOM     12  C   UNL     1      53.163   8.467  16.750  0.00  0.00    +0.000 A 
ATOM     13  N   UNL     1      52.559   9.349  15.930  0.00  0.00    +0.000 NA
ATOM     14  C   UNL     1      51.528   8.866  15.219  0.00  0.00    +0.000 A 
ATOM     15  N   UNL     1      51.068   7.607  15.254  0.00  0.00    +0.000 NA
ATOM     16  C   UNL     1      51.711   6.772  16.095  0.00  0.00    +0.000 A 
ENDBRANCH  10  11
ENDBRANCH   9  10
ENDBRANCH   8   9
ENDBRANCH   5   8
ENDBRANCH   1   2
BRANCH   1  19
ATOM     17  C   UNL     1      46.927   4.014  14.650  0.00  0.00    +0.000 C 
ATOM     18  O   UNL     1      47.473   3.011  14.207  0.00  0.00    +0.000 OA
ATOM     19  N   UNL     1      46.795   4.235  16.004  0.00  0.00    +0.000 N 
ATOM     20  H   UNL     1      46.292   5.042  16.342  0.00  0.00    +0.000 HD
BRANCH  17  24
ATOM     21  C   UNL     1      46.317   8.270  12.084  0.00  0.00    +0.000 C 
ATOM     22  N   UNL     1      46.082   6.946  12.617  0.00  0.00    +0.000 N 
ATOM     23  C   UNL     1      46.909   6.299  13.498  0.00  0.00    +0.000 A 
ATOM     24  C   UNL     1      46.374   5.052  13.777  0.00  0.00    +0.000 A 
ATOM     25  C   UNL     1      45.152   4.960  13.018  0.00  0.00    +0.000 A 
ATOM     26  C   UNL     1      44.168   3.970  12.870  0.00  0.00    +0.000 A 
ATOM     27  N   UNL     1      43.100   4.167  12.055  0.00  0.00    +0.000 NA
ATOM     28  C   UNL     1      42.998   5.332  11.384  0.00  0.00    +0.000 A 
ATOM     29  C   UNL     1      43.911   6.372  11.460  0.00  0.00    +0.000 A 
ATOM     30  C   UNL     1      45.002   6.154  12.305  0.00  0.00    +0.000 A 
ENDBRANCH  17  24
ENDBRANCH   1  19
TORSDOF 7
ENDMDL
