MODEL 1
REMARK VINA RESULT:    -7.199      0.000      0.000
REMARK INTER + INTRA:          -9.971
REMARK INTER:                  -9.513
REMARK INTRA:                  -0.458
REMARK UNBOUND:                -0.458
REMARK  Name = 
REMARK  6 active torsions:
REMARK  status: ('A' for Active; 'I' for Inactive)
REMARK    1  A    between atoms: N_1  and  C_2
REMARK    2  A    between atoms: C_2  and  C_3
REMARK    3  A    between atoms: C_3  and  C_4
REMARK    4  A    between atoms: C_7  and  C_8
REMARK    5  A    between atoms: C_8  and  O_9
REMARK    6  A    between atoms: O_9  and  C_10
REMARK                            x       y       z     vdW  Elec       q    Type
REMARK                         _______ _______ _______ _____ _____    ______ ____
ROOT
ATOM      1  C   UNL     1      45.755   3.096   7.978  0.00  0.00    +0.000 A 
ATOM      2  C   UNL     1      45.403   4.387   8.391  0.00  0.00    +0.000 A 
ATOM      3  C   UNL     1      44.615   4.582   9.531  0.00  0.00    +0.000 A 
ATOM      4  C   UNL     1      44.175   3.488  10.288  0.00  0.00    +0.000 A 
ATOM      5  C   UNL     1      44.521   2.196   9.870  0.00  0.00    +0.000 A 
ATOM      6  C   UNL     1      45.310   2.002   8.731  0.00  0.00    +0.000 A 
ENDROOT
BRANCH   1   7
ATOM      7  C   UNL     1      46.584   2.888   6.733  0.00  0.00    +0.000 C 
BRANCH   7   8
ATOM      8  C   UNL     1      47.648   1.797   6.894  0.00  0.00    +0.000 C 
BRANCH   8   9
ATOM      9  N   UNL     1      48.552   1.774   5.742  0.00  0.00    +0.000 NA
ATOM     10  H   UNL     1      48.221   1.087   5.065  0.00  0.00    +0.000 HD
ATOM     11  H   UNL     1      49.476   1.459   6.037  0.00  0.00    +0.000 HD
ENDBRANCH   8   9
ENDBRANCH   7   8
ENDBRANCH   1   7
BRANCH   4  12
ATOM     12  C   UNL     1      43.359   3.697  11.540  0.00  0.00    +0.000 C 
BRANCH  12  13
ATOM     13  O   UNL     1      44.078   3.232  12.682  0.00  0.00    +0.000 OA
BRANCH  13  14
ATOM     14  C   UNL     1      45.196   3.943  13.023  0.00  0.00    +0.000 A 
ATOM     15  C   UNL     1      45.292   5.326  13.123  0.00  0.00    +0.000 A 
ATOM     16  C   UNL     1      46.510   5.872  13.487  0.00  0.00    +0.000 A 
ATOM     17  N   UNL     1      47.601   5.125  13.745  0.00  0.00    +0.000 NA
ATOM     18  N   UNL     1      47.517   3.775  13.645  0.00  0.00    +0.000 NA
ATOM     19  C   UNL     1      46.341   3.210  13.292  0.00  0.00    +0.000 A 
ENDBRANCH  13  14
ENDBRANCH  12  13
ENDBRANCH   4  12
TORSDOF 6
ENDMDL
MODEL 2
REMARK VINA RESULT:    -6.975      1.215      1.967
REMARK INTER + INTRA:          -9.676
REMARK INTER:                  -9.198
REMARK INTRA:                  -0.477
REMARK UNBOUND:                -0.458
REMARK  Name = 
REMARK  6 active torsions:
REMARK  status: ('A' for Active; 'I' for Inactive)
REMARK    1  A    between atoms: N_1  and  C_2
REMARK    2  A    between atoms: C_2  and  C_3
REMARK    3  A    between atoms: C_3  and  C_4
REMARK    4  A    between atoms: C_7  and  C_8
REMARK    5  A    between atoms: C_8  and  O_9
REMARK    6  A    between atoms: O_9  and  C_10
REMARK                            x       y       z     vdW  Elec       q    Type
REMARK                         _______ _______ _______ _____ _____    ______ ____
ROOT
ATOM      1  C   UNL     1      46.135   2.334   7.857  0.00  0.00    +0.000 A 
ATOM      2  C   UNL     1      45.353   1.738   8.854  0.00  0.00    +0.000 A 
ATOM      3  C   UNL     1      44.603   2.524   9.737  0.00  0.00    +0.000 A 
ATOM      4  C   UNL     1      44.611   3.921   9.630  0.00  0.00    +0.000 A 
ATOM      5  C   UNL     1      45.400   4.516   8.637  0.00  0.00    +0.000 A 
ATOM      6  C   UNL     1      46.148   3.731   7.754  0.00  0.00    +0.000 A 
ENDROOT
BRANCH   1   7
ATOM      7  C   UNL     1      46.963   1.485   6.922  0.00  0.00    +0.000 C 
BRANCH   7   8
ATOM      8  C   UNL     1      48.278   2.155   6.507  0.00  0.00    +0.000 C 
BRANCH   8   9
ATOM      9  N   UNL     1      48.277   2.466   5.076  0.00  0.00    +0.000 NA
ATOM     10  H   UNL     1      49.116   2.079   4.644  0.00  0.00    +0.000 HD
ATOM     11  H   UNL     1      48.329   3.475   4.944  0.00  0.00    +0.000 HD
ENDBRANCH   8   9
ENDBRANCH   7   8
ENDBRANCH   1   7
BRANCH   4  12
ATOM     12  C   UNL     1      43.772   4.768  10.555  0.00  0.00    +0.000 C 
BRANCH  12  13
ATOM     13  O   UNL     1      44.530   5.882  11.028  0.00  0.00    +0.000 OA
BRANCH  13  14
ATOM     14  C   UNL     1      45.471   5.611  11.983  0.00  0.00    +0.000 A 
ATOM     15  C   UNL     1      45.342   4.706  13.030  0.00  0.00    +0.000 A 
ATOM     16  C   UNL     1      46.407   4.560  13.902  0.00  0.00    +0.000 A 
ATOM     17  N   UNL     1      47.555   5.254  13.781  0.00  0.00    +0.000 NA
ATOM     18  N   UNL     1      47.687   6.142  12.764  0.00  0.00    +0.000 NA
ATOM     19  C   UNL     1      46.665   6.309  11.895  0.00  0.00    +0.000 A 
ENDBRANCH  13  14
ENDBRANCH  12  13
ENDBRANCH   4  12
TORSDOF 6
ENDMDL
MODEL 3
REMARK VINA RESULT:    -6.613      1.749      6.052
REMARK INTER + INTRA:          -9.197
REMARK INTER:                  -8.750
REMARK INTRA:                  -0.446
REMARK UNBOUND:                -0.458
REMARK  Name = 
REMARK  6 active torsions:
REMARK  status: ('A' for Active; 'I' for Inactive)
REMARK    1  A    between atoms: N_1  and  C_2
REMARK    2  A    between atoms: C_2  and  C_3
REMARK    3  A    between atoms: C_3  and  C_4
REMARK    4  A    between atoms: C_7  and  C_8
REMARK    5  A    between atoms: C_8  and  O_9
REMARK    6  A    between atoms: O_9  and  C_10
REMARK                            x       y       z     vdW  Elec       q    Type
REMARK                         _______ _______ _______ _____ _____    ______ ____
ROOT
ATOM      1  C   UNL     1      46.277   5.161  12.835  0.00  0.00    +0.000 A 
ATOM      2  C   UNL     1      46.336   6.026  11.735  0.00  0.00    +0.000 A 
ATOM      3  C   UNL     1      45.742   5.673  10.518  0.00  0.00    +0.000 A 
ATOM      4  C   UNL     1      45.066   4.453  10.382  0.00  0.00    +0.000 A 
ATOM      5  C   UNL     1      45.016   3.585  11.481  0.00  0.00    +0.000 A 
ATOM      6  C   UNL     1      45.608   3.939  12.697  0.00  0.00    +0.000 A 
ENDROOT
BRANCH   1   7
ATOM      7  C   UNL     1      46.942   5.534  14.139  0.00  0.00    +0.000 C 
BRANCH   7   8
ATOM      8  C   UNL     1      47.042   4.359  15.119  0.00  0.00    +0.000 C 
BRANCH   8   9
ATOM      9  N   UNL     1      47.312   4.835  16.478  0.00  0.00    +0.000 NA
ATOM     10  H   UNL     1      46.905   4.186  17.151  0.00  0.00    +0.000 HD
ATOM     11  H   UNL     1      46.845   5.728  16.627  0.00  0.00    +0.000 HD
ENDBRANCH   8   9
ENDBRANCH   7   8
ENDBRANCH   1   7
BRANCH   4  12
ATOM     12  C   UNL     1      44.391   4.087   9.083  0.00  0.00    +0.000 C 
BRANCH  12  13
ATOM     13  O   UNL     1      44.601   2.706   8.789  0.00  0.00    +0.000 OA
BRANCH  13  14
ATOM     14  C   UNL     1      45.734   2.403   8.084  0.00  0.00    +0.000 A 
ATOM     15  C   UNL     1      46.514   3.296   7.360  0.00  0.00    +0.000 A 
ATOM     16  C   UNL     1      47.634   2.808   6.710  0.00  0.00    +0.000 A 
ATOM     17  N   UNL     1      47.997   1.511   6.748  0.00  0.00    +0.000 NA
ATOM     18  N   UNL     1      47.238   0.632   7.450  0.00  0.00    +0.000 NA
ATOM     19  C   UNL     1      46.137   1.077   8.095  0.00  0.00    +0.000 A 
ENDBRANCH  13  14
ENDBRANCH  12  13
ENDBRANCH   4  12
TORSDOF 6
ENDMDL
MODEL 4
REMARK VINA RESULT:    -6.451      2.205      6.145
REMARK INTER + INTRA:          -8.983
REMARK INTER:                  -8.494
REMARK INTRA:                  -0.488
REMARK UNBOUND:                -0.458
REMARK  Name = 
REMARK  6 active torsions:
REMARK  status: ('A' for Active; 'I' for Inactive)
REMARK    1  A    between atoms: N_1  and  C_2
REMARK    2  A    between atoms: C_2  and  C_3
REMARK    3  A    between atoms: C_3  and  C_4
REMARK    4  A    between atoms: C_7  and  C_8
REMARK    5  A    between atoms: C_8  and  O_9
REMARK    6  A    between atoms: O_9  and  C_10
REMARK                            x       y       z     vdW  Elec       q    Type
REMARK                         _______ _______ _______ _____ _____    ______ ____
ROOT
ATOM      1  C   UNL     1      46.511   5.755  12.579  0.00  0.00    +0.000 A 
ATOM      2  C   UNL     1      46.343   6.265  11.285  0.00  0.00    +0.000 A 
ATOM      3  C   UNL     1      45.646   5.535  10.316  0.00  0.00    +0.000 A 
ATOM      4  C   UNL     1      45.092   4.286  10.626  0.00  0.00    +0.000 A 
ATOM      5  C   UNL     1      45.267   3.774  11.919  0.00  0.00    +0.000 A 
ATOM      6  C   UNL     1      45.963   4.504  12.887  0.00  0.00    +0.000 A 
ENDROOT
BRANCH   1   7
ATOM      7  C   UNL     1      47.286   6.534  13.615  0.00  0.00    +0.000 C 
BRANCH   7   8
ATOM      8  C   UNL     1      47.505   8.001  13.225  0.00  0.00    +0.000 C 
BRANCH   8   9
ATOM      9  N   UNL     1      46.667   8.887  14.036  0.00  0.00    +0.000 NA
ATOM     10  H   UNL     1      45.799   9.083  13.538  0.00  0.00    +0.000 HD
ATOM     11  H   UNL     1      47.134   9.785  14.156  0.00  0.00    +0.000 HD
ENDBRANCH   8   9
ENDBRANCH   7   8
ENDBRANCH   1   7
BRANCH   4  12
ATOM     12  C   UNL     1      44.306   3.514   9.594  0.00  0.00    +0.000 C 
BRANCH  12  13
ATOM     13  O   UNL     1      44.845   3.741   8.292  0.00  0.00    +0.000 OA
BRANCH  13  14
ATOM     14  C   UNL     1      45.823   2.876   7.884  0.00  0.00    +0.000 A 
ATOM     15  C   UNL     1      45.903   1.522   8.189  0.00  0.00    +0.000 A 
ATOM     16  C   UNL     1      46.968   0.800   7.681  0.00  0.00    +0.000 A 
ATOM     17  N   UNL     1      47.926   1.349   6.910  0.00  0.00    +0.000 NA
ATOM     18  N   UNL     1      47.858   2.671   6.611  0.00  0.00    +0.000 NA
ATOM     19  C   UNL     1      46.830   3.405   7.092  0.00  0.00    +0.000 A 
ENDBRANCH  13  14
ENDBRANCH  12  13
ENDBRANCH   4  12
TORSDOF 6
ENDMDL
MODEL 5
REMARK VINA RESULT:    -6.029      1.870      2.651
REMARK INTER + INTRA:          -8.425
REMARK INTER:                  -8.077
REMARK INTRA:                  -0.348
REMARK UNBOUND:                -0.458
REMARK  Name = 
REMARK  6 active torsions:
REMARK  status: ('A' for Active; 'I' for Inactive)
REMARK    1  A    between atoms: N_1  and  C_2
REMARK    2  A    between atoms: C_2  and  C_3
REMARK    3  A    between atoms: C_3  and  C_4
REMARK    4  A    between atoms: C_7  and  C_8
REMARK    5  A    between atoms: C_8  and  O_9
REMARK    6  A    between atoms: O_9  and  C_10
REMARK                            x       y       z     vdW  Elec       q    Type
REMARK                         _______ _______ _______ _____ _____    ______ ____
ROOT
ATOM      1  C   UNL     1      45.257   3.861   9.010  0.00  0.00    +0.000 A 
ATOM      2  C   UNL     1      44.846   2.956   9.998  0.00  0.00    +0.000 A 
ATOM      3  C   UNL     1      44.810   3.338  11.344  0.00  0.00    +0.000 A 
ATOM      4  C   UNL     1      45.171   4.636  11.726  0.00  0.00    +0.000 A 
ATOM      5  C   UNL     1      45.590   5.538  10.738  0.00  0.00    +0.000 A 
ATOM      6  C   UNL     1      45.625   5.156   9.393  0.00  0.00    +0.000 A 
ENDROOT
BRANCH   1   7
ATOM      7  C   UNL     1      45.320   3.438   7.562  0.00  0.00    +0.000 C 
BRANCH   7   8
ATOM      8  C   UNL     1      46.528   2.548   7.247  0.00  0.00    +0.000 C 
BRANCH   8   9
ATOM      9  N   UNL     1      47.682   3.357   6.849  0.00  0.00    +0.000 NA
ATOM     10  H   UNL     1      48.064   3.828   7.668  0.00  0.00    +0.000 HD
ATOM     11  H   UNL     1      47.382   4.093   6.212  0.00  0.00    +0.000 HD
ENDBRANCH   8   9
ENDBRANCH   7   8
ENDBRANCH   1   7
BRANCH   4  12
ATOM     12  C   UNL     1      45.095   5.062  13.172  0.00  0.00    +0.000 C 
BRANCH  12  13
ATOM     13  O   UNL     1      45.797   4.133  13.999  0.00  0.00    +0.000 OA
BRANCH  13  14
ATOM     14  C   UNL     1      46.832   4.641  14.736  0.00  0.00    +0.000 A 
ATOM     15  C   UNL     1      47.228   4.216  15.998  0.00  0.00    +0.000 A 
ATOM     16  C   UNL     1      48.306   4.848  16.592  0.00  0.00    +0.000 A 
ATOM     17  N   UNL     1      48.983   5.853  16.003  0.00  0.00    +0.000 NA
ATOM     18  N   UNL     1      48.600   6.277  14.772  0.00  0.00    +0.000 NA
ATOM     19  C   UNL     1      47.550   5.680  14.165  0.00  0.00    +0.000 A 
ENDBRANCH  13  14
ENDBRANCH  12  13
ENDBRANCH   4  12
TORSDOF 6
ENDMDL
MODEL 6
REMARK VINA RESULT:    -5.646      2.823      3.889
REMARK INTER + INTRA:          -7.919
REMARK INTER:                  -7.617
REMARK INTRA:                  -0.302
REMARK UNBOUND:                -0.458
REMARK  Name = 
REMARK  6 active torsions:
REMARK  status: ('A' for Active; 'I' for Inactive)
REMARK    1  A    between atoms: N_1  and  C_2
REMARK    2  A    between atoms: C_2  and  C_3
REMARK    3  A    between atoms: C_3  and  C_4
REMARK    4  A    between atoms: C_7  and  C_8
REMARK    5  A    between atoms: C_8  and  O_9
REMARK    6  A    between atoms: O_9  and  C_10
REMARK                            x       y       z     vdW  Elec       q    Type
REMARK                         _______ _______ _______ _____ _____    ______ ____
ROOT
ATOM      1  C   UNL     1      45.031   4.322  10.076  0.00  0.00    +0.000 A 
ATOM      2  C   UNL     1      44.881   3.277  10.996  0.00  0.00    +0.000 A 
ATOM      3  C   UNL     1      45.301   3.430  12.322  0.00  0.00    +0.000 A 
ATOM      4  C   UNL     1      45.866   4.635  12.757  0.00  0.00    +0.000 A 
ATOM      5  C   UNL     1      46.023   5.678  11.833  0.00  0.00    +0.000 A 
ATOM      6  C   UNL     1      45.602   5.526  10.508  0.00  0.00    +0.000 A 
ENDROOT
BRANCH   1   7
ATOM      7  C   UNL     1      44.600   4.146   8.638  0.00  0.00    +0.000 C 
BRANCH   7   8
ATOM      8  C   UNL     1      45.635   3.400   7.788  0.00  0.00    +0.000 C 
BRANCH   8   9
ATOM      9  N   UNL     1      46.654   4.320   7.280  0.00  0.00    +0.000 NA
ATOM     10  H   UNL     1      46.372   5.280   7.474  0.00  0.00    +0.000 HD
ATOM     11  H   UNL     1      46.711   4.241   6.265  0.00  0.00    +0.000 HD
ENDBRANCH   8   9
ENDBRANCH   7   8
ENDBRANCH   1   7
BRANCH   4  12
ATOM     12  C   UNL     1      46.284   4.816  14.196  0.00  0.00    +0.000 C 
BRANCH  12  13
ATOM     13  O   UNL     1      47.140   3.747  14.600  0.00  0.00    +0.000 OA
BRANCH  13  14
ATOM     14  C   UNL     1      47.677   3.844  15.854  0.00  0.00    +0.000 A 
ATOM     15  C   UNL     1      47.949   2.788  16.715  0.00  0.00    +0.000 A 
ATOM     16  C   UNL     1      48.499   3.077  17.951  0.00  0.00    +0.000 A 
ATOM     17  N   UNL     1      48.780   4.331  18.354  0.00  0.00    +0.000 NA
ATOM     18  N   UNL     1      48.513   5.369  17.521  0.00  0.00    +0.000 NA
ATOM     19  C   UNL     1      47.975   5.120  16.306  0.00  0.00    +0.000 A 
ENDBRANCH  13  14
ENDBRANCH  12  13
ENDBRANCH   4  12
TORSDOF 6
ENDMDL
MODEL 7
REMARK VINA RESULT:    -4.941      2.237      3.107
REMARK INTER + INTRA:          -6.987
REMARK INTER:                  -6.670
REMARK INTRA:                  -0.316
REMARK UNBOUND:                -0.458
REMARK  Name = 
REMARK  6 active torsions:
REMARK  status: ('A' for Active; 'I' for Inactive)
REMARK    1  A    between atoms: N_1  and  C_2
REMARK    2  A    between atoms: C_2  and  C_3
REMARK    3  A    between atoms: C_3  and  C_4
REMARK    4  A    between atoms: C_7  and  C_8
REMARK    5  A    between atoms: C_8  and  O_9
REMARK    6  A    between atoms: O_9  and  C_10
REMARK                            x       y       z     vdW  Elec       q    Type
REMARK                         _______ _______ _______ _____ _____    ______ ____
ROOT
ATOM      1  C   UNL     1      45.074   3.946   9.346  0.00  0.00    +0.000 A 
ATOM      2  C   UNL     1      45.602   5.242   9.388  0.00  0.00    +0.000 A 
ATOM      3  C   UNL     1      45.800   5.892  10.612  0.00  0.00    +0.000 A 
ATOM      4  C   UNL     1      45.487   5.252  11.818  0.00  0.00    +0.000 A 
ATOM      5  C   UNL     1      44.951   3.957  11.774  0.00  0.00    +0.000 A 
ATOM      6  C   UNL     1      44.755   3.308  10.551  0.00  0.00    +0.000 A 
ENDROOT
BRANCH   1   7
ATOM      7  C   UNL     1      44.838   3.257   8.023  0.00  0.00    +0.000 C 
BRANCH   7   8
ATOM      8  C   UNL     1      46.062   3.287   7.102  0.00  0.00    +0.000 C 
BRANCH   8   9
ATOM      9  N   UNL     1      46.971   2.179   7.404  0.00  0.00    +0.000 NA
ATOM     10  H   UNL     1      47.864   2.337   6.938  0.00  0.00    +0.000 HD
ATOM     11  H   UNL     1      46.597   1.314   7.015  0.00  0.00    +0.000 HD
ENDBRANCH   8   9
ENDBRANCH   7   8
ENDBRANCH   1   7
BRANCH   4  12
ATOM     12  C   UNL     1      45.736   5.935  13.140  0.00  0.00    +0.000 C 
BRANCH  12  13
ATOM     13  O   UNL     1      46.863   5.350  13.794  0.00  0.00    +0.000 OA
BRANCH  13  14
ATOM     14  C   UNL     1      47.950   6.163  13.967  0.00  0.00    +0.000 A 
ATOM     15  C   UNL     1      48.505   6.544  15.183  0.00  0.00    +0.000 A 
ATOM     16  C   UNL     1      49.613   7.372  15.164  0.00  0.00    +0.000 A 
ATOM     17  N   UNL     1      50.173   7.824  14.025  0.00  0.00    +0.000 NA
ATOM     18  N   UNL     1      49.634   7.459  12.834  0.00  0.00    +0.000 NA
ATOM     19  C   UNL     1      48.551   6.651  12.818  0.00  0.00    +0.000 A 
ENDBRANCH  13  14
ENDBRANCH  12  13
ENDBRANCH   4  12
TORSDOF 6
ENDMDL
MODEL 8
REMARK VINA RESULT:    -4.912      3.737      5.376
REMARK INTER + INTRA:          -6.949
REMARK INTER:                  -6.602
REMARK INTRA:                  -0.347
REMARK UNBOUND:                -0.458
REMARK  Name = 
REMARK  6 active torsions:
REMARK  status: ('A' for Active; 'I' for Inactive)
REMARK    1  A    between atoms: N_1  and  C_2
REMARK    2  A    between atoms: C_2  and  C_3
REMARK    3  A    between atoms: C_3  and  C_4
REMARK    4  A    between atoms: C_7  and  C_8
REMARK    5  A    between atoms: C_8  and  O_9
REMARK    6  A    between atoms: O_9  and  C_10
REMARK                            x       y       z     vdW  Elec       q    Type
REMARK                         _______ _______ _______ _____ _____    ______ ____
ROOT
ATOM      1  C   UNL     1      45.336   4.920  11.611  0.00  0.00    +0.000 A 
ATOM      2  C   UNL     1      46.004   6.084  11.212  0.00  0.00    +0.000 A 
ATOM      3  C   UNL     1      46.915   6.713  12.068  0.00  0.00    +0.000 A 
ATOM      4  C   UNL     1      47.184   6.182  13.336  0.00  0.00    +0.000 A 
ATOM      5  C   UNL     1      46.509   5.021  13.738  0.00  0.00    +0.000 A 
ATOM      6  C   UNL     1      45.600   4.392  12.881  0.00  0.00    +0.000 A 
ENDROOT
BRANCH   1   7
ATOM      7  C   UNL     1      44.334   4.258  10.694  0.00  0.00    +0.000 C 
BRANCH   7   8
ATOM      8  C   UNL     1      43.071   3.788  11.424  0.00  0.00    +0.000 C 
BRANCH   8   9
ATOM      9  N   UNL     1      43.047   2.329  11.540  0.00  0.00    +0.000 NA
ATOM     10  H   UNL     1      42.251   2.047  12.111  0.00  0.00    +0.000 HD
ATOM     11  H   UNL     1      43.879   2.011  12.037  0.00  0.00    +0.000 HD
ENDBRANCH   8   9
ENDBRANCH   7   8
ENDBRANCH   1   7
BRANCH   4  12
ATOM     12  C   UNL     1      48.195   6.835  14.246  0.00  0.00    +0.000 C 
BRANCH  12  13
ATOM     13  O   UNL     1      48.860   5.849  15.036  0.00  0.00    +0.000 OA
BRANCH  13  14
ATOM     14  C   UNL     1      48.671   5.929  16.388  0.00  0.00    +0.000 A 
ATOM     15  C   UNL     1      48.813   7.068  17.172  0.00  0.00    +0.000 A 
ATOM     16  C   UNL     1      48.575   6.961  18.530  0.00  0.00    +0.000 A 
ATOM     17  N   UNL     1      48.216   5.806  19.123  0.00  0.00    +0.000 NA
ATOM     18  N   UNL     1      48.079   4.688  18.366  0.00  0.00    +0.000 NA
ATOM     19  C   UNL     1      48.304   4.760  17.035  0.00  0.00    +0.000 A 
ENDBRANCH  13  14
ENDBRANCH  12  13
ENDBRANCH   4  12
TORSDOF 6
ENDMDL
MODEL 9
REMARK VINA RESULT:    -4.751      3.019      6.756
REMARK INTER + INTRA:          -6.736
REMARK INTER:                  -6.376
REMARK INTRA:                  -0.359
REMARK UNBOUND:                -0.458
REMARK  Name = 
REMARK  6 active torsions:
REMARK  status: ('A' for Active; 'I' for Inactive)
REMARK    1  A    between atoms: N_1  and  C_2
REMARK    2  A    between atoms: C_2  and  C_3
REMARK    3  A    between atoms: C_3  and  C_4
REMARK    4  A    between atoms: C_7  and  C_8
REMARK    5  A    between atoms: C_8  and  O_9
REMARK    6  A    between atoms: O_9  and  C_10
REMARK                            x       y       z     vdW  Elec       q    Type
REMARK                         _______ _______ _______ _____ _____    ______ ____
ROOT
ATOM      1  C   UNL     1      48.193   7.469  14.461  0.00  0.00    +0.000 A 
ATOM      2  C   UNL     1      47.554   8.622  13.989  0.00  0.00    +0.000 A 
ATOM      3  C   UNL     1      46.571   8.537  12.996  0.00  0.00    +0.000 A 
ATOM      4  C   UNL     1      46.198   7.295  12.467  0.00  0.00    +0.000 A 
ATOM      5  C   UNL     1      46.843   6.142  12.935  0.00  0.00    +0.000 A 
ATOM      6  C   UNL     1      47.825   6.227  13.928  0.00  0.00    +0.000 A 
ENDROOT
BRANCH   1   7
ATOM      7  C   UNL     1      49.272   7.566  15.514  0.00  0.00    +0.000 C 
BRANCH   7   8
ATOM      8  C   UNL     1      49.265   6.387  16.493  0.00  0.00    +0.000 C 
BRANCH   8   9
ATOM      9  N   UNL     1      48.198   6.537  17.484  0.00  0.00    +0.000 NA
ATOM     10  H   UNL     1      47.361   6.902  17.030  0.00  0.00    +0.000 HD
ATOM     11  H   UNL     1      48.470   7.233  18.178  0.00  0.00    +0.000 HD
ENDBRANCH   8   9
ENDBRANCH   7   8
ENDBRANCH   1   7
BRANCH   4  12
ATOM     12  C   UNL     1      45.110   7.197  11.425  0.00  0.00    +0.000 C 
BRANCH  12  13
ATOM     13  O   UNL     1      44.091   6.296  11.859  0.00  0.00    +0.000 OA
BRANCH  13  14
ATOM     14  C   UNL     1      44.071   5.069  11.253  0.00  0.00    +0.000 A 
ATOM     15  C   UNL     1      44.769   4.707  10.108  0.00  0.00    +0.000 A 
ATOM     16  C   UNL     1      44.629   3.413   9.639  0.00  0.00    +0.000 A 
ATOM     17  N   UNL     1      43.849   2.495  10.241  0.00  0.00    +0.000 NA
ATOM     18  N   UNL     1      43.160   2.842  11.358  0.00  0.00    +0.000 NA
ATOM     19  C   UNL     1      43.275   4.099  11.841  0.00  0.00    +0.000 A 
ENDBRANCH  13  14
ENDBRANCH  12  13
ENDBRANCH   4  12
TORSDOF 6
ENDMDL
