MODEL 1
REMARK VINA RESULT:    -8.733      0.000      0.000
REMARK INTER + INTRA:         -12.071
REMARK INTER:                 -11.286
REMARK INTRA:                  -0.785
REMARK UNBOUND:                -0.785
REMARK  Name = 
REMARK  5 active torsions:
REMARK  status: ('A' for Active; 'I' for Inactive)
REMARK    1  A    between atoms: C_2  and  C_4
REMARK    2  A    between atoms: C_7  and  N_8
REMARK    3  A    between atoms: N_8  and  C_9
REMARK    4  A    between atoms: C_9  and  C_10
REMARK    5  A    between atoms: C_12  and  C_13
REMARK                            x       y       z     vdW  Elec       q    Type
REMARK                         _______ _______ _______ _____ _____    ______ ____
ROOT
ATOM      1  N   UNL     1      43.708   4.777  10.040  0.00  0.00    +0.000 N 
ATOM      2  H   UNL     1      42.805   4.934   9.594  0.00  0.00    +0.000 HD
ENDROOT
BRANCH   1   6
ATOM      3  C   UNL     1      46.309   2.305   7.815  0.00  0.00    +0.000 A 
ATOM      4  C   UNL     1      45.411   1.725   8.712  0.00  0.00    +0.000 A 
ATOM      5  C   UNL     1      44.536   2.531   9.445  0.00  0.00    +0.000 A 
ATOM      6  C   UNL     1      44.514   3.921   9.285  0.00  0.00    +0.000 A 
ATOM      7  C   UNL     1      45.431   4.490   8.386  0.00  0.00    +0.000 A 
ATOM      8  C   UNL     1      46.327   3.693   7.662  0.00  0.00    +0.000 A 
BRANCH   3  10
ATOM      9  N   UNL     1      48.412   2.110   6.604  0.00  0.00    +0.000 N 
ATOM     10  C   UNL     1      47.283   1.481   7.053  0.00  0.00    +0.000 C 
ATOM     11  O   UNL     1      47.106   0.285   6.862  0.00  0.00    +0.000 OA
ATOM     12  H   UNL     1      49.111   1.520   6.171  0.00  0.00    +0.000 HD
ATOM     13  H   UNL     1      48.707   3.011   6.952  0.00  0.00    +0.000 HD
ENDBRANCH   3  10
ENDBRANCH   1   6
BRANCH   1  14
ATOM     14  C   UNL     1      43.590   4.560  11.484  0.00  0.00    +0.000 C 
BRANCH  14  15
ATOM     15  C   UNL     1      44.862   4.938  12.214  0.00  0.00    +0.000 A 
ATOM     16  C   UNL     1      45.530   6.116  11.884  0.00  0.00    +0.000 A 
ATOM     17  C   UNL     1      46.726   6.459  12.533  0.00  0.00    +0.000 A 
ATOM     18  C   UNL     1      47.205   5.557  13.491  0.00  0.00    +0.000 A 
ATOM     19  C   UNL     1      46.486   4.401  13.758  0.00  0.00    +0.000 A 
ATOM     20  N   UNL     1      45.329   4.076  13.147  0.00  0.00    +0.000 NA
BRANCH  17  21
ATOM     21  C   UNL     1      47.435   7.714  12.209  0.00  0.00    +0.000 A 
ATOM     22  C   UNL     1      48.771   7.721  11.780  0.00  0.00    +0.000 A 
ATOM     23  C   UNL     1      49.431   8.918  11.510  0.00  0.00    +0.000 A 
ATOM     24  C   UNL     1      48.730  10.100  11.659  0.00  0.00    +0.000 A 
ATOM     25  N   UNL     1      47.441  10.155  12.053  0.00  0.00    +0.000 NA
ATOM     26  C   UNL     1      46.835   8.972  12.321  0.00  0.00    +0.000 A 
ENDBRANCH  17  21
ENDBRANCH  14  15
ENDBRANCH   1  14
TORSDOF 5
ENDMDL
MODEL 2
REMARK VINA RESULT:    -7.945      2.077      3.400
REMARK INTER + INTRA:         -11.053
REMARK INTER:                 -10.491
REMARK INTRA:                  -0.562
REMARK UNBOUND:                -0.785
REMARK  Name = 
REMARK  5 active torsions:
REMARK  status: ('A' for Active; 'I' for Inactive)
REMARK    1  A    between atoms: C_2  and  C_4
REMARK    2  A    between atoms: C_7  and  N_8
REMARK    3  A    between atoms: N_8  and  C_9
REMARK    4  A    between atoms: C_9  and  C_10
REMARK    5  A    between atoms: C_12  and  C_13
REMARK                            x       y       z     vdW  Elec       q    Type
REMARK                         _______ _______ _______ _____ _____    ______ ____
ROOT
ATOM      1  N   UNL     1      43.710   3.702  10.290  0.00  0.00    +0.000 N 
ATOM      2  H   UNL     1      42.827   3.269  10.021  0.00  0.00    +0.000 HD
ENDROOT
BRANCH   1   6
ATOM      3  C   UNL     1      46.654   2.680   7.441  0.00  0.00    +0.000 A 
ATOM      4  C   UNL     1      46.302   4.019   7.614  0.00  0.00    +0.000 A 
ATOM      5  C   UNL     1      45.338   4.372   8.563  0.00  0.00    +0.000 A 
ATOM      6  C   UNL     1      44.726   3.412   9.375  0.00  0.00    +0.000 A 
ATOM      7  C   UNL     1      45.083   2.068   9.182  0.00  0.00    +0.000 A 
ATOM      8  C   UNL     1      46.032   1.701   8.218  0.00  0.00    +0.000 A 
BRANCH   3  10
ATOM      9  N   UNL     1      47.710   3.026   5.275  0.00  0.00    +0.000 N 
ATOM     10  C   UNL     1      47.641   2.266   6.411  0.00  0.00    +0.000 C 
ATOM     11  O   UNL     1      48.386   1.310   6.579  0.00  0.00    +0.000 OA
ATOM     12  H   UNL     1      48.450   2.793   4.625  0.00  0.00    +0.000 HD
ATOM     13  H   UNL     1      47.302   3.947   5.212  0.00  0.00    +0.000 HD
ENDBRANCH   3  10
ENDBRANCH   1   6
BRANCH   1  14
ATOM     14  C   UNL     1      43.981   3.577  11.724  0.00  0.00    +0.000 C 
BRANCH  14  15
ATOM     15  C   UNL     1      44.844   4.712  12.233  0.00  0.00    +0.000 A 
ATOM     16  C   UNL     1      45.729   4.496  13.289  0.00  0.00    +0.000 A 
ATOM     17  C   UNL     1      46.509   5.550  13.789  0.00  0.00    +0.000 A 
ATOM     18  C   UNL     1      46.332   6.804  13.190  0.00  0.00    +0.000 A 
ATOM     19  C   UNL     1      45.426   6.940  12.149  0.00  0.00    +0.000 A 
ATOM     20  N   UNL     1      44.687   5.927  11.657  0.00  0.00    +0.000 NA
BRANCH  17  21
ATOM     21  C   UNL     1      47.465   5.331  14.893  0.00  0.00    +0.000 A 
ATOM     22  C   UNL     1      47.348   4.242  15.770  0.00  0.00    +0.000 A 
ATOM     23  C   UNL     1      48.242   4.071  16.825  0.00  0.00    +0.000 A 
ATOM     24  C   UNL     1      49.259   4.995  16.977  0.00  0.00    +0.000 A 
ATOM     25  N   UNL     1      49.431   6.052  16.158  0.00  0.00    +0.000 NA
ATOM     26  C   UNL     1      48.534   6.195  15.150  0.00  0.00    +0.000 A 
ENDBRANCH  17  21
ENDBRANCH  14  15
ENDBRANCH   1  14
TORSDOF 5
ENDMDL
MODEL 3
REMARK VINA RESULT:    -7.736      1.674      2.083
REMARK INTER + INTRA:         -10.782
REMARK INTER:                 -10.153
REMARK INTRA:                  -0.629
REMARK UNBOUND:                -0.785
REMARK  Name = 
REMARK  5 active torsions:
REMARK  status: ('A' for Active; 'I' for Inactive)
REMARK    1  A    between atoms: C_2  and  C_4
REMARK    2  A    between atoms: C_7  and  N_8
REMARK    3  A    between atoms: N_8  and  C_9
REMARK    4  A    between atoms: C_9  and  C_10
REMARK    5  A    between atoms: C_12  and  C_13
REMARK                            x       y       z     vdW  Elec       q    Type
REMARK                         _______ _______ _______ _____ _____    ______ ____
ROOT
ATOM      1  N   UNL     1      43.831   3.278  10.481  0.00  0.00    +0.000 N 
ATOM      2  H   UNL     1      43.140   2.534  10.580  0.00  0.00    +0.000 HD
ENDROOT
BRANCH   1   6
ATOM      3  C   UNL     1      46.493   2.770   7.242  0.00  0.00    +0.000 A 
ATOM      4  C   UNL     1      46.181   1.678   8.053  0.00  0.00    +0.000 A 
ATOM      5  C   UNL     1      45.291   1.829   9.119  0.00  0.00    +0.000 A 
ATOM      6  C   UNL     1      44.674   3.055   9.388  0.00  0.00    +0.000 A 
ATOM      7  C   UNL     1      45.006   4.147   8.571  0.00  0.00    +0.000 A 
ATOM      8  C   UNL     1      45.913   4.011   7.512  0.00  0.00    +0.000 A 
BRANCH   3  10
ATOM      9  N   UNL     1      48.717   2.192   6.440  0.00  0.00    +0.000 N 
ATOM     10  C   UNL     1      47.468   2.654   6.128  0.00  0.00    +0.000 C 
ATOM     11  O   UNL     1      47.164   2.926   4.974  0.00  0.00    +0.000 OA
ATOM     12  H   UNL     1      49.342   2.026   5.661  0.00  0.00    +0.000 HD
ATOM     13  H   UNL     1      48.922   1.728   7.314  0.00  0.00    +0.000 HD
ENDBRANCH   3  10
ENDBRANCH   1   6
BRANCH   1  14
ATOM     14  C   UNL     1      44.413   3.677  11.764  0.00  0.00    +0.000 C 
BRANCH  14  15
ATOM     15  C   UNL     1      44.830   5.133  11.762  0.00  0.00    +0.000 A 
ATOM     16  C   UNL     1      46.133   5.484  12.115  0.00  0.00    +0.000 A 
ATOM     17  C   UNL     1      46.519   6.833  12.147  0.00  0.00    +0.000 A 
ATOM     18  C   UNL     1      45.536   7.779  11.832  0.00  0.00    +0.000 A 
ATOM     19  C   UNL     1      44.260   7.350  11.499  0.00  0.00    +0.000 A 
ATOM     20  N   UNL     1      43.889   6.055  11.452  0.00  0.00    +0.000 NA
BRANCH  17  21
ATOM     21  C   UNL     1      47.901   7.220  12.499  0.00  0.00    +0.000 A 
ATOM     22  C   UNL     1      48.723   7.925  11.607  0.00  0.00    +0.000 A 
ATOM     23  C   UNL     1      50.034   8.253  11.946  0.00  0.00    +0.000 A 
ATOM     24  C   UNL     1      50.501   7.877  13.193  0.00  0.00    +0.000 A 
ATOM     25  N   UNL     1      49.754   7.212  14.096  0.00  0.00    +0.000 NA
ATOM     26  C   UNL     1      48.486   6.898  13.727  0.00  0.00    +0.000 A 
ENDBRANCH  17  21
ENDBRANCH  14  15
ENDBRANCH   1  14
TORSDOF 5
ENDMDL
MODEL 4
REMARK VINA RESULT:    -7.699      2.514      6.632
REMARK INTER + INTRA:         -10.734
REMARK INTER:                  -9.957
REMARK INTRA:                  -0.778
REMARK UNBOUND:                -0.785
REMARK  Name = 
REMARK  5 active torsions:
REMARK  status: ('A' for Active; 'I' for Inactive)
REMARK    1  A    between atoms: C_2  and  C_4
REMARK    2  A    between atoms: C_7  and  N_8
REMARK    3  A    between atoms: N_8  and  C_9
REMARK    4  A    between atoms: C_9  and  C_10
REMARK    5  A    between atoms: C_12  and  C_13
REMARK                            x       y       z     vdW  Elec       q    Type
REMARK                         _______ _______ _______ _____ _____    ______ ____
ROOT
ATOM      1  N   UNL     1      44.127   6.618  12.554  0.00  0.00    +0.000 N 
ATOM      2  H   UNL     1      43.577   7.315  13.056  0.00  0.00    +0.000 HD
ENDROOT
BRANCH   1   6
ATOM      3  C   UNL     1      48.290   7.325  12.580  0.00  0.00    +0.000 A 
ATOM      4  C   UNL     1      47.428   8.316  12.108  0.00  0.00    +0.000 A 
ATOM      5  C   UNL     1      46.048   8.100  12.106  0.00  0.00    +0.000 A 
ATOM      6  C   UNL     1      45.493   6.912  12.595  0.00  0.00    +0.000 A 
ATOM      7  C   UNL     1      46.373   5.921  13.056  0.00  0.00    +0.000 A 
ATOM      8  C   UNL     1      47.760   6.119  13.042  0.00  0.00    +0.000 A 
BRANCH   3  10
ATOM      9  N   UNL     1      50.420   7.437  13.752  0.00  0.00    +0.000 N 
ATOM     10  C   UNL     1      49.764   7.504  12.554  0.00  0.00    +0.000 C 
ATOM     11  O   UNL     1      50.375   7.672  11.507  0.00  0.00    +0.000 OA
ATOM     12  H   UNL     1      51.431   7.465  13.713  0.00  0.00    +0.000 HD
ATOM     13  H   UNL     1      49.992   7.057  14.585  0.00  0.00    +0.000 HD
ENDBRANCH   3  10
ENDBRANCH   1   6
BRANCH   1  14
ATOM     14  C   UNL     1      43.516   6.234  11.280  0.00  0.00    +0.000 C 
BRANCH  14  15
ATOM     15  C   UNL     1      43.774   4.778  10.950  0.00  0.00    +0.000 A 
ATOM     16  C   UNL     1      44.577   4.443   9.861  0.00  0.00    +0.000 A 
ATOM     17  C   UNL     1      44.795   3.097   9.529  0.00  0.00    +0.000 A 
ATOM     18  C   UNL     1      44.156   2.139  10.326  0.00  0.00    +0.000 A 
ATOM     19  C   UNL     1      43.366   2.553  11.387  0.00  0.00    +0.000 A 
ATOM     20  N   UNL     1      43.166   3.844  11.718  0.00  0.00    +0.000 NA
BRANCH  17  21
ATOM     21  C   UNL     1      45.660   2.726   8.391  0.00  0.00    +0.000 A 
ATOM     22  C   UNL     1      45.977   3.637   7.372  0.00  0.00    +0.000 A 
ATOM     23  C   UNL     1      46.768   3.258   6.290  0.00  0.00    +0.000 A 
ATOM     24  C   UNL     1      47.248   1.962   6.253  0.00  0.00    +0.000 A 
ATOM     25  N   UNL     1      46.990   1.047   7.209  0.00  0.00    +0.000 NA
ATOM     26  C   UNL     1      46.205   1.447   8.240  0.00  0.00    +0.000 A 
ENDBRANCH  17  21
ENDBRANCH  14  15
ENDBRANCH   1  14
TORSDOF 5
ENDMDL
MODEL 5
REMARK VINA RESULT:    -7.304      2.708      6.690
REMARK INTER + INTRA:         -10.224
REMARK INTER:                  -9.464
REMARK INTRA:                  -0.760
REMARK UNBOUND:                -0.785
REMARK  Name = 
REMARK  5 active torsions:
REMARK  status: ('A' for Active; 'I' for Inactive)
REMARK    1  A    between atoms: C_2  and  C_4
REMARK    2  A    between atoms: C_7  and  N_8
REMARK    3  A    between atoms: N_8  and  C_9
REMARK    4  A    between atoms: C_9  and  C_10
REMARK    5  A    between atoms: C_12  and  C_13
REMARK                            x       y       z     vdW  Elec       q    Type
REMARK                         _______ _______ _______ _____ _____    ______ ____
ROOT
ATOM      1  N   UNL     1      44.626   6.966  12.641  0.00  0.00    +0.000 N 
ATOM      2  H   UNL     1      44.150   7.684  13.187  0.00  0.00    +0.000 HD
ENDROOT
BRANCH   1   6
ATOM      3  C   UNL     1      48.773   7.759  12.661  0.00  0.00    +0.000 A 
ATOM      4  C   UNL     1      48.303   6.548  13.169  0.00  0.00    +0.000 A 
ATOM      5  C   UNL     1      46.934   6.267  13.157  0.00  0.00    +0.000 A 
ATOM      6  C   UNL     1      46.009   7.167  12.617  0.00  0.00    +0.000 A 
ATOM      7  C   UNL     1      46.496   8.386  12.119  0.00  0.00    +0.000 A 
ATOM      8  C   UNL     1      47.864   8.686  12.147  0.00  0.00    +0.000 A 
BRANCH   3  10
ATOM      9  N   UNL     1      50.938   7.651  13.769  0.00  0.00    +0.000 N 
ATOM     10  C   UNL     1      50.216   8.107  12.700  0.00  0.00    +0.000 C 
ATOM     11  O   UNL     1      50.750   8.746  11.802  0.00  0.00    +0.000 OA
ATOM     12  H   UNL     1      51.936   7.812  13.738  0.00  0.00    +0.000 HD
ATOM     13  H   UNL     1      50.597   6.925  14.384  0.00  0.00    +0.000 HD
ENDBRANCH   3  10
ENDBRANCH   1   6
BRANCH   1  14
ATOM     14  C   UNL     1      43.926   6.658  11.391  0.00  0.00    +0.000 C 
BRANCH  14  15
ATOM     15  C   UNL     1      44.005   5.183  11.053  0.00  0.00    +0.000 A 
ATOM     16  C   UNL     1      44.770   4.757   9.969  0.00  0.00    +0.000 A 
ATOM     17  C   UNL     1      44.823   3.397   9.629  0.00  0.00    +0.000 A 
ATOM     18  C   UNL     1      44.062   2.520  10.413  0.00  0.00    +0.000 A 
ATOM     19  C   UNL     1      43.320   3.023  11.471  0.00  0.00    +0.000 A 
ATOM     20  N   UNL     1      43.279   4.327  11.810  0.00  0.00    +0.000 NA
BRANCH  17  21
ATOM     21  C   UNL     1      45.645   2.928   8.495  0.00  0.00    +0.000 A 
ATOM     22  C   UNL     1      46.066   1.593   8.386  0.00  0.00    +0.000 A 
ATOM     23  C   UNL     1      46.868   1.178   7.326  0.00  0.00    +0.000 A 
ATOM     24  C   UNL     1      47.228   2.113   6.372  0.00  0.00    +0.000 A 
ATOM     25  N   UNL     1      46.843   3.404   6.416  0.00  0.00    +0.000 NA
ATOM     26  C   UNL     1      46.074   3.776   7.470  0.00  0.00    +0.000 A 
ENDBRANCH  17  21
ENDBRANCH  14  15
ENDBRANCH   1  14
TORSDOF 5
ENDMDL
MODEL 6
REMARK VINA RESULT:    -7.206      2.988      7.314
REMARK INTER + INTRA:         -10.097
REMARK INTER:                  -9.715
REMARK INTRA:                  -0.381
REMARK UNBOUND:                -0.785
REMARK  Name = 
REMARK  5 active torsions:
REMARK  status: ('A' for Active; 'I' for Inactive)
REMARK    1  A    between atoms: C_2  and  C_4
REMARK    2  A    between atoms: C_7  and  N_8
REMARK    3  A    between atoms: N_8  and  C_9
REMARK    4  A    between atoms: C_9  and  C_10
REMARK    5  A    between atoms: C_12  and  C_13
REMARK                            x       y       z     vdW  Elec       q    Type
REMARK                         _______ _______ _______ _____ _____    ______ ____
ROOT
ATOM      1  N   UNL     1      46.416   6.536  11.387  0.00  0.00    +0.000 N 
ATOM      2  H   UNL     1      47.070   6.197  10.682  0.00  0.00    +0.000 HD
ENDROOT
BRANCH   1   6
ATOM      3  C   UNL     1      47.849   5.590  15.245  0.00  0.00    +0.000 A 
ATOM      4  C   UNL     1      48.373   6.693  14.569  0.00  0.00    +0.000 A 
ATOM      5  C   UNL     1      47.898   7.025  13.297  0.00  0.00    +0.000 A 
ATOM      6  C   UNL     1      46.879   6.289  12.682  0.00  0.00    +0.000 A 
ATOM      7  C   UNL     1      46.370   5.176  13.370  0.00  0.00    +0.000 A 
ATOM      8  C   UNL     1      46.854   4.822  14.636  0.00  0.00    +0.000 A 
BRANCH   3  10
ATOM      9  N   UNL     1      47.438   4.988  17.567  0.00  0.00    +0.000 N 
ATOM     10  C   UNL     1      48.362   5.183  16.578  0.00  0.00    +0.000 C 
ATOM     11  O   UNL     1      49.555   4.998  16.781  0.00  0.00    +0.000 OA
ATOM     12  H   UNL     1      47.788   4.619  18.442  0.00  0.00    +0.000 HD
ATOM     13  H   UNL     1      46.451   4.886  17.376  0.00  0.00    +0.000 HD
ENDBRANCH   3  10
ENDBRANCH   1   6
BRANCH   1  14
ATOM     14  C   UNL     1      45.023   6.227  11.054  0.00  0.00    +0.000 C 
BRANCH  14  15
ATOM     15  C   UNL     1      44.880   4.833  10.481  0.00  0.00    +0.000 A 
ATOM     16  C   UNL     1      45.625   4.460   9.363  0.00  0.00    +0.000 A 
ATOM     17  C   UNL     1      45.475   3.180   8.805  0.00  0.00    +0.000 A 
ATOM     18  C   UNL     1      44.539   2.333   9.413  0.00  0.00    +0.000 A 
ATOM     19  C   UNL     1      43.831   2.781  10.518  0.00  0.00    +0.000 A 
ATOM     20  N   UNL     1      43.984   4.004  11.065  0.00  0.00    +0.000 NA
BRANCH  17  21
ATOM     21  C   UNL     1      46.271   2.764   7.634  0.00  0.00    +0.000 A 
ATOM     22  C   UNL     1      46.320   3.530   6.459  0.00  0.00    +0.000 A 
ATOM     23  C   UNL     1      47.052   3.103   5.354  0.00  0.00    +0.000 A 
ATOM     24  C   UNL     1      47.745   1.910   5.449  0.00  0.00    +0.000 A 
ATOM     25  N   UNL     1      47.748   1.139   6.555  0.00  0.00    +0.000 NA
ATOM     26  C   UNL     1      47.014   1.579   7.607  0.00  0.00    +0.000 A 
ENDBRANCH  17  21
ENDBRANCH  14  15
ENDBRANCH   1  14
TORSDOF 5
ENDMDL
MODEL 7
REMARK VINA RESULT:    -6.869      3.373      7.348
REMARK INTER + INTRA:          -9.662
REMARK INTER:                  -9.088
REMARK INTRA:                  -0.574
REMARK UNBOUND:                -0.785
REMARK  Name = 
REMARK  5 active torsions:
REMARK  status: ('A' for Active; 'I' for Inactive)
REMARK    1  A    between atoms: C_2  and  C_4
REMARK    2  A    between atoms: C_7  and  N_8
REMARK    3  A    between atoms: N_8  and  C_9
REMARK    4  A    between atoms: C_9  and  C_10
REMARK    5  A    between atoms: C_12  and  C_13
REMARK                            x       y       z     vdW  Elec       q    Type
REMARK                         _______ _______ _______ _____ _____    ______ ____
ROOT
ATOM      1  N   UNL     1      47.096   6.610  12.934  0.00  0.00    +0.000 N 
ATOM      2  H   UNL     1      47.480   6.166  12.100  0.00  0.00    +0.000 HD
ENDROOT
BRANCH   1   6
ATOM      3  C   UNL     1      48.119   4.694  16.555  0.00  0.00    +0.000 A 
ATOM      4  C   UNL     1      47.229   4.074  15.677  0.00  0.00    +0.000 A 
ATOM      5  C   UNL     1      46.892   4.691  14.470  0.00  0.00    +0.000 A 
ATOM      6  C   UNL     1      47.449   5.919  14.096  0.00  0.00    +0.000 A 
ATOM      7  C   UNL     1      48.334   6.535  14.994  0.00  0.00    +0.000 A 
ATOM      8  C   UNL     1      48.662   5.935  16.217  0.00  0.00    +0.000 A 
BRANCH   3  10
ATOM      9  N   UNL     1      47.735   4.494  18.950  0.00  0.00    +0.000 N 
ATOM     10  C   UNL     1      48.463   4.087  17.866  0.00  0.00    +0.000 C 
ATOM     11  O   UNL     1      49.336   3.235  17.973  0.00  0.00    +0.000 OA
ATOM     12  H   UNL     1      47.913   4.005  19.819  0.00  0.00    +0.000 HD
ATOM     13  H   UNL     1      46.861   4.992  18.862  0.00  0.00    +0.000 HD
ENDBRANCH   3  10
ENDBRANCH   1   6
BRANCH   1  14
ATOM     14  C   UNL     1      45.707   7.040  12.751  0.00  0.00    +0.000 C 
BRANCH  14  15
ATOM     15  C   UNL     1      44.913   6.039  11.939  0.00  0.00    +0.000 A 
ATOM     16  C   UNL     1      45.538   5.306  10.931  0.00  0.00    +0.000 A 
ATOM     17  C   UNL     1      44.803   4.400  10.152  0.00  0.00    +0.000 A 
ATOM     18  C   UNL     1      43.434   4.295  10.429  0.00  0.00    +0.000 A 
ATOM     19  C   UNL     1      42.884   5.064  11.443  0.00  0.00    +0.000 A 
ATOM     20  N   UNL     1      43.590   5.925  12.204  0.00  0.00    +0.000 NA
BRANCH  17  21
ATOM     21  C   UNL     1      45.456   3.602   9.094  0.00  0.00    +0.000 A 
ATOM     22  C   UNL     1      46.066   4.203   7.982  0.00  0.00    +0.000 A 
ATOM     23  C   UNL     1      46.649   3.431   6.980  0.00  0.00    +0.000 A 
ATOM     24  C   UNL     1      46.625   2.055   7.115  0.00  0.00    +0.000 A 
ATOM     25  N   UNL     1      46.067   1.422   8.167  0.00  0.00    +0.000 NA
ATOM     26  C   UNL     1      45.497   2.205   9.117  0.00  0.00    +0.000 A 
ENDBRANCH  17  21
ENDBRANCH  14  15
ENDBRANCH   1  14
TORSDOF 5
ENDMDL
MODEL 8
REMARK VINA RESULT:    -6.337      2.859      7.122
REMARK INTER + INTRA:          -8.973
REMARK INTER:                  -8.356
REMARK INTRA:                  -0.617
REMARK UNBOUND:                -0.785
REMARK  Name = 
REMARK  5 active torsions:
REMARK  status: ('A' for Active; 'I' for Inactive)
REMARK    1  A    between atoms: C_2  and  C_4
REMARK    2  A    between atoms: C_7  and  N_8
REMARK    3  A    between atoms: N_8  and  C_9
REMARK    4  A    between atoms: C_9  and  C_10
REMARK    5  A    between atoms: C_12  and  C_13
REMARK                            x       y       z     vdW  Elec       q    Type
REMARK                         _______ _______ _______ _____ _____    ______ ____
ROOT
ATOM      1  N   UNL     1      46.562   6.312  12.949  0.00  0.00    +0.000 N 
ATOM      2  H   UNL     1      46.911   5.955  13.839  0.00  0.00    +0.000 HD
ENDROOT
BRANCH   1   6
ATOM      3  C   UNL     1      48.583   9.778  11.635  0.00  0.00    +0.000 A 
ATOM      4  C   UNL     1      47.278   9.886  12.118  0.00  0.00    +0.000 A 
ATOM      5  C   UNL     1      46.603   8.748  12.568  0.00  0.00    +0.000 A 
ATOM      6  C   UNL     1      47.213   7.490  12.574  0.00  0.00    +0.000 A 
ATOM      7  C   UNL     1      48.522   7.396  12.075  0.00  0.00    +0.000 A 
ATOM      8  C   UNL     1      49.200   8.526  11.601  0.00  0.00    +0.000 A 
BRANCH   3  10
ATOM      9  N   UNL     1      50.407  11.380  11.812  0.00  0.00    +0.000 N 
ATOM     10  C   UNL     1      49.312  10.959  11.107  0.00  0.00    +0.000 C 
ATOM     11  O   UNL     1      48.975  11.516  10.071  0.00  0.00    +0.000 OA
ATOM     12  H   UNL     1      50.951  12.124  11.394  0.00  0.00    +0.000 HD
ATOM     13  H   UNL     1      50.854  10.807  12.513  0.00  0.00    +0.000 HD
ENDBRANCH   3  10
ENDBRANCH   1   6
BRANCH   1  14
ATOM     14  C   UNL     1      45.102   6.239  12.850  0.00  0.00    +0.000 C 
BRANCH  14  15
ATOM     15  C   UNL     1      44.651   5.005  12.097  0.00  0.00    +0.000 A 
ATOM     16  C   UNL     1      45.319   4.615  10.937  0.00  0.00    +0.000 A 
ATOM     17  C   UNL     1      44.888   3.491  10.214  0.00  0.00    +0.000 A 
ATOM     18  C   UNL     1      43.764   2.817  10.707  0.00  0.00    +0.000 A 
ATOM     19  C   UNL     1      43.150   3.272  11.864  0.00  0.00    +0.000 A 
ATOM     20  N   UNL     1      43.570   4.342  12.569  0.00  0.00    +0.000 NA
BRANCH  17  21
ATOM     21  C   UNL     1      45.597   3.055   8.995  0.00  0.00    +0.000 A 
ATOM     22  C   UNL     1      46.086   3.972   8.052  0.00  0.00    +0.000 A 
ATOM     23  C   UNL     1      46.724   3.539   6.892  0.00  0.00    +0.000 A 
ATOM     24  C   UNL     1      46.879   2.178   6.700  0.00  0.00    +0.000 A 
ATOM     25  N   UNL     1      46.444   1.250   7.576  0.00  0.00    +0.000 NA
ATOM     26  C   UNL     1      45.815   1.708   8.688  0.00  0.00    +0.000 A 
ENDBRANCH  17  21
ENDBRANCH  14  15
ENDBRANCH   1  14
TORSDOF 5
ENDMDL
MODEL 9
REMARK VINA RESULT:    -6.181      3.240      5.643
REMARK INTER + INTRA:          -8.772
REMARK INTER:                  -7.985
REMARK INTRA:                  -0.788
REMARK UNBOUND:                -0.785
REMARK  Name = 
REMARK  5 active torsions:
REMARK  status: ('A' for Active; 'I' for Inactive)
REMARK    1  A    between atoms: C_2  and  C_4
REMARK    2  A    between atoms: C_7  and  N_8
REMARK    3  A    between atoms: N_8  and  C_9
REMARK    4  A    between atoms: C_9  and  C_10
REMARK    5  A    between atoms: C_12  and  C_13
REMARK                            x       y       z     vdW  Elec       q    Type
REMARK                         _______ _______ _______ _____ _____    ______ ____
ROOT
ATOM      1  N   UNL     1      46.335   7.801  12.203  0.00  0.00    +0.000 N 
ATOM      2  H   UNL     1      45.960   8.279  13.022  0.00  0.00    +0.000 HD
ENDROOT
BRANCH   1   6
ATOM      3  C   UNL     1      44.435   4.130  11.339  0.00  0.00    +0.000 A 
ATOM      4  C   UNL     1      44.260   4.715  12.593  0.00  0.00    +0.000 A 
ATOM      5  C   UNL     1      44.873   5.936  12.888  0.00  0.00    +0.000 A 
ATOM      6  C   UNL     1      45.646   6.613  11.939  0.00  0.00    +0.000 A 
ATOM      7  C   UNL     1      45.821   6.007  10.685  0.00  0.00    +0.000 A 
ATOM      8  C   UNL     1      45.229   4.773  10.387  0.00  0.00    +0.000 A 
BRANCH   3  10
ATOM      9  N   UNL     1      44.350   2.147   9.930  0.00  0.00    +0.000 N 
ATOM     10  C   UNL     1      43.835   2.812  11.009  0.00  0.00    +0.000 C 
ATOM     11  O   UNL     1      42.941   2.322  11.687  0.00  0.00    +0.000 OA
ATOM     12  H   UNL     1      44.001   1.210   9.772  0.00  0.00    +0.000 HD
ATOM     13  H   UNL     1      45.235   2.395   9.511  0.00  0.00    +0.000 HD
ENDBRANCH   3  10
ENDBRANCH   1   6
BRANCH   1  14
ATOM     14  C   UNL     1      47.800   7.799  12.176  0.00  0.00    +0.000 C 
BRANCH  14  15
ATOM     15  C   UNL     1      48.386   7.746  13.571  0.00  0.00    +0.000 A 
ATOM     16  C   UNL     1      48.201   6.612  14.361  0.00  0.00    +0.000 A 
ATOM     17  C   UNL     1      48.713   6.566  15.667  0.00  0.00    +0.000 A 
ATOM     18  C   UNL     1      49.385   7.708  16.122  0.00  0.00    +0.000 A 
ATOM     19  C   UNL     1      49.520   8.800  15.278  0.00  0.00    +0.000 A 
ATOM     20  N   UNL     1      49.043   8.842  14.018  0.00  0.00    +0.000 NA
BRANCH  17  21
ATOM     21  C   UNL     1      48.543   5.364  16.508  0.00  0.00    +0.000 A 
ATOM     22  C   UNL     1      47.532   4.423  16.261  0.00  0.00    +0.000 A 
ATOM     23  C   UNL     1      47.368   3.312  17.086  0.00  0.00    +0.000 A 
ATOM     24  C   UNL     1      48.239   3.152  18.148  0.00  0.00    +0.000 A 
ATOM     25  N   UNL     1      49.238   4.013  18.426  0.00  0.00    +0.000 NA
ATOM     26  C   UNL     1      49.359   5.090  17.610  0.00  0.00    +0.000 A 
ENDBRANCH  17  21
ENDBRANCH  14  15
ENDBRANCH   1  14
TORSDOF 5
ENDMDL
