MODEL 1
REMARK VINA RESULT:    -8.155      0.000      0.000
REMARK INTER + INTRA:         -10.422
REMARK INTER:                  -9.823
REMARK INTRA:                  -0.599
REMARK UNBOUND:                -0.599
REMARK  Name = 
REMARK  4 active torsions:
REMARK  status: ('A' for Active; 'I' for Inactive)
REMARK    1  A    between atoms: N_1  and  C_2
REMARK    2  A    between atoms: C_2  and  C_3
REMARK    3  A    between atoms: C_6  and  C_7
REMARK    4  A    between atoms: C_7  and  C_8
REMARK                            x       y       z     vdW  Elec       q    Type
REMARK                         _______ _______ _______ _____ _____    ______ ____
ROOT
ATOM      1  C   UNL     1      43.932   4.328  10.303  0.00  0.00    +0.000 C 
ENDROOT
BRANCH   1   2
ATOM      2  C   UNL     1      44.639   4.436  11.617  0.00  0.00    +0.000 A 
ATOM      3  N   UNL     1      44.373   3.570  12.610  0.00  0.00    +0.000 NA
ATOM      4  N   UNL     1      45.234   3.917  13.582  0.00  0.00    +0.000 N 
ATOM      5  C   UNL     1      46.085   4.930  13.242  0.00  0.00    +0.000 A 
ATOM      6  C   UNL     1      47.135   5.525  13.924  0.00  0.00    +0.000 A 
ATOM      7  N   UNL     1      47.819   6.522  13.317  0.00  0.00    +0.000 NA
ATOM      8  C   UNL     1      47.452   6.911  12.075  0.00  0.00    +0.000 A 
ATOM      9  C   UNL     1      46.412   6.353  11.342  0.00  0.00    +0.000 A 
ATOM     10  C   UNL     1      45.709   5.314  11.962  0.00  0.00    +0.000 A 
ATOM     11  H   UNL     1      45.203   3.399  14.454  0.00  0.00    +0.000 HD
ENDBRANCH   1   2
BRANCH   1  15
ATOM     12  C   UNL     1      46.588   2.374   7.482  0.00  0.00    +0.000 A 
ATOM     13  C   UNL     1      45.868   1.623   8.421  0.00  0.00    +0.000 A 
ATOM     14  C   UNL     1      45.014   2.247   9.336  0.00  0.00    +0.000 A 
ATOM     15  C   UNL     1      44.864   3.640   9.335  0.00  0.00    +0.000 A 
ATOM     16  C   UNL     1      45.580   4.391   8.390  0.00  0.00    +0.000 A 
ATOM     17  C   UNL     1      46.430   3.766   7.475  0.00  0.00    +0.000 A 
BRANCH  12  18
ATOM     18  C   UNL     1      47.550   1.705   6.532  0.00  0.00    +0.000 C 
BRANCH  18  19
ATOM     19  N   UNL     1      48.685   2.562   6.209  0.00  0.00    +0.000 NA
ATOM     20  H   UNL     1      49.459   2.335   6.830  0.00  0.00    +0.000 HD
ATOM     21  H   UNL     1      48.431   3.529   6.411  0.00  0.00    +0.000 HD
ENDBRANCH  18  19
ENDBRANCH  12  18
ENDBRANCH   1  15
TORSDOF 4
ENDMDL
MODEL 2
REMARK VINA RESULT:    -7.643      1.814      6.120
REMARK INTER + INTRA:          -9.806
REMARK INTER:                  -9.237
REMARK INTRA:                  -0.569
REMARK UNBOUND:                -0.599
REMARK  Name = 
REMARK  4 active torsions:
REMARK  status: ('A' for Active; 'I' for Inactive)
REMARK    1  A    between atoms: N_1  and  C_2
REMARK    2  A    between atoms: C_2  and  C_3
REMARK    3  A    between atoms: C_6  and  C_7
REMARK    4  A    between atoms: C_7  and  C_8
REMARK                            x       y       z     vdW  Elec       q    Type
REMARK                         _______ _______ _______ _____ _____    ______ ____
ROOT
ATOM      1  C   UNL     1      44.410   4.275   9.533  0.00  0.00    +0.000 C 
ENDROOT
BRANCH   1   2
ATOM      2  C   UNL     1      45.455   3.940   8.516  0.00  0.00    +0.000 A 
ATOM      3  N   UNL     1      46.161   4.914   7.916  0.00  0.00    +0.000 NA
ATOM      4  N   UNL     1      47.039   4.249   7.145  0.00  0.00    +0.000 N 
ATOM      5  C   UNL     1      46.971   2.890   7.262  0.00  0.00    +0.000 A 
ATOM      6  C   UNL     1      47.725   1.873   6.697  0.00  0.00    +0.000 A 
ATOM      7  N   UNL     1      47.425   0.592   7.012  0.00  0.00    +0.000 NA
ATOM      8  C   UNL     1      46.398   0.345   7.858  0.00  0.00    +0.000 A 
ATOM      9  C   UNL     1      45.609   1.320   8.456  0.00  0.00    +0.000 A 
ATOM     10  C   UNL     1      45.923   2.647   8.140  0.00  0.00    +0.000 A 
ATOM     11  H   UNL     1      47.679   4.791   6.574  0.00  0.00    +0.000 HD
ENDBRANCH   1   2
BRANCH   1  15
ATOM     12  C   UNL     1      46.316   4.458  13.428  0.00  0.00    +0.000 A 
ATOM     13  C   UNL     1      46.220   5.603  12.626  0.00  0.00    +0.000 A 
ATOM     14  C   UNL     1      45.611   5.550  11.369  0.00  0.00    +0.000 A 
ATOM     15  C   UNL     1      45.087   4.346  10.881  0.00  0.00    +0.000 A 
ATOM     16  C   UNL     1      45.178   3.200  11.686  0.00  0.00    +0.000 A 
ATOM     17  C   UNL     1      45.783   3.256  12.944  0.00  0.00    +0.000 A 
BRANCH  12  18
ATOM     18  C   UNL     1      47.020   4.504  14.761  0.00  0.00    +0.000 C 
BRANCH  18  19
ATOM     19  N   UNL     1      47.628   3.223  15.103  0.00  0.00    +0.000 NA
ATOM     20  H   UNL     1      47.123   2.479  14.627  0.00  0.00    +0.000 HD
ATOM     21  H   UNL     1      47.501   3.061  16.102  0.00  0.00    +0.000 HD
ENDBRANCH  18  19
ENDBRANCH  12  18
ENDBRANCH   1  15
TORSDOF 4
ENDMDL
MODEL 3
REMARK VINA RESULT:    -7.589      1.516      1.783
REMARK INTER + INTRA:          -9.740
REMARK INTER:                  -9.354
REMARK INTRA:                  -0.386
REMARK UNBOUND:                -0.599
REMARK  Name = 
REMARK  4 active torsions:
REMARK  status: ('A' for Active; 'I' for Inactive)
REMARK    1  A    between atoms: N_1  and  C_2
REMARK    2  A    between atoms: C_2  and  C_3
REMARK    3  A    between atoms: C_6  and  C_7
REMARK    4  A    between atoms: C_7  and  C_8
REMARK                            x       y       z     vdW  Elec       q    Type
REMARK                         _______ _______ _______ _____ _____    ______ ____
ROOT
ATOM      1  C   UNL     1      43.950   3.293  10.575  0.00  0.00    +0.000 C 
ENDROOT
BRANCH   1   2
ATOM      2  C   UNL     1      43.995   4.739  10.955  0.00  0.00    +0.000 A 
ATOM      3  N   UNL     1      42.933   5.535  10.740  0.00  0.00    +0.000 NA
ATOM      4  N   UNL     1      43.301   6.715  11.268  0.00  0.00    +0.000 N 
ATOM      5  C   UNL     1      44.529   6.704  11.866  0.00  0.00    +0.000 A 
ATOM      6  C   UNL     1      45.228   7.676  12.564  0.00  0.00    +0.000 A 
ATOM      7  N   UNL     1      46.448   7.366  13.061  0.00  0.00    +0.000 NA
ATOM      8  C   UNL     1      46.947   6.125  12.855  0.00  0.00    +0.000 A 
ATOM      9  C   UNL     1      46.294   5.110  12.168  0.00  0.00    +0.000 A 
ATOM     10  C   UNL     1      45.027   5.424  11.660  0.00  0.00    +0.000 A 
ATOM     11  H   UNL     1      42.649   7.490  11.206  0.00  0.00    +0.000 HD
ENDBRANCH   1   2
BRANCH   1  15
ATOM     12  C   UNL     1      46.477   2.776   7.084  0.00  0.00    +0.000 A 
ATOM     13  C   UNL     1      46.196   1.693   7.929  0.00  0.00    +0.000 A 
ATOM     14  C   UNL     1      45.386   1.854   9.057  0.00  0.00    +0.000 A 
ATOM     15  C   UNL     1      44.841   3.106   9.370  0.00  0.00    +0.000 A 
ATOM     16  C   UNL     1      45.117   4.189   8.522  0.00  0.00    +0.000 A 
ATOM     17  C   UNL     1      45.924   4.026   7.392  0.00  0.00    +0.000 A 
BRANCH  12  18
ATOM     18  C   UNL     1      47.393   2.613   5.898  0.00  0.00    +0.000 C 
BRANCH  18  19
ATOM     19  N   UNL     1      48.398   1.580   6.120  0.00  0.00    +0.000 NA
ATOM     20  H   UNL     1      48.698   1.612   7.093  0.00  0.00    +0.000 HD
ATOM     21  H   UNL     1      49.222   1.802   5.560  0.00  0.00    +0.000 HD
ENDBRANCH  18  19
ENDBRANCH  12  18
ENDBRANCH   1  15
TORSDOF 4
ENDMDL
MODEL 4
REMARK VINA RESULT:    -7.053      1.696      5.767
REMARK INTER + INTRA:          -9.095
REMARK INTER:                  -8.532
REMARK INTRA:                  -0.563
REMARK UNBOUND:                -0.599
REMARK  Name = 
REMARK  4 active torsions:
REMARK  status: ('A' for Active; 'I' for Inactive)
REMARK    1  A    between atoms: N_1  and  C_2
REMARK    2  A    between atoms: C_2  and  C_3
REMARK    3  A    between atoms: C_6  and  C_7
REMARK    4  A    between atoms: C_7  and  C_8
REMARK                            x       y       z     vdW  Elec       q    Type
REMARK                         _______ _______ _______ _____ _____    ______ ____
ROOT
ATOM      1  C   UNL     1      44.337   4.408   9.265  0.00  0.00    +0.000 C 
ENDROOT
BRANCH   1   2
ATOM      2  C   UNL     1      44.940   3.077   8.946  0.00  0.00    +0.000 A 
ATOM      3  N   UNL     1      44.369   1.944   9.392  0.00  0.00    +0.000 NA
ATOM      4  N   UNL     1      45.123   0.969   8.854  0.00  0.00    +0.000 N 
ATOM      5  C   UNL     1      46.119   1.417   8.034  0.00  0.00    +0.000 A 
ATOM      6  C   UNL     1      47.052   0.747   7.260  0.00  0.00    +0.000 A 
ATOM      7  N   UNL     1      47.929   1.473   6.527  0.00  0.00    +0.000 NA
ATOM      8  C   UNL     1      47.871   2.823   6.581  0.00  0.00    +0.000 A 
ATOM      9  C   UNL     1      46.959   3.551   7.336  0.00  0.00    +0.000 A 
ATOM     10  C   UNL     1      46.045   2.803   8.087  0.00  0.00    +0.000 A 
ATOM     11  H   UNL     1      44.884   0.007   9.072  0.00  0.00    +0.000 HD
ENDBRANCH   1   2
BRANCH   1  15
ATOM     12  C   UNL     1      46.560   6.069  12.602  0.00  0.00    +0.000 A 
ATOM     13  C   UNL     1      45.644   5.028  12.803  0.00  0.00    +0.000 A 
ATOM     14  C   UNL     1      44.921   4.492  11.732  0.00  0.00    +0.000 A 
ATOM     15  C   UNL     1      45.096   4.988  10.434  0.00  0.00    +0.000 A 
ATOM     16  C   UNL     1      46.018   6.026  10.232  0.00  0.00    +0.000 A 
ATOM     17  C   UNL     1      46.742   6.559  11.302  0.00  0.00    +0.000 A 
BRANCH  12  18
ATOM     18  C   UNL     1      47.299   6.683  13.764  0.00  0.00    +0.000 C 
BRANCH  18  19
ATOM     19  N   UNL     1      47.778   5.674  14.703  0.00  0.00    +0.000 NA
ATOM     20  H   UNL     1      47.066   4.954  14.807  0.00  0.00    +0.000 HD
ATOM     21  H   UNL     1      47.881   6.108  15.620  0.00  0.00    +0.000 HD
ENDBRANCH  18  19
ENDBRANCH  12  18
ENDBRANCH   1  15
TORSDOF 4
ENDMDL
MODEL 5
REMARK VINA RESULT:    -6.894      1.668      5.747
REMARK INTER + INTRA:          -8.903
REMARK INTER:                  -8.327
REMARK INTRA:                  -0.575
REMARK UNBOUND:                -0.599
REMARK  Name = 
REMARK  4 active torsions:
REMARK  status: ('A' for Active; 'I' for Inactive)
REMARK    1  A    between atoms: N_1  and  C_2
REMARK    2  A    between atoms: C_2  and  C_3
REMARK    3  A    between atoms: C_6  and  C_7
REMARK    4  A    between atoms: C_7  and  C_8
REMARK                            x       y       z     vdW  Elec       q    Type
REMARK                         _______ _______ _______ _____ _____    ______ ____
ROOT
ATOM      1  C   UNL     1      43.398   5.390  10.995  0.00  0.00    +0.000 C 
ENDROOT
BRANCH   1   2
ATOM      2  C   UNL     1      43.909   4.056  10.549  0.00  0.00    +0.000 A 
ATOM      3  N   UNL     1      43.408   2.924  11.072  0.00  0.00    +0.000 NA
ATOM      4  N   UNL     1      44.034   1.948  10.390  0.00  0.00    +0.000 N 
ATOM      5  C   UNL     1      44.873   2.398   9.411  0.00  0.00    +0.000 A 
ATOM      6  C   UNL     1      45.638   1.730   8.469  0.00  0.00    +0.000 A 
ATOM      7  N   UNL     1      46.380   2.457   7.602  0.00  0.00    +0.000 NA
ATOM      8  C   UNL     1      46.358   3.807   7.688  0.00  0.00    +0.000 A 
ATOM      9  C   UNL     1      45.611   4.533   8.608  0.00  0.00    +0.000 A 
ATOM     10  C   UNL     1      44.835   3.783   9.500  0.00  0.00    +0.000 A 
ATOM     11  H   UNL     1      43.822   0.986  10.631  0.00  0.00    +0.000 HD
ENDBRANCH   1   2
BRANCH   1  15
ATOM     12  C   UNL     1      46.674   7.468  12.940  0.00  0.00    +0.000 A 
ATOM     13  C   UNL     1      46.385   6.135  13.260  0.00  0.00    +0.000 A 
ATOM     14  C   UNL     1      45.328   5.461  12.640  0.00  0.00    +0.000 A 
ATOM     15  C   UNL     1      44.531   6.109  11.686  0.00  0.00    +0.000 A 
ATOM     16  C   UNL     1      44.825   7.442  11.362  0.00  0.00    +0.000 A 
ATOM     17  C   UNL     1      45.884   8.113  11.979  0.00  0.00    +0.000 A 
BRANCH  12  18
ATOM     18  C   UNL     1      47.780   8.211  13.647  0.00  0.00    +0.000 C 
BRANCH  18  19
ATOM     19  N   UNL     1      47.290   8.947  14.808  0.00  0.00    +0.000 NA
ATOM     20  H   UNL     1      46.317   8.696  14.973  0.00  0.00    +0.000 HD
ATOM     21  H   UNL     1      47.294   9.942  14.586  0.00  0.00    +0.000 HD
ENDBRANCH  18  19
ENDBRANCH  12  18
ENDBRANCH   1  15
TORSDOF 4
ENDMDL
MODEL 6
REMARK VINA RESULT:    -6.305      1.647      5.584
REMARK INTER + INTRA:          -8.194
REMARK INTER:                  -7.573
REMARK INTRA:                  -0.621
REMARK UNBOUND:                -0.599
REMARK  Name = 
REMARK  4 active torsions:
REMARK  status: ('A' for Active; 'I' for Inactive)
REMARK    1  A    between atoms: N_1  and  C_2
REMARK    2  A    between atoms: C_2  and  C_3
REMARK    3  A    between atoms: C_6  and  C_7
REMARK    4  A    between atoms: C_7  and  C_8
REMARK                            x       y       z     vdW  Elec       q    Type
REMARK                         _______ _______ _______ _____ _____    ______ ____
ROOT
ATOM      1  C   UNL     1      43.780   5.621  11.946  0.00  0.00    +0.000 C 
ENDROOT
BRANCH   1   2
ATOM      2  C   UNL     1      44.006   4.279  11.327  0.00  0.00    +0.000 A 
ATOM      3  N   UNL     1      43.433   3.180  11.848  0.00  0.00    +0.000 NA
ATOM      4  N   UNL     1      43.787   2.198  11.002  0.00  0.00    +0.000 N 
ATOM      5  C   UNL     1      44.514   2.620   9.925  0.00  0.00    +0.000 A 
ATOM      6  C   UNL     1      45.007   1.945   8.820  0.00  0.00    +0.000 A 
ATOM      7  N   UNL     1      45.700   2.643   7.890  0.00  0.00    +0.000 NA
ATOM      8  C   UNL     1      45.894   3.970   8.073  0.00  0.00    +0.000 A 
ATOM      9  C   UNL     1      45.423   4.700   9.157  0.00  0.00    +0.000 A 
ATOM     10  C   UNL     1      44.698   3.982  10.116  0.00  0.00    +0.000 A 
ATOM     11  H   UNL     1      43.474   1.255  11.208  0.00  0.00    +0.000 HD
ENDBRANCH   1   2
BRANCH   1  15
ATOM     12  C   UNL     1      47.612   7.120  13.326  0.00  0.00    +0.000 A 
ATOM     13  C   UNL     1      46.829   7.872  12.440  0.00  0.00    +0.000 A 
ATOM     14  C   UNL     1      45.595   7.392  11.988  0.00  0.00    +0.000 A 
ATOM     15  C   UNL     1      45.117   6.145  12.410  0.00  0.00    +0.000 A 
ATOM     16  C   UNL     1      45.899   5.395  13.302  0.00  0.00    +0.000 A 
ATOM     17  C   UNL     1      47.129   5.876  13.756  0.00  0.00    +0.000 A 
BRANCH  12  18
ATOM     18  C   UNL     1      48.966   7.613  13.770  0.00  0.00    +0.000 C 
BRANCH  18  19
ATOM     19  N   UNL     1      50.043   7.070  12.950  0.00  0.00    +0.000 NA
ATOM     20  H   UNL     1      50.005   7.498  12.027  0.00  0.00    +0.000 HD
ATOM     21  H   UNL     1      49.873   6.074  12.809  0.00  0.00    +0.000 HD
ENDBRANCH  18  19
ENDBRANCH  12  18
ENDBRANCH   1  15
TORSDOF 4
ENDMDL
MODEL 7
REMARK VINA RESULT:    -5.781      3.482      7.086
REMARK INTER + INTRA:          -7.562
REMARK INTER:                  -7.114
REMARK INTRA:                  -0.449
REMARK UNBOUND:                -0.599
REMARK  Name = 
REMARK  4 active torsions:
REMARK  status: ('A' for Active; 'I' for Inactive)
REMARK    1  A    between atoms: N_1  and  C_2
REMARK    2  A    between atoms: C_2  and  C_3
REMARK    3  A    between atoms: C_6  and  C_7
REMARK    4  A    between atoms: C_7  and  C_8
REMARK                            x       y       z     vdW  Elec       q    Type
REMARK                         _______ _______ _______ _____ _____    ______ ____
ROOT
ATOM      1  C   UNL     1      47.561   5.819  13.134  0.00  0.00    +0.000 C 
ENDROOT
BRANCH   1   2
ATOM      2  C   UNL     1      46.098   5.967  12.860  0.00  0.00    +0.000 A 
ATOM      3  N   UNL     1      45.504   7.169  12.953  0.00  0.00    +0.000 NA
ATOM      4  N   UNL     1      44.238   6.934  12.567  0.00  0.00    +0.000 N 
ATOM      5  C   UNL     1      44.000   5.648  12.173  0.00  0.00    +0.000 A 
ATOM      6  C   UNL     1      42.871   5.030  11.661  0.00  0.00    +0.000 A 
ATOM      7  N   UNL     1      42.937   3.716  11.346  0.00  0.00    +0.000 NA
ATOM      8  C   UNL     1      44.096   3.048  11.549  0.00  0.00    +0.000 A 
ATOM      9  C   UNL     1      45.260   3.612  12.057  0.00  0.00    +0.000 A 
ATOM     10  C   UNL     1      45.198   4.974  12.374  0.00  0.00    +0.000 A 
ATOM     11  H   UNL     1      43.585   7.711  12.573  0.00  0.00    +0.000 HD
ENDBRANCH   1   2
BRANCH   1  15
ATOM     12  C   UNL     1      48.078   4.910  17.347  0.00  0.00    +0.000 A 
ATOM     13  C   UNL     1      47.294   4.085  16.530  0.00  0.00    +0.000 A 
ATOM     14  C   UNL     1      47.119   4.375  15.173  0.00  0.00    +0.000 A 
ATOM     15  C   UNL     1      47.724   5.502  14.601  0.00  0.00    +0.000 A 
ATOM     16  C   UNL     1      48.515   6.325  15.418  0.00  0.00    +0.000 A 
ATOM     17  C   UNL     1      48.691   6.032  16.773  0.00  0.00    +0.000 A 
BRANCH  12  18
ATOM     18  C   UNL     1      48.222   4.627  18.821  0.00  0.00    +0.000 C 
BRANCH  18  19
ATOM     19  N   UNL     1      48.305   3.198  19.098  0.00  0.00    +0.000 NA
ATOM     20  H   UNL     1      47.373   2.792  19.029  0.00  0.00    +0.000 HD
ATOM     21  H   UNL     1      48.600   3.072  20.066  0.00  0.00    +0.000 HD
ENDBRANCH  18  19
ENDBRANCH  12  18
ENDBRANCH   1  15
TORSDOF 4
ENDMDL
MODEL 8
REMARK VINA RESULT:    -5.524      4.637      5.932
REMARK INTER + INTRA:          -7.252
REMARK INTER:                  -6.684
REMARK INTRA:                  -0.569
REMARK UNBOUND:                -0.599
REMARK  Name = 
REMARK  4 active torsions:
REMARK  status: ('A' for Active; 'I' for Inactive)
REMARK    1  A    between atoms: N_1  and  C_2
REMARK    2  A    between atoms: C_2  and  C_3
REMARK    3  A    between atoms: C_6  and  C_7
REMARK    4  A    between atoms: C_7  and  C_8
REMARK                            x       y       z     vdW  Elec       q    Type
REMARK                         _______ _______ _______ _____ _____    ______ ____
ROOT
ATOM      1  C   UNL     1      47.448   3.777  14.554  0.00  0.00    +0.000 C 
ENDROOT
BRANCH   1   2
ATOM      2  C   UNL     1      47.411   4.193  15.991  0.00  0.00    +0.000 A 
ATOM      3  N   UNL     1      46.666   3.514  16.880  0.00  0.00    +0.000 NA
ATOM      4  N   UNL     1      46.938   4.111  18.053  0.00  0.00    +0.000 N 
ATOM      5  C   UNL     1      47.869   5.107  17.973  0.00  0.00    +0.000 A 
ATOM      6  C   UNL     1      48.455   5.906  18.942  0.00  0.00    +0.000 A 
ATOM      7  N   UNL     1      49.374   6.823  18.558  0.00  0.00    +0.000 NA
ATOM      8  C   UNL     1      49.683   6.934  17.245  0.00  0.00    +0.000 A 
ATOM      9  C   UNL     1      49.132   6.162  16.230  0.00  0.00    +0.000 A 
ATOM     10  C   UNL     1      48.188   5.207  16.626  0.00  0.00    +0.000 A 
ATOM     11  H   UNL     1      46.465   3.769  18.883  0.00  0.00    +0.000 HD
ENDBRANCH   1   2
BRANCH   1  15
ATOM     12  C   UNL     1      45.385   6.796  12.217  0.00  0.00    +0.000 A 
ATOM     13  C   UNL     1      46.784   6.800  12.311  0.00  0.00    +0.000 A 
ATOM     14  C   UNL     1      47.454   5.832  13.067  0.00  0.00    +0.000 A 
ATOM     15  C   UNL     1      46.739   4.839  13.750  0.00  0.00    +0.000 A 
ATOM     16  C   UNL     1      45.339   4.833  13.650  0.00  0.00    +0.000 A 
ATOM     17  C   UNL     1      44.671   5.798  12.891  0.00  0.00    +0.000 A 
BRANCH  12  18
ATOM     18  C   UNL     1      44.661   7.871  11.446  0.00  0.00    +0.000 C 
BRANCH  18  19
ATOM     19  N   UNL     1      43.294   7.482  11.117  0.00  0.00    +0.000 NA
ATOM     20  H   UNL     1      42.816   8.276  10.695  0.00  0.00    +0.000 HD
ATOM     21  H   UNL     1      42.797   7.279  11.984  0.00  0.00    +0.000 HD
ENDBRANCH  18  19
ENDBRANCH  12  18
ENDBRANCH   1  15
TORSDOF 4
ENDMDL
MODEL 9
REMARK VINA RESULT:    -5.425      3.054      5.091
REMARK INTER + INTRA:          -7.133
REMARK INTER:                  -6.749
REMARK INTRA:                  -0.384
REMARK UNBOUND:                -0.599
REMARK  Name = 
REMARK  4 active torsions:
REMARK  status: ('A' for Active; 'I' for Inactive)
REMARK    1  A    between atoms: N_1  and  C_2
REMARK    2  A    between atoms: C_2  and  C_3
REMARK    3  A    between atoms: C_6  and  C_7
REMARK    4  A    between atoms: C_7  and  C_8
REMARK                            x       y       z     vdW  Elec       q    Type
REMARK                         _______ _______ _______ _____ _____    ______ ____
ROOT
ATOM      1  C   UNL     1      46.381   7.651  13.075  0.00  0.00    +0.000 C 
ENDROOT
BRANCH   1   2
ATOM      2  C   UNL     1      47.844   7.647  12.765  0.00  0.00    +0.000 A 
ATOM      3  N   UNL     1      48.580   6.538  12.955  0.00  0.00    +0.000 NA
ATOM      4  N   UNL     1      49.799   6.877  12.503  0.00  0.00    +0.000 N 
ATOM      5  C   UNL     1      49.872   8.135  11.975  0.00  0.00    +0.000 A 
ATOM      6  C   UNL     1      50.907   8.824  11.364  0.00  0.00    +0.000 A 
ATOM      7  N   UNL     1      50.678  10.082  10.922  0.00  0.00    +0.000 NA
ATOM      8  C   UNL     1      49.453  10.628  11.099  0.00  0.00    +0.000 A 
ATOM      9  C   UNL     1      48.376   9.988  11.702  0.00  0.00    +0.000 A 
ATOM     10  C   UNL     1      48.608   8.682  12.151  0.00  0.00    +0.000 A 
ATOM     11  H   UNL     1      50.540   6.186  12.563  0.00  0.00    +0.000 HD
ENDBRANCH   1   2
BRANCH   1  15
ATOM     12  C   UNL     1      44.663   4.089  11.288  0.00  0.00    +0.000 A 
ATOM     13  C   UNL     1      45.170   5.118  10.483  0.00  0.00    +0.000 A 
ATOM     14  C   UNL     1      45.720   6.270  11.053  0.00  0.00    +0.000 A 
ATOM     15  C   UNL     1      45.773   6.422  12.445  0.00  0.00    +0.000 A 
ATOM     16  C   UNL     1      45.272   5.389  13.251  0.00  0.00    +0.000 A 
ATOM     17  C   UNL     1      44.726   4.236  12.680  0.00  0.00    +0.000 A 
BRANCH  12  18
ATOM     18  C   UNL     1      44.021   2.871  10.673  0.00  0.00    +0.000 C 
BRANCH  18  19
ATOM     19  N   UNL     1      43.070   2.237  11.579  0.00  0.00    +0.000 NA
ATOM     20  H   UNL     1      42.493   2.956  12.011  0.00  0.00    +0.000 HD
ATOM     21  H   UNL     1      43.589   1.794  12.338  0.00  0.00    +0.000 HD
ENDBRANCH  18  19
ENDBRANCH  12  18
ENDBRANCH   1  15
TORSDOF 4
ENDMDL
