MODEL 1
REMARK VINA RESULT:    -8.185      0.000      0.000
REMARK INTER + INTRA:         -12.301
REMARK INTER:                 -11.056
REMARK INTRA:                  -1.245
REMARK UNBOUND:                -1.245
REMARK  Name = 
REMARK  9 active torsions:
REMARK  status: ('A' for Active; 'I' for Inactive)
REMARK    1  A    between atoms: C_1  and  C_2
REMARK    2  A    between atoms: N_6  and  C_7
REMARK    3  A    between atoms: C_11  and  C_12
REMARK    4  A    between atoms: C_12  and  C_13
REMARK    5  A    between atoms: C_12  and  C_14
REMARK    6  A    between atoms: C_12  and  C_15
REMARK    7  A    between atoms: C_15  and  N_16
REMARK    8  A    between atoms: N_16  and  C_17
REMARK    9  A    between atoms: C_20  and  C_21
REMARK                            x       y       z     vdW  Elec       q    Type
REMARK                         _______ _______ _______ _____ _____    ______ ____
ROOT
ATOM      1  C   UNL     1      44.033   4.622  12.313  0.00  0.00    +0.000 C 
ATOM      2  C   UNL     1      44.940   3.390  12.497  0.00  0.00    +0.000 C 
ATOM      3  C   UNL     1      43.112   4.785  13.543  0.00  0.00    +0.000 C 
ENDROOT
BRANCH   1   8
ATOM      4  C   UNL     1      47.045   7.013  12.652  0.00  0.00    +0.000 A 
ATOM      5  C   UNL     1      46.474   8.160  12.116  0.00  0.00    +0.000 A 
ATOM      6  C   UNL     1      45.174   8.105  11.643  0.00  0.00    +0.000 A 
ATOM      7  N   UNL     1      44.389   7.003  11.684  0.00  0.00    +0.000 NA
ATOM      8  C   UNL     1      44.920   5.880  12.208  0.00  0.00    +0.000 A 
ATOM      9  C   UNL     1      46.242   5.867  12.671  0.00  0.00    +0.000 A 
BRANCH   4  15
ATOM     10  C   UNL     1      48.418   9.181  15.385  0.00  0.00    +0.000 C 
ATOM     11  C   UNL     1      49.329   7.963  15.191  0.00  0.00    +0.000 C 
ATOM     12  C   UNL     1      50.564   8.327  14.355  0.00  0.00    +0.000 C 
ATOM     13  C   UNL     1      50.213   8.546  12.883  0.00  0.00    +0.000 C 
ATOM     14  C   UNL     1      49.476   7.349  12.293  0.00  0.00    +0.000 C 
ATOM     15  N   UNL     1      48.339   6.991  13.139  0.00  0.00    +0.000 N 
ATOM     16  C   UNL     1      48.604   6.760  14.560  0.00  0.00    +0.000 C 
ENDBRANCH   4  15
ENDBRANCH   1   8
BRANCH   1  17
ATOM     17  C   UNL     1      43.167   4.417  11.029  0.00  0.00    +0.000 C 
BRANCH  17  18
ATOM     18  N   UNL     1      43.851   4.836   9.792  0.00  0.00    +0.000 N 
ATOM     19  H   UNL     1      44.181   5.796   9.756  0.00  0.00    +0.000 HD
BRANCH  18  20
ATOM     20  C   UNL     1      44.617   3.935   9.057  0.00  0.00    +0.000 A 
ATOM     21  C   UNL     1      45.637   4.328   8.191  0.00  0.00    +0.000 A 
ATOM     22  C   UNL     1      46.461   3.381   7.581  0.00  0.00    +0.000 A 
ATOM     23  C   UNL     1      46.252   2.042   7.870  0.00  0.00    +0.000 A 
ATOM     24  N   UNL     1      45.260   1.592   8.685  0.00  0.00    +0.000 NA
ATOM     25  C   UNL     1      44.486   2.552   9.254  0.00  0.00    +0.000 A 
BRANCH  23  26
ATOM     26  C   UNL     1      47.184   1.012   7.295  0.00  0.00    +0.000 C 
ATOM     27  N   UNL     1      46.885  -0.290   7.625  0.00  0.00    +0.000 N 
ATOM     28  O   UNL     1      48.140   1.296   6.601  0.00  0.00    +0.000 OA
ATOM     29  H   UNL     1      46.101  -0.485   8.232  0.00  0.00    +0.000 HD
ATOM     30  H   UNL     1      47.495  -1.030   7.310  0.00  0.00    +0.000 HD
ENDBRANCH  23  26
ENDBRANCH  18  20
ENDBRANCH  17  18
ENDBRANCH   1  17
TORSDOF 6
ENDMDL
MODEL 2
REMARK VINA RESULT:    -8.164      1.729      2.505
REMARK INTER + INTRA:         -12.272
REMARK INTER:                 -11.167
REMARK INTRA:                  -1.105
REMARK UNBOUND:                -1.245
REMARK  Name = 
REMARK  9 active torsions:
REMARK  status: ('A' for Active; 'I' for Inactive)
REMARK    1  A    between atoms: C_1  and  C_2
REMARK    2  A    between atoms: N_6  and  C_7
REMARK    3  A    between atoms: C_11  and  C_12
REMARK    4  A    between atoms: C_12  and  C_13
REMARK    5  A    between atoms: C_12  and  C_14
REMARK    6  A    between atoms: C_12  and  C_15
REMARK    7  A    between atoms: C_15  and  N_16
REMARK    8  A    between atoms: N_16  and  C_17
REMARK    9  A    between atoms: C_20  and  C_21
REMARK                            x       y       z     vdW  Elec       q    Type
REMARK                         _______ _______ _______ _____ _____    ______ ____
ROOT
ATOM      1  C   UNL     1      44.006   5.042  12.268  0.00  0.00    +0.000 C 
ATOM      2  C   UNL     1      42.818   5.128  13.246  0.00  0.00    +0.000 C 
ATOM      3  C   UNL     1      43.953   6.224  11.273  0.00  0.00    +0.000 C 
ENDROOT
BRANCH   1   8
ATOM      4  C   UNL     1      47.386   6.355  13.595  0.00  0.00    +0.000 A 
ATOM      5  C   UNL     1      47.717   5.296  14.431  0.00  0.00    +0.000 A 
ATOM      6  C   UNL     1      46.834   4.237  14.556  0.00  0.00    +0.000 A 
ATOM      7  N   UNL     1      45.657   4.138  13.895  0.00  0.00    +0.000 NA
ATOM      8  C   UNL     1      45.319   5.151  13.072  0.00  0.00    +0.000 A 
ATOM      9  C   UNL     1      46.157   6.264  12.931  0.00  0.00    +0.000 A 
BRANCH   4  15
ATOM     10  C   UNL     1      46.432   9.634  12.048  0.00  0.00    +0.000 C 
ATOM     11  C   UNL     1      47.710   9.810  12.876  0.00  0.00    +0.000 C 
ATOM     12  C   UNL     1      48.954   9.808  11.976  0.00  0.00    +0.000 C 
ATOM     13  C   UNL     1      49.264   8.413  11.432  0.00  0.00    +0.000 C 
ATOM     14  C   UNL     1      49.386   7.385  12.551  0.00  0.00    +0.000 C 
ATOM     15  N   UNL     1      48.215   7.448  13.424  0.00  0.00    +0.000 N 
ATOM     16  C   UNL     1      47.864   8.754  13.985  0.00  0.00    +0.000 C 
ENDBRANCH   4  15
ENDBRANCH   1   8
BRANCH   1  17
ATOM     17  C   UNL     1      43.915   3.692  11.489  0.00  0.00    +0.000 C 
BRANCH  17  18
ATOM     18  N   UNL     1      43.831   3.868  10.027  0.00  0.00    +0.000 N 
ATOM     19  H   UNL     1      43.332   4.687   9.694  0.00  0.00    +0.000 HD
BRANCH  18  20
ATOM     20  C   UNL     1      44.864   3.444   9.194  0.00  0.00    +0.000 A 
ATOM     21  C   UNL     1      45.212   2.104   9.030  0.00  0.00    +0.000 A 
ATOM     22  C   UNL     1      46.165   1.724   8.083  0.00  0.00    +0.000 A 
ATOM     23  C   UNL     1      46.744   2.709   7.300  0.00  0.00    +0.000 A 
ATOM     24  N   UNL     1      46.468   4.034   7.429  0.00  0.00    +0.000 NA
ATOM     25  C   UNL     1      45.535   4.353   8.362  0.00  0.00    +0.000 A 
BRANCH  23  26
ATOM     26  C   UNL     1      47.706   2.312   6.214  0.00  0.00    +0.000 C 
ATOM     27  N   UNL     1      47.713   3.140   5.116  0.00  0.00    +0.000 N 
ATOM     28  O   UNL     1      48.419   1.331   6.285  0.00  0.00    +0.000 OA
ATOM     29  H   UNL     1      47.082   3.929   5.079  0.00  0.00    +0.000 HD
ATOM     30  H   UNL     1      48.302   2.909   4.329  0.00  0.00    +0.000 HD
ENDBRANCH  23  26
ENDBRANCH  18  20
ENDBRANCH  17  18
ENDBRANCH   1  17
TORSDOF 6
ENDMDL
MODEL 3
REMARK VINA RESULT:    -7.550      2.632      3.433
REMARK INTER + INTRA:         -11.443
REMARK INTER:                 -10.824
REMARK INTRA:                  -0.619
REMARK UNBOUND:                -1.245
REMARK  Name = 
REMARK  9 active torsions:
REMARK  status: ('A' for Active; 'I' for Inactive)
REMARK    1  A    between atoms: C_1  and  C_2
REMARK    2  A    between atoms: N_6  and  C_7
REMARK    3  A    between atoms: C_11  and  C_12
REMARK    4  A    between atoms: C_12  and  C_13
REMARK    5  A    between atoms: C_12  and  C_14
REMARK    6  A    between atoms: C_12  and  C_15
REMARK    7  A    between atoms: C_15  and  N_16
REMARK    8  A    between atoms: N_16  and  C_17
REMARK    9  A    between atoms: C_20  and  C_21
REMARK                            x       y       z     vdW  Elec       q    Type
REMARK                         _______ _______ _______ _____ _____    ______ ____
ROOT
ATOM      1  C   UNL     1      44.366   4.783  12.354  0.00  0.00    +0.000 C 
ATOM      2  C   UNL     1      43.173   4.857  13.328  0.00  0.00    +0.000 C 
ATOM      3  C   UNL     1      44.179   5.811  11.216  0.00  0.00    +0.000 C 
ENDROOT
BRANCH   1   8
ATOM      4  C   UNL     1      47.153   4.793  15.025  0.00  0.00    +0.000 A 
ATOM      5  C   UNL     1      47.905   5.860  14.551  0.00  0.00    +0.000 A 
ATOM      6  C   UNL     1      47.507   6.498  13.389  0.00  0.00    +0.000 A 
ATOM      7  N   UNL     1      46.404   6.173  12.674  0.00  0.00    +0.000 NA
ATOM      8  C   UNL     1      45.655   5.145  13.121  0.00  0.00    +0.000 A 
ATOM      9  C   UNL     1      46.027   4.440  14.273  0.00  0.00    +0.000 A 
BRANCH   4  15
ATOM     10  C   UNL     1      50.091   5.503  17.245  0.00  0.00    +0.000 C 
ATOM     11  C   UNL     1      49.063   4.661  18.009  0.00  0.00    +0.000 C 
ATOM     12  C   UNL     1      49.470   3.181  18.032  0.00  0.00    +0.000 C 
ATOM     13  C   UNL     1      49.291   2.517  16.666  0.00  0.00    +0.000 C 
ATOM     14  C   UNL     1      47.873   2.695  16.134  0.00  0.00    +0.000 C 
ATOM     15  N   UNL     1      47.492   4.105  16.176  0.00  0.00    +0.000 N 
ATOM     16  C   UNL     1      47.633   4.802  17.456  0.00  0.00    +0.000 C 
ENDBRANCH   4  15
ENDBRANCH   1   8
BRANCH   1  17
ATOM     17  C   UNL     1      44.434   3.341  11.757  0.00  0.00    +0.000 C 
BRANCH  17  18
ATOM     18  N   UNL     1      44.010   3.275  10.346  0.00  0.00    +0.000 N 
ATOM     19  H   UNL     1      43.206   3.836  10.085  0.00  0.00    +0.000 HD
BRANCH  18  20
ATOM     20  C   UNL     1      44.941   3.091   9.326  0.00  0.00    +0.000 A 
ATOM     21  C   UNL     1      45.453   1.842   8.976  0.00  0.00    +0.000 A 
ATOM     22  C   UNL     1      46.280   1.696   7.861  0.00  0.00    +0.000 A 
ATOM     23  C   UNL     1      46.566   2.820   7.102  0.00  0.00    +0.000 A 
ATOM     24  N   UNL     1      46.119   4.068   7.404  0.00  0.00    +0.000 NA
ATOM     25  C   UNL     1      45.319   4.158   8.497  0.00  0.00    +0.000 A 
BRANCH  23  26
ATOM     26  C   UNL     1      47.381   2.670   5.847  0.00  0.00    +0.000 C 
ATOM     27  N   UNL     1      48.710   2.378   6.051  0.00  0.00    +0.000 N 
ATOM     28  O   UNL     1      46.916   2.807   4.734  0.00  0.00    +0.000 OA
ATOM     29  H   UNL     1      49.068   2.304   6.993  0.00  0.00    +0.000 HD
ATOM     30  H   UNL     1      49.326   2.307   5.254  0.00  0.00    +0.000 HD
ENDBRANCH  23  26
ENDBRANCH  18  20
ENDBRANCH  17  18
ENDBRANCH   1  17
TORSDOF 6
ENDMDL
MODEL 4
REMARK VINA RESULT:    -7.168      1.385      2.411
REMARK INTER + INTRA:         -10.926
REMARK INTER:                 -10.197
REMARK INTRA:                  -0.730
REMARK UNBOUND:                -1.245
REMARK  Name = 
REMARK  9 active torsions:
REMARK  status: ('A' for Active; 'I' for Inactive)
REMARK    1  A    between atoms: C_1  and  C_2
REMARK    2  A    between atoms: N_6  and  C_7
REMARK    3  A    between atoms: C_11  and  C_12
REMARK    4  A    between atoms: C_12  and  C_13
REMARK    5  A    between atoms: C_12  and  C_14
REMARK    6  A    between atoms: C_12  and  C_15
REMARK    7  A    between atoms: C_15  and  N_16
REMARK    8  A    between atoms: N_16  and  C_17
REMARK    9  A    between atoms: C_20  and  C_21
REMARK                            x       y       z     vdW  Elec       q    Type
REMARK                         _______ _______ _______ _____ _____    ______ ____
ROOT
ATOM      1  C   UNL     1      45.030   5.291  12.379  0.00  0.00    +0.000 C 
ATOM      2  C   UNL     1      45.131   3.753  12.388  0.00  0.00    +0.000 C 
ATOM      3  C   UNL     1      43.725   5.734  13.080  0.00  0.00    +0.000 C 
ENDROOT
BRANCH   1   8
ATOM      4  C   UNL     1      47.841   7.669  13.539  0.00  0.00    +0.000 A 
ATOM      5  C   UNL     1      48.416   6.866  14.515  0.00  0.00    +0.000 A 
ATOM      6  C   UNL     1      47.860   5.626  14.779  0.00  0.00    +0.000 A 
ATOM      7  N   UNL     1      46.790   5.111  14.128  0.00  0.00    +0.000 NA
ATOM      8  C   UNL     1      46.220   5.871  13.170  0.00  0.00    +0.000 A 
ATOM      9  C   UNL     1      46.719   7.148  12.884  0.00  0.00    +0.000 A 
BRANCH   4  15
ATOM     10  C   UNL     1      50.834   8.386  11.398  0.00  0.00    +0.000 C 
ATOM     11  C   UNL     1      49.967   9.645  11.505  0.00  0.00    +0.000 C 
ATOM     12  C   UNL     1      50.540  10.623  12.540  0.00  0.00    +0.000 C 
ATOM     13  C   UNL     1      50.337  10.124  13.971  0.00  0.00    +0.000 C 
ATOM     14  C   UNL     1      48.873   9.807  14.256  0.00  0.00    +0.000 C 
ATOM     15  N   UNL     1      48.339   8.920  13.225  0.00  0.00    +0.000 N 
ATOM     16  C   UNL     1      48.494   9.340  11.831  0.00  0.00    +0.000 C 
ENDBRANCH   4  15
ENDBRANCH   1   8
BRANCH   1  17
ATOM     17  C   UNL     1      45.026   5.783  10.897  0.00  0.00    +0.000 C 
BRANCH  17  18
ATOM     18  N   UNL     1      44.276   4.894   9.990  0.00  0.00    +0.000 N 
ATOM     19  H   UNL     1      43.378   5.233   9.659  0.00  0.00    +0.000 HD
BRANCH  18  20
ATOM     20  C   UNL     1      44.940   4.055   9.099  0.00  0.00    +0.000 A 
ATOM     21  C   UNL     1      45.827   4.519   8.128  0.00  0.00    +0.000 A 
ATOM     22  C   UNL     1      46.566   3.627   7.349  0.00  0.00    +0.000 A 
ATOM     23  C   UNL     1      46.408   2.269   7.576  0.00  0.00    +0.000 A 
ATOM     24  N   UNL     1      45.542   1.752   8.488  0.00  0.00    +0.000 NA
ATOM     25  C   UNL     1      44.847   2.660   9.220  0.00  0.00    +0.000 A 
BRANCH  23  26
ATOM     26  C   UNL     1      47.260   1.294   6.811  0.00  0.00    +0.000 C 
ATOM     27  N   UNL     1      48.364   1.843   6.201  0.00  0.00    +0.000 N 
ATOM     28  O   UNL     1      46.996   0.111   6.721  0.00  0.00    +0.000 OA
ATOM     29  H   UNL     1      48.532   2.837   6.271  0.00  0.00    +0.000 HD
ATOM     30  H   UNL     1      48.956   1.254   5.633  0.00  0.00    +0.000 HD
ENDBRANCH  23  26
ENDBRANCH  18  20
ENDBRANCH  17  18
ENDBRANCH   1  17
TORSDOF 6
ENDMDL
MODEL 5
REMARK VINA RESULT:    -6.731      3.439      7.572
REMARK INTER + INTRA:         -10.336
REMARK INTER:                  -9.091
REMARK INTRA:                  -1.245
REMARK UNBOUND:                -1.245
REMARK  Name = 
REMARK  9 active torsions:
REMARK  status: ('A' for Active; 'I' for Inactive)
REMARK    1  A    between atoms: C_1  and  C_2
REMARK    2  A    between atoms: N_6  and  C_7
REMARK    3  A    between atoms: C_11  and  C_12
REMARK    4  A    between atoms: C_12  and  C_13
REMARK    5  A    between atoms: C_12  and  C_14
REMARK    6  A    between atoms: C_12  and  C_15
REMARK    7  A    between atoms: C_15  and  N_16
REMARK    8  A    between atoms: N_16  and  C_17
REMARK    9  A    between atoms: C_20  and  C_21
REMARK                            x       y       z     vdW  Elec       q    Type
REMARK                         _______ _______ _______ _____ _____    ______ ____
ROOT
ATOM      1  C   UNL     1      49.333   8.554  12.437  0.00  0.00    +0.000 C 
ATOM      2  C   UNL     1      50.023   7.712  11.345  0.00  0.00    +0.000 C 
ATOM      3  C   UNL     1      49.511  10.058  12.130  0.00  0.00    +0.000 C 
ENDROOT
BRANCH   1   8
ATOM      4  C   UNL     1      45.993   6.670  11.990  0.00  0.00    +0.000 A 
ATOM      5  C   UNL     1      45.118   7.700  12.309  0.00  0.00    +0.000 A 
ATOM      6  C   UNL     1      45.635   8.929  12.684  0.00  0.00    +0.000 A 
ATOM      7  N   UNL     1      46.955   9.220  12.741  0.00  0.00    +0.000 NA
ATOM      8  C   UNL     1      47.823   8.237  12.427  0.00  0.00    +0.000 A 
ATOM      9  C   UNL     1      47.359   6.963  12.074  0.00  0.00    +0.000 A 
BRANCH   4  15
ATOM     10  C   UNL     1      42.418   5.607  11.609  0.00  0.00    +0.000 C 
ATOM     11  C   UNL     1      43.326   4.627  10.858  0.00  0.00    +0.000 C 
ATOM     12  C   UNL     1      43.562   3.353  11.682  0.00  0.00    +0.000 C 
ATOM     13  C   UNL     1      44.487   3.605  12.873  0.00  0.00    +0.000 C 
ATOM     14  C   UNL     1      45.805   4.239  12.440  0.00  0.00    +0.000 C 
ATOM     15  N   UNL     1      45.550   5.416  11.612  0.00  0.00    +0.000 N 
ATOM     16  C   UNL     1      44.676   5.245  10.450  0.00  0.00    +0.000 C 
ENDBRANCH   4  15
ENDBRANCH   1   8
BRANCH   1  17
ATOM     17  C   UNL     1      49.986   8.216  13.815  0.00  0.00    +0.000 C 
BRANCH  17  18
ATOM     18  N   UNL     1      49.015   8.175  14.925  0.00  0.00    +0.000 N 
ATOM     19  H   UNL     1      48.191   8.759  14.831  0.00  0.00    +0.000 HD
BRANCH  18  20
ATOM     20  C   UNL     1      48.815   7.007  15.658  0.00  0.00    +0.000 A 
ATOM     21  C   UNL     1      49.049   6.917  17.029  0.00  0.00    +0.000 A 
ATOM     22  C   UNL     1      48.706   5.764  17.738  0.00  0.00    +0.000 A 
ATOM     23  C   UNL     1      48.112   4.720  17.049  0.00  0.00    +0.000 A 
ATOM     24  N   UNL     1      47.880   4.735  15.709  0.00  0.00    +0.000 NA
ATOM     25  C   UNL     1      48.231   5.878  15.065  0.00  0.00    +0.000 A 
BRANCH  23  26
ATOM     26  C   UNL     1      47.652   3.506  17.808  0.00  0.00    +0.000 C 
ATOM     27  N   UNL     1      48.384   3.217  18.937  0.00  0.00    +0.000 N 
ATOM     28  O   UNL     1      46.716   2.817  17.456  0.00  0.00    +0.000 OA
ATOM     29  H   UNL     1      49.177   3.794  19.181  0.00  0.00    +0.000 HD
ATOM     30  H   UNL     1      48.159   2.391  19.471  0.00  0.00    +0.000 HD
ENDBRANCH  23  26
ENDBRANCH  18  20
ENDBRANCH  17  18
ENDBRANCH   1  17
TORSDOF 6
ENDMDL
MODEL 6
REMARK VINA RESULT:    -6.624      2.875      5.249
REMARK INTER + INTRA:         -10.192
REMARK INTER:                  -8.799
REMARK INTRA:                  -1.393
REMARK UNBOUND:                -1.245
REMARK  Name = 
REMARK  9 active torsions:
REMARK  status: ('A' for Active; 'I' for Inactive)
REMARK    1  A    between atoms: C_1  and  C_2
REMARK    2  A    between atoms: N_6  and  C_7
REMARK    3  A    between atoms: C_11  and  C_12
REMARK    4  A    between atoms: C_12  and  C_13
REMARK    5  A    between atoms: C_12  and  C_14
REMARK    6  A    between atoms: C_12  and  C_15
REMARK    7  A    between atoms: C_15  and  N_16
REMARK    8  A    between atoms: N_16  and  C_17
REMARK    9  A    between atoms: C_20  and  C_21
REMARK                            x       y       z     vdW  Elec       q    Type
REMARK                         _______ _______ _______ _____ _____    ______ ____
ROOT
ATOM      1  C   UNL     1      48.048   8.578  12.486  0.00  0.00    +0.000 C 
ATOM      2  C   UNL     1      48.779   9.829  11.958  0.00  0.00    +0.000 C 
ATOM      3  C   UNL     1      48.588   7.316  11.775  0.00  0.00    +0.000 C 
ENDROOT
BRANCH   1   8
ATOM      4  C   UNL     1      48.816   7.021  15.934  0.00  0.00    +0.000 A 
ATOM      5  C   UNL     1      48.741   8.169  16.713  0.00  0.00    +0.000 A 
ATOM      6  C   UNL     1      48.485   9.382  16.097  0.00  0.00    +0.000 A 
ATOM      7  N   UNL     1      48.273   9.540  14.769  0.00  0.00    +0.000 NA
ATOM      8  C   UNL     1      48.333   8.437  13.995  0.00  0.00    +0.000 A 
ATOM      9  C   UNL     1      48.622   7.187  14.558  0.00  0.00    +0.000 A 
BRANCH   4  15
ATOM     10  C   UNL     1      46.964   5.423  18.775  0.00  0.00    +0.000 C 
ATOM     11  C   UNL     1      47.733   4.349  17.997  0.00  0.00    +0.000 C 
ATOM     12  C   UNL     1      49.041   3.981  18.711  0.00  0.00    +0.000 C 
ATOM     13  C   UNL     1      50.086   5.091  18.599  0.00  0.00    +0.000 C 
ATOM     14  C   UNL     1      50.338   5.485  17.148  0.00  0.00    +0.000 C 
ATOM     15  N   UNL     1      49.073   5.775  16.477  0.00  0.00    +0.000 N 
ATOM     16  C   UNL     1      48.027   4.752  16.540  0.00  0.00    +0.000 C 
ENDBRANCH   4  15
ENDBRANCH   1   8
BRANCH   1  17
ATOM     17  C   UNL     1      46.521   8.734  12.198  0.00  0.00    +0.000 C 
BRANCH  17  18
ATOM     18  N   UNL     1      45.674   7.927  13.096  0.00  0.00    +0.000 N 
ATOM     19  H   UNL     1      45.123   8.435  13.780  0.00  0.00    +0.000 HD
BRANCH  18  20
ATOM     20  C   UNL     1      45.098   6.737  12.660  0.00  0.00    +0.000 A 
ATOM     21  C   UNL     1      44.304   6.646  11.517  0.00  0.00    +0.000 A 
ATOM     22  C   UNL     1      43.861   5.407  11.051  0.00  0.00    +0.000 A 
ATOM     23  C   UNL     1      44.244   4.269  11.742  0.00  0.00    +0.000 A 
ATOM     24  N   UNL     1      44.994   4.291  12.876  0.00  0.00    +0.000 NA
ATOM     25  C   UNL     1      45.400   5.519  13.288  0.00  0.00    +0.000 A 
BRANCH  23  26
ATOM     26  C   UNL     1      43.853   2.919  11.207  0.00  0.00    +0.000 C 
ATOM     27  N   UNL     1      44.616   2.470  10.153  0.00  0.00    +0.000 N 
ATOM     28  O   UNL     1      42.928   2.270  11.653  0.00  0.00    +0.000 OA
ATOM     29  H   UNL     1      45.356   3.053   9.788  0.00  0.00    +0.000 HD
ATOM     30  H   UNL     1      44.382   1.591   9.715  0.00  0.00    +0.000 HD
ENDBRANCH  23  26
ENDBRANCH  18  20
ENDBRANCH  17  18
ENDBRANCH   1  17
TORSDOF 6
ENDMDL
MODEL 7
REMARK VINA RESULT:    -6.564      3.387      7.277
REMARK INTER + INTRA:         -10.110
REMARK INTER:                  -8.802
REMARK INTRA:                  -1.308
REMARK UNBOUND:                -1.245
REMARK  Name = 
REMARK  9 active torsions:
REMARK  status: ('A' for Active; 'I' for Inactive)
REMARK    1  A    between atoms: C_1  and  C_2
REMARK    2  A    between atoms: N_6  and  C_7
REMARK    3  A    between atoms: C_11  and  C_12
REMARK    4  A    between atoms: C_12  and  C_13
REMARK    5  A    between atoms: C_12  and  C_14
REMARK    6  A    between atoms: C_12  and  C_15
REMARK    7  A    between atoms: C_15  and  N_16
REMARK    8  A    between atoms: N_16  and  C_17
REMARK    9  A    between atoms: C_20  and  C_21
REMARK                            x       y       z     vdW  Elec       q    Type
REMARK                         _______ _______ _______ _____ _____    ______ ____
ROOT
ATOM      1  C   UNL     1      48.833   7.779  13.345  0.00  0.00    +0.000 C 
ATOM      2  C   UNL     1      50.206   7.819  14.043  0.00  0.00    +0.000 C 
ATOM      3  C   UNL     1      49.025   7.648  11.817  0.00  0.00    +0.000 C 
ENDROOT
BRANCH   1   8
ATOM      4  C   UNL     1      46.214   4.952  13.577  0.00  0.00    +0.000 A 
ATOM      5  C   UNL     1      46.617   4.380  14.776  0.00  0.00    +0.000 A 
ATOM      6  C   UNL     1      47.721   4.899  15.431  0.00  0.00    +0.000 A 
ATOM      7  N   UNL     1      48.441   5.961  14.997  0.00  0.00    +0.000 NA
ATOM      8  C   UNL     1      48.062   6.537  13.839  0.00  0.00    +0.000 A 
ATOM      9  C   UNL     1      46.973   6.033  13.115  0.00  0.00    +0.000 A 
BRANCH   4  15
ATOM     10  C   UNL     1      45.646   5.344   9.892  0.00  0.00    +0.000 C 
ATOM     11  C   UNL     1      44.759   4.215  10.430  0.00  0.00    +0.000 C 
ATOM     12  C   UNL     1      43.320   4.703  10.650  0.00  0.00    +0.000 C 
ATOM     13  C   UNL     1      43.209   5.632  11.859  0.00  0.00    +0.000 C 
ATOM     14  C   UNL     1      43.777   4.988  13.119  0.00  0.00    +0.000 C 
ATOM     15  N   UNL     1      45.125   4.484  12.865  0.00  0.00    +0.000 N 
ATOM     16  C   UNL     1      45.302   3.583  11.724  0.00  0.00    +0.000 C 
ENDBRANCH   4  15
ENDBRANCH   1   8
BRANCH   1  17
ATOM     17  C   UNL     1      48.068   9.102  13.669  0.00  0.00    +0.000 C 
BRANCH  17  18
ATOM     18  N   UNL     1      47.737   9.892  12.469  0.00  0.00    +0.000 N 
ATOM     19  H   UNL     1      48.414   9.878  11.713  0.00  0.00    +0.000 HD
BRANCH  18  20
ATOM     20  C   UNL     1      46.416  10.051  12.058  0.00  0.00    +0.000 A 
ATOM     21  C   UNL     1      45.906  11.256  11.577  0.00  0.00    +0.000 A 
ATOM     22  C   UNL     1      44.613  11.327  11.053  0.00  0.00    +0.000 A 
ATOM     23  C   UNL     1      43.857  10.167  11.009  0.00  0.00    +0.000 A 
ATOM     24  N   UNL     1      44.286   8.968  11.485  0.00  0.00    +0.000 NA
ATOM     25  C   UNL     1      45.549   8.951  11.983  0.00  0.00    +0.000 A 
BRANCH  23  26
ATOM     26  C   UNL     1      42.497  10.201  10.368  0.00  0.00    +0.000 C 
ATOM     27  N   UNL     1      41.529   9.476  11.023  0.00  0.00    +0.000 N 
ATOM     28  O   UNL     1      42.262  10.809   9.343  0.00  0.00    +0.000 OA
ATOM     29  H   UNL     1      41.770   8.956  11.855  0.00  0.00    +0.000 HD
ATOM     30  H   UNL     1      40.603   9.418  10.624  0.00  0.00    +0.000 HD
ENDBRANCH  23  26
ENDBRANCH  18  20
ENDBRANCH  17  18
ENDBRANCH   1  17
TORSDOF 6
ENDMDL
MODEL 8
REMARK VINA RESULT:    -6.492      2.983      5.967
REMARK INTER + INTRA:         -10.014
REMARK INTER:                  -8.497
REMARK INTRA:                  -1.517
REMARK UNBOUND:                -1.245
REMARK  Name = 
REMARK  9 active torsions:
REMARK  status: ('A' for Active; 'I' for Inactive)
REMARK    1  A    between atoms: C_1  and  C_2
REMARK    2  A    between atoms: N_6  and  C_7
REMARK    3  A    between atoms: C_11  and  C_12
REMARK    4  A    between atoms: C_12  and  C_13
REMARK    5  A    between atoms: C_12  and  C_14
REMARK    6  A    between atoms: C_12  and  C_15
REMARK    7  A    between atoms: C_15  and  N_16
REMARK    8  A    between atoms: N_16  and  C_17
REMARK    9  A    between atoms: C_20  and  C_21
REMARK                            x       y       z     vdW  Elec       q    Type
REMARK                         _______ _______ _______ _____ _____    ______ ____
ROOT
ATOM      1  C   UNL     1      49.502   8.598  13.156  0.00  0.00    +0.000 C 
ATOM      2  C   UNL     1      48.387   9.531  13.666  0.00  0.00    +0.000 C 
ATOM      3  C   UNL     1      50.644   9.436  12.537  0.00  0.00    +0.000 C 
ENDROOT
BRANCH   1   8
ATOM      4  C   UNL     1      49.750   6.272  16.227  0.00  0.00    +0.000 A 
ATOM      5  C   UNL     1      51.082   6.487  16.556  0.00  0.00    +0.000 A 
ATOM      6  C   UNL     1      51.841   7.333  15.765  0.00  0.00    +0.000 A 
ATOM      7  N   UNL     1      51.371   8.001  14.686  0.00  0.00    +0.000 NA
ATOM      8  C   UNL     1      50.078   7.813  14.352  0.00  0.00    +0.000 A 
ATOM      9  C   UNL     1      49.270   6.942  15.096  0.00  0.00    +0.000 A 
BRANCH   4  15
ATOM     10  C   UNL     1      50.577   2.793  17.353  0.00  0.00    +0.000 C 
ATOM     11  C   UNL     1      49.419   3.342  18.194  0.00  0.00    +0.000 C 
ATOM     12  C   UNL     1      48.071   2.803  17.695  0.00  0.00    +0.000 C 
ATOM     13  C   UNL     1      47.661   3.433  16.363  0.00  0.00    +0.000 C 
ATOM     14  C   UNL     1      47.659   4.956  16.436  0.00  0.00    +0.000 C 
ATOM     15  N   UNL     1      48.932   5.438  16.967  0.00  0.00    +0.000 N 
ATOM     16  C   UNL     1      49.383   4.880  18.243  0.00  0.00    +0.000 C 
ENDBRANCH   4  15
ENDBRANCH   1   8
BRANCH   1  17
ATOM     17  C   UNL     1      48.901   7.645  12.074  0.00  0.00    +0.000 C 
BRANCH  17  18
ATOM     18  N   UNL     1      47.427   7.666  12.035  0.00  0.00    +0.000 N 
ATOM     19  H   UNL     1      46.994   8.471  11.592  0.00  0.00    +0.000 HD
BRANCH  18  20
ATOM     20  C   UNL     1      46.696   6.485  11.926  0.00  0.00    +0.000 A 
ATOM     21  C   UNL     1      46.488   5.615  12.995  0.00  0.00    +0.000 A 
ATOM     22  C   UNL     1      45.639   4.515  12.866  0.00  0.00    +0.000 A 
ATOM     23  C   UNL     1      44.995   4.319  11.655  0.00  0.00    +0.000 A 
ATOM     24  N   UNL     1      45.175   5.115  10.568  0.00  0.00    +0.000 NA
ATOM     25  C   UNL     1      46.010   6.171  10.744  0.00  0.00    +0.000 A 
BRANCH  23  26
ATOM     26  C   UNL     1      44.007   3.192  11.523  0.00  0.00    +0.000 C 
ATOM     27  N   UNL     1      43.814   2.454  12.667  0.00  0.00    +0.000 N 
ATOM     28  O   UNL     1      43.428   2.937  10.486  0.00  0.00    +0.000 OA
ATOM     29  H   UNL     1      44.339   2.676  13.501  0.00  0.00    +0.000 HD
ATOM     30  H   UNL     1      43.198   1.654  12.639  0.00  0.00    +0.000 HD
ENDBRANCH  23  26
ENDBRANCH  18  20
ENDBRANCH  17  18
ENDBRANCH   1  17
TORSDOF 6
ENDMDL
MODEL 9
REMARK VINA RESULT:    -6.021      3.112      6.280
REMARK INTER + INTRA:          -9.377
REMARK INTER:                  -7.731
REMARK INTRA:                  -1.646
REMARK UNBOUND:                -1.245
REMARK  Name = 
REMARK  9 active torsions:
REMARK  status: ('A' for Active; 'I' for Inactive)
REMARK    1  A    between atoms: C_1  and  C_2
REMARK    2  A    between atoms: N_6  and  C_7
REMARK    3  A    between atoms: C_11  and  C_12
REMARK    4  A    between atoms: C_12  and  C_13
REMARK    5  A    between atoms: C_12  and  C_14
REMARK    6  A    between atoms: C_12  and  C_15
REMARK    7  A    between atoms: C_15  and  N_16
REMARK    8  A    between atoms: N_16  and  C_17
REMARK    9  A    between atoms: C_20  and  C_21
REMARK                            x       y       z     vdW  Elec       q    Type
REMARK                         _______ _______ _______ _____ _____    ______ ____
ROOT
ATOM      1  C   UNL     1      49.315   9.026  14.654  0.00  0.00    +0.000 C 
ATOM      2  C   UNL     1      50.236  10.256  14.785  0.00  0.00    +0.000 C 
ATOM      3  C   UNL     1      50.108   7.838  14.064  0.00  0.00    +0.000 C 
ENDROOT
BRANCH   1   8
ATOM      4  C   UNL     1      48.383   6.890  17.732  0.00  0.00    +0.000 A 
ATOM      5  C   UNL     1      47.845   7.887  18.534  0.00  0.00    +0.000 A 
ATOM      6  C   UNL     1      47.839   9.192  18.071  0.00  0.00    +0.000 A 
ATOM      7  N   UNL     1      48.304   9.578  16.859  0.00  0.00    +0.000 NA
ATOM      8  C   UNL     1      48.823   8.624  16.060  0.00  0.00    +0.000 A 
ATOM      9  C   UNL     1      48.887   7.292  16.489  0.00  0.00    +0.000 A 
BRANCH   4  15
ATOM     10  C   UNL     1      51.309   4.573  17.379  0.00  0.00    +0.000 C 
ATOM     11  C   UNL     1      50.336   4.013  18.423  0.00  0.00    +0.000 C 
ATOM     12  C   UNL     1      49.456   2.909  17.821  0.00  0.00    +0.000 C 
ATOM     13  C   UNL     1      48.410   3.472  16.859  0.00  0.00    +0.000 C 
ATOM     14  C   UNL     1      47.565   4.558  17.516  0.00  0.00    +0.000 C 
ATOM     15  N   UNL     1      48.428   5.566  18.129  0.00  0.00    +0.000 N 
ATOM     16  C   UNL     1      49.450   5.097  19.066  0.00  0.00    +0.000 C 
ENDBRANCH   4  15
ENDBRANCH   1   8
BRANCH   1  17
ATOM     17  C   UNL     1      48.128   9.390  13.707  0.00  0.00    +0.000 C 
BRANCH  17  18
ATOM     18  N   UNL     1      46.888   8.655  14.019  0.00  0.00    +0.000 N 
ATOM     19  H   UNL     1      46.139   9.187  14.452  0.00  0.00    +0.000 HD
BRANCH  18  20
ATOM     20  C   UNL     1      46.458   7.602  13.215  0.00  0.00    +0.000 A 
ATOM     21  C   UNL     1      46.857   6.280  13.410  0.00  0.00    +0.000 A 
ATOM     22  C   UNL     1      46.293   5.245  12.661  0.00  0.00    +0.000 A 
ATOM     23  C   UNL     1      45.316   5.563  11.731  0.00  0.00    +0.000 A 
ATOM     24  N   UNL     1      44.902   6.833  11.475  0.00  0.00    +0.000 NA
ATOM     25  C   UNL     1      45.480   7.803  12.230  0.00  0.00    +0.000 A 
BRANCH  23  26
ATOM     26  C   UNL     1      44.632   4.456  10.977  0.00  0.00    +0.000 C 
ATOM     27  N   UNL     1      43.784   4.873   9.978  0.00  0.00    +0.000 N 
ATOM     28  O   UNL     1      44.799   3.280  11.230  0.00  0.00    +0.000 OA
ATOM     29  H   UNL     1      43.645   5.861   9.818  0.00  0.00    +0.000 HD
ATOM     30  H   UNL     1      43.257   4.184   9.460  0.00  0.00    +0.000 HD
ENDBRANCH  23  26
ENDBRANCH  18  20
ENDBRANCH  17  18
ENDBRANCH   1  17
TORSDOF 6
ENDMDL
