MODEL 1
REMARK VINA RESULT:    -7.560      0.000      0.000
REMARK INTER + INTRA:         -11.089
REMARK INTER:                 -10.432
REMARK INTRA:                  -0.657
REMARK UNBOUND:                -0.657
REMARK  Name = 
REMARK  10 active torsions:
REMARK  status: ('A' for Active; 'I' for Inactive)
REMARK    1  A    between atoms: C_1  and  C_2
REMARK    2  A    between atoms: C_2  and  C_3
REMARK    3  A    between atoms: C_2  and  C_4
REMARK    4  A    between atoms: C_2  and  C_5
REMARK    5  A    between atoms: N_7  and  C_8
REMARK    6  A    between atoms: C_8  and  C_9
REMARK    7  A    between atoms: C_12  and  C_13
REMARK    8  A    between atoms: C_13  and  C_14
REMARK    9  A    between atoms: C_14  and  N_15
REMARK   10  A    between atoms: C_22  and  C_23
REMARK                            x       y       z     vdW  Elec       q    Type
REMARK                         _______ _______ _______ _____ _____    ______ ____
ROOT
ATOM      1  C   UNL     1      46.554   7.334  12.400  0.00  0.00    +0.000 A 
ATOM      2  C   UNL     1      45.496   7.002  11.560  0.00  0.00    +0.000 A 
ATOM      3  N   UNL     1      45.148   5.700  11.759  0.00  0.00    +0.000 N 
ATOM      4  C   UNL     1      45.950   5.151  12.719  0.00  0.00    +0.000 A 
ATOM      5  N   UNL     1      45.850   3.859  13.099  0.00  0.00    +0.000 NA
ATOM      6  C   UNL     1      46.679   3.512  14.092  0.00  0.00    +0.000 A 
ATOM      7  C   UNL     1      47.577   4.360  14.699  0.00  0.00    +0.000 A 
ATOM      8  C   UNL     1      47.673   5.696  14.268  0.00  0.00    +0.000 A 
ATOM      9  C   UNL     1      46.825   6.139  13.205  0.00  0.00    +0.000 A 
ENDROOT
BRANCH   8  10
ATOM     10  C   UNL     1      48.614   6.561  15.024  0.00  0.00    +0.000 C 
ATOM     11  N   UNL     1      48.200   7.001  16.261  0.00  0.00    +0.000 N 
ATOM     12  O   UNL     1      49.699   6.916  14.596  0.00  0.00    +0.000 OA
ATOM     13  H   UNL     1      47.345   6.718  16.714  0.00  0.00    +0.000 HD
ATOM     14  H   UNL     1      48.849   7.574  16.783  0.00  0.00    +0.000 HD
ENDBRANCH   8  10
BRANCH   1  16
ATOM     15  C   UNL     1      48.606   8.661  11.877  0.00  0.00    +0.000 C 
ATOM     16  C   UNL     1      47.169   8.743  12.438  0.00  0.00    +0.000 C 
ATOM     17  C   UNL     1      47.311   9.289  13.891  0.00  0.00    +0.000 C 
ATOM     18  C   UNL     1      46.293   9.798  11.734  0.00  0.00    +0.000 C 
ENDBRANCH   1  16
BRANCH   3  19
ATOM     19  C   UNL     1      44.161   4.972  10.972  0.00  0.00    +0.000 C 
BRANCH  19  20
ATOM     20  C   UNL     1      44.766   4.141   9.875  0.00  0.00    +0.000 A 
ATOM     21  C   UNL     1      45.469   4.712   8.812  0.00  0.00    +0.000 A 
ATOM     22  C   UNL     1      46.108   3.889   7.881  0.00  0.00    +0.000 A 
ATOM     23  C   UNL     1      46.024   2.512   8.026  0.00  0.00    +0.000 A 
ATOM     24  N   UNL     1      45.316   1.935   9.026  0.00  0.00    +0.000 NA
ATOM     25  C   UNL     1      44.700   2.754   9.916  0.00  0.00    +0.000 A 
BRANCH  23  26
ATOM     26  C   UNL     1      46.789   1.591   7.100  0.00  0.00    +0.000 C 
BRANCH  26  27
ATOM     27  C   UNL     1      48.127   2.189   6.665  0.00  0.00    +0.000 C 
BRANCH  27  28
ATOM     28  N   UNL     1      48.436   1.847   5.273  0.00  0.00    +0.000 NA
ATOM     29  H   UNL     1      48.842   2.653   4.801  0.00  0.00    +0.000 HD
ATOM     30  H   UNL     1      47.566   1.639   4.784  0.00  0.00    +0.000 HD
ENDBRANCH  27  28
ENDBRANCH  26  27
ENDBRANCH  23  26
ENDBRANCH  19  20
ENDBRANCH   3  19
TORSDOF 7
ENDMDL
MODEL 2
REMARK VINA RESULT:    -6.220      2.258      3.326
REMARK INTER + INTRA:          -9.240
REMARK INTER:                  -8.882
REMARK INTRA:                  -0.358
REMARK UNBOUND:                -0.657
REMARK  Name = 
REMARK  10 active torsions:
REMARK  status: ('A' for Active; 'I' for Inactive)
REMARK    1  A    between atoms: C_1  and  C_2
REMARK    2  A    between atoms: C_2  and  C_3
REMARK    3  A    between atoms: C_2  and  C_4
REMARK    4  A    between atoms: C_2  and  C_5
REMARK    5  A    between atoms: N_7  and  C_8
REMARK    6  A    between atoms: C_8  and  C_9
REMARK    7  A    between atoms: C_12  and  C_13
REMARK    8  A    between atoms: C_13  and  C_14
REMARK    9  A    between atoms: C_14  and  N_15
REMARK   10  A    between atoms: C_22  and  C_23
REMARK                            x       y       z     vdW  Elec       q    Type
REMARK                         _______ _______ _______ _____ _____    ______ ____
ROOT
ATOM      1  C   UNL     1      44.652   8.796  11.103  0.00  0.00    +0.000 A 
ATOM      2  C   UNL     1      43.938   7.603  11.068  0.00  0.00    +0.000 A 
ATOM      3  N   UNL     1      44.742   6.579  11.470  0.00  0.00    +0.000 N 
ATOM      4  C   UNL     1      45.983   7.061  11.777  0.00  0.00    +0.000 A 
ATOM      5  N   UNL     1      46.995   6.263  12.176  0.00  0.00    +0.000 NA
ATOM      6  C   UNL     1      48.122   6.916  12.488  0.00  0.00    +0.000 A 
ATOM      7  C   UNL     1      48.283   8.282  12.419  0.00  0.00    +0.000 A 
ATOM      8  C   UNL     1      47.216   9.086  11.979  0.00  0.00    +0.000 A 
ATOM      9  C   UNL     1      45.983   8.459  11.619  0.00  0.00    +0.000 A 
ENDROOT
BRANCH   8  10
ATOM     10  C   UNL     1      47.451  10.552  12.002  0.00  0.00    +0.000 C 
ATOM     11  N   UNL     1      47.495  11.158  13.238  0.00  0.00    +0.000 N 
ATOM     12  O   UNL     1      47.573  11.234  10.998  0.00  0.00    +0.000 OA
ATOM     13  H   UNL     1      47.454  10.668  14.118  0.00  0.00    +0.000 HD
ATOM     14  H   UNL     1      47.674  12.153  13.253  0.00  0.00    +0.000 HD
ENDBRANCH   8  10
BRANCH   1  16
ATOM     15  C   UNL     1      44.157  11.098  11.938  0.00  0.00    +0.000 C 
ATOM     16  C   UNL     1      44.023  10.148  10.728  0.00  0.00    +0.000 C 
ATOM     17  C   UNL     1      42.494  10.032  10.447  0.00  0.00    +0.000 C 
ATOM     18  C   UNL     1      44.593  10.731   9.420  0.00  0.00    +0.000 C 
ENDBRANCH   1  16
BRANCH   3  19
ATOM     19  C   UNL     1      44.372   5.169  11.445  0.00  0.00    +0.000 C 
BRANCH  19  20
ATOM     20  C   UNL     1      44.979   4.411  10.299  0.00  0.00    +0.000 A 
ATOM     21  C   UNL     1      44.884   3.022  10.193  0.00  0.00    +0.000 A 
ATOM     22  C   UNL     1      45.368   2.378   9.051  0.00  0.00    +0.000 A 
ATOM     23  C   UNL     1      45.944   3.135   8.042  0.00  0.00    +0.000 A 
ATOM     24  N   UNL     1      46.084   4.479   8.139  0.00  0.00    +0.000 NA
ATOM     25  C   UNL     1      45.611   5.082   9.259  0.00  0.00    +0.000 A 
BRANCH  23  26
ATOM     26  C   UNL     1      46.383   2.486   6.747  0.00  0.00    +0.000 C 
BRANCH  26  27
ATOM     27  C   UNL     1      47.848   2.052   6.785  0.00  0.00    +0.000 C 
BRANCH  27  28
ATOM     28  N   UNL     1      48.402   1.926   5.432  0.00  0.00    +0.000 NA
ATOM     29  H   UNL     1      48.197   1.000   5.060  0.00  0.00    +0.000 HD
ATOM     30  H   UNL     1      49.418   1.995   5.485  0.00  0.00    +0.000 HD
ENDBRANCH  27  28
ENDBRANCH  26  27
ENDBRANCH  23  26
ENDBRANCH  19  20
ENDBRANCH   3  19
TORSDOF 7
ENDMDL
MODEL 3
REMARK VINA RESULT:    -6.115      3.804      6.061
REMARK INTER + INTRA:          -9.096
REMARK INTER:                  -7.934
REMARK INTRA:                  -1.161
REMARK UNBOUND:                -0.657
REMARK  Name = 
REMARK  10 active torsions:
REMARK  status: ('A' for Active; 'I' for Inactive)
REMARK    1  A    between atoms: C_1  and  C_2
REMARK    2  A    between atoms: C_2  and  C_3
REMARK    3  A    between atoms: C_2  and  C_4
REMARK    4  A    between atoms: C_2  and  C_5
REMARK    5  A    between atoms: N_7  and  C_8
REMARK    6  A    between atoms: C_8  and  C_9
REMARK    7  A    between atoms: C_12  and  C_13
REMARK    8  A    between atoms: C_13  and  C_14
REMARK    9  A    between atoms: C_14  and  N_15
REMARK   10  A    between atoms: C_22  and  C_23
REMARK                            x       y       z     vdW  Elec       q    Type
REMARK                         _______ _______ _______ _____ _____    ______ ____
ROOT
ATOM      1  C   UNL     1      48.792   7.406  17.822  0.00  0.00    +0.000 A 
ATOM      2  C   UNL     1      48.771   7.715  16.466  0.00  0.00    +0.000 A 
ATOM      3  N   UNL     1      48.637   6.569  15.740  0.00  0.00    +0.000 N 
ATOM      4  C   UNL     1      48.566   5.496  16.582  0.00  0.00    +0.000 A 
ATOM      5  N   UNL     1      48.461   4.226  16.136  0.00  0.00    +0.000 NA
ATOM      6  C   UNL     1      48.346   3.310  17.106  0.00  0.00    +0.000 A 
ATOM      7  C   UNL     1      48.336   3.589  18.453  0.00  0.00    +0.000 A 
ATOM      8  C   UNL     1      48.467   4.920  18.889  0.00  0.00    +0.000 A 
ATOM      9  C   UNL     1      48.604   5.954  17.912  0.00  0.00    +0.000 A 
ENDROOT
BRANCH   8  10
ATOM     10  C   UNL     1      48.374   5.139  20.355  0.00  0.00    +0.000 C 
ATOM     11  N   UNL     1      47.149   5.521  20.853  0.00  0.00    +0.000 N 
ATOM     12  O   UNL     1      49.321   5.030  21.117  0.00  0.00    +0.000 OA
ATOM     13  H   UNL     1      46.304   5.586  20.306  0.00  0.00    +0.000 HD
ATOM     14  H   UNL     1      47.082   5.652  21.853  0.00  0.00    +0.000 HD
ENDBRANCH   8  10
BRANCH   1  16
ATOM     15  C   UNL     1      47.522   8.667  19.565  0.00  0.00    +0.000 C 
ATOM     16  C   UNL     1      48.909   8.482  18.914  0.00  0.00    +0.000 C 
ATOM     17  C   UNL     1      49.294   9.877  18.332  0.00  0.00    +0.000 C 
ATOM     18  C   UNL     1      50.032   8.186  19.927  0.00  0.00    +0.000 C 
ENDBRANCH   1  16
BRANCH   3  19
ATOM     19  C   UNL     1      48.698   6.493  14.286  0.00  0.00    +0.000 C 
BRANCH  19  20
ATOM     20  C   UNL     1      47.345   6.504  13.630  0.00  0.00    +0.000 A 
ATOM     21  C   UNL     1      46.736   7.685  13.203  0.00  0.00    +0.000 A 
ATOM     22  C   UNL     1      45.532   7.630  12.497  0.00  0.00    +0.000 A 
ATOM     23  C   UNL     1      44.956   6.395  12.240  0.00  0.00    +0.000 A 
ATOM     24  N   UNL     1      45.507   5.237  12.678  0.00  0.00    +0.000 NA
ATOM     25  C   UNL     1      46.675   5.316  13.365  0.00  0.00    +0.000 A 
BRANCH  23  26
ATOM     26  C   UNL     1      43.708   6.287  11.389  0.00  0.00    +0.000 C 
BRANCH  26  27
ATOM     27  C   UNL     1      42.790   5.155  11.850  0.00  0.00    +0.000 C 
BRANCH  27  28
ATOM     28  N   UNL     1      42.650   5.144  13.310  0.00  0.00    +0.000 NA
ATOM     29  H   UNL     1      41.665   5.107  13.562  0.00  0.00    +0.000 HD
ATOM     30  H   UNL     1      43.008   6.023  13.682  0.00  0.00    +0.000 HD
ENDBRANCH  27  28
ENDBRANCH  26  27
ENDBRANCH  23  26
ENDBRANCH  19  20
ENDBRANCH   3  19
TORSDOF 7
ENDMDL
MODEL 4
REMARK VINA RESULT:    -6.085      2.053      3.693
REMARK INTER + INTRA:          -9.054
REMARK INTER:                  -7.897
REMARK INTRA:                  -1.157
REMARK UNBOUND:                -0.657
REMARK  Name = 
REMARK  10 active torsions:
REMARK  status: ('A' for Active; 'I' for Inactive)
REMARK    1  A    between atoms: C_1  and  C_2
REMARK    2  A    between atoms: C_2  and  C_3
REMARK    3  A    between atoms: C_2  and  C_4
REMARK    4  A    between atoms: C_2  and  C_5
REMARK    5  A    between atoms: N_7  and  C_8
REMARK    6  A    between atoms: C_8  and  C_9
REMARK    7  A    between atoms: C_12  and  C_13
REMARK    8  A    between atoms: C_13  and  C_14
REMARK    9  A    between atoms: C_14  and  N_15
REMARK   10  A    between atoms: C_22  and  C_23
REMARK                            x       y       z     vdW  Elec       q    Type
REMARK                         _______ _______ _______ _____ _____    ______ ____
ROOT
ATOM      1  C   UNL     1      47.379   7.610  13.574  0.00  0.00    +0.000 A 
ATOM      2  C   UNL     1      46.549   6.533  13.284  0.00  0.00    +0.000 A 
ATOM      3  N   UNL     1      45.547   6.941  12.455  0.00  0.00    +0.000 N 
ATOM      4  C   UNL     1      45.689   8.271  12.181  0.00  0.00    +0.000 A 
ATOM      5  N   UNL     1      44.817   8.952  11.407  0.00  0.00    +0.000 NA
ATOM      6  C   UNL     1      45.147  10.233  11.202  0.00  0.00    +0.000 A 
ATOM      7  C   UNL     1      46.264  10.849  11.719  0.00  0.00    +0.000 A 
ATOM      8  C   UNL     1      47.144  10.120  12.539  0.00  0.00    +0.000 A 
ATOM      9  C   UNL     1      46.853   8.746  12.811  0.00  0.00    +0.000 A 
ENDROOT
BRANCH   8  10
ATOM     10  C   UNL     1      48.360  10.839  12.995  0.00  0.00    +0.000 C 
ATOM     11  N   UNL     1      48.275  11.516  14.191  0.00  0.00    +0.000 N 
ATOM     12  O   UNL     1      49.399  10.883  12.357  0.00  0.00    +0.000 OA
ATOM     13  H   UNL     1      47.476  11.492  14.807  0.00  0.00    +0.000 HD
ATOM     14  H   UNL     1      49.109  11.989  14.510  0.00  0.00    +0.000 HD
ENDBRANCH   8  10
BRANCH   1  16
ATOM     15  C   UNL     1      49.877   7.561  13.572  0.00  0.00    +0.000 C 
ATOM     16  C   UNL     1      48.623   7.478  14.469  0.00  0.00    +0.000 C 
ATOM     17  C   UNL     1      48.699   6.092  15.177  0.00  0.00    +0.000 C 
ATOM     18  C   UNL     1      48.631   8.486  15.634  0.00  0.00    +0.000 C 
ENDBRANCH   1  16
BRANCH   3  19
ATOM     19  C   UNL     1      44.423   6.112  12.037  0.00  0.00    +0.000 C 
BRANCH  19  20
ATOM     20  C   UNL     1      44.769   5.141  10.944  0.00  0.00    +0.000 A 
ATOM     21  C   UNL     1      44.307   3.823  10.946  0.00  0.00    +0.000 A 
ATOM     22  C   UNL     1      44.564   2.995   9.851  0.00  0.00    +0.000 A 
ATOM     23  C   UNL     1      45.285   3.499   8.778  0.00  0.00    +0.000 A 
ATOM     24  N   UNL     1      45.777   4.762   8.769  0.00  0.00    +0.000 NA
ATOM     25  C   UNL     1      45.519   5.545   9.846  0.00  0.00    +0.000 A 
BRANCH  23  26
ATOM     26  C   UNL     1      45.492   2.668   7.530  0.00  0.00    +0.000 C 
BRANCH  26  27
ATOM     27  C   UNL     1      46.870   2.895   6.907  0.00  0.00    +0.000 C 
BRANCH  27  28
ATOM     28  N   UNL     1      46.842   3.995   5.936  0.00  0.00    +0.000 NA
ATOM     29  H   UNL     1      46.036   3.892   5.321  0.00  0.00    +0.000 HD
ATOM     30  H   UNL     1      47.666   3.929   5.341  0.00  0.00    +0.000 HD
ENDBRANCH  27  28
ENDBRANCH  26  27
ENDBRANCH  23  26
ENDBRANCH  19  20
ENDBRANCH   3  19
TORSDOF 7
ENDMDL
MODEL 5
REMARK VINA RESULT:    -5.594      3.483      6.135
REMARK INTER + INTRA:          -8.377
REMARK INTER:                  -7.237
REMARK INTRA:                  -1.140
REMARK UNBOUND:                -0.657
REMARK  Name = 
REMARK  10 active torsions:
REMARK  status: ('A' for Active; 'I' for Inactive)
REMARK    1  A    between atoms: C_1  and  C_2
REMARK    2  A    between atoms: C_2  and  C_3
REMARK    3  A    between atoms: C_2  and  C_4
REMARK    4  A    between atoms: C_2  and  C_5
REMARK    5  A    between atoms: N_7  and  C_8
REMARK    6  A    between atoms: C_8  and  C_9
REMARK    7  A    between atoms: C_12  and  C_13
REMARK    8  A    between atoms: C_13  and  C_14
REMARK    9  A    between atoms: C_14  and  N_15
REMARK   10  A    between atoms: C_22  and  C_23
REMARK                            x       y       z     vdW  Elec       q    Type
REMARK                         _______ _______ _______ _____ _____    ______ ____
ROOT
ATOM      1  C   UNL     1      48.698   6.501  17.485  0.00  0.00    +0.000 A 
ATOM      2  C   UNL     1      48.624   5.844  16.261  0.00  0.00    +0.000 A 
ATOM      3  N   UNL     1      48.609   6.759  15.253  0.00  0.00    +0.000 N 
ATOM      4  C   UNL     1      48.675   8.020  15.774  0.00  0.00    +0.000 A 
ATOM      5  N   UNL     1      48.646   9.128  15.004  0.00  0.00    +0.000 NA
ATOM      6  C   UNL     1      48.778  10.274  15.684  0.00  0.00    +0.000 A 
ATOM      7  C   UNL     1      48.925  10.366  17.049  0.00  0.00    +0.000 A 
ATOM      8  C   UNL     1      48.931   9.194  17.828  0.00  0.00    +0.000 A 
ATOM      9  C   UNL     1      48.786   7.931  17.173  0.00  0.00    +0.000 A 
ENDROOT
BRANCH   8  10
ATOM     10  C   UNL     1      49.167   9.378  19.282  0.00  0.00    +0.000 C 
ATOM     11  N   UNL     1      48.081   9.731  20.052  0.00  0.00    +0.000 N 
ATOM     12  O   UNL     1      50.261   9.262  19.810  0.00  0.00    +0.000 OA
ATOM     13  H   UNL     1      47.135   9.798  19.711  0.00  0.00    +0.000 HD
ATOM     14  H   UNL     1      48.239   9.837  21.045  0.00  0.00    +0.000 HD
ENDBRANCH   8  10
BRANCH   1  16
ATOM     15  C   UNL     1      50.181   5.894  19.402  0.00  0.00    +0.000 C 
ATOM     16  C   UNL     1      48.756   5.750  18.825  0.00  0.00    +0.000 C 
ATOM     17  C   UNL     1      48.519   4.219  18.657  0.00  0.00    +0.000 C 
ATOM     18  C   UNL     1      47.649   6.187  19.804  0.00  0.00    +0.000 C 
ENDBRANCH   1  16
BRANCH   3  19
ATOM     19  C   UNL     1      48.417   6.443  13.843  0.00  0.00    +0.000 C 
BRANCH  19  20
ATOM     20  C   UNL     1      47.011   6.031  13.509  0.00  0.00    +0.000 A 
ATOM     21  C   UNL     1      46.080   6.926  12.978  0.00  0.00    +0.000 A 
ATOM     22  C   UNL     1      44.822   6.466  12.580  0.00  0.00    +0.000 A 
ATOM     23  C   UNL     1      44.518   5.121  12.727  0.00  0.00    +0.000 A 
ATOM     24  N   UNL     1      45.389   4.240  13.276  0.00  0.00    +0.000 NA
ATOM     25  C   UNL     1      46.603   4.711  13.659  0.00  0.00    +0.000 A 
BRANCH  23  26
ATOM     26  C   UNL     1      43.208   4.566  12.211  0.00  0.00    +0.000 C 
BRANCH  26  27
ATOM     27  C   UNL     1      43.393   3.242  11.469  0.00  0.00    +0.000 C 
BRANCH  27  28
ATOM     28  N   UNL     1      43.481   2.115  12.404  0.00  0.00    +0.000 NA
ATOM     29  H   UNL     1      44.444   1.788  12.461  0.00  0.00    +0.000 HD
ATOM     30  H   UNL     1      42.936   1.337  12.034  0.00  0.00    +0.000 HD
ENDBRANCH  27  28
ENDBRANCH  26  27
ENDBRANCH  23  26
ENDBRANCH  19  20
ENDBRANCH   3  19
TORSDOF 7
ENDMDL
MODEL 6
REMARK VINA RESULT:    -5.544      3.614      6.386
REMARK INTER + INTRA:          -8.308
REMARK INTER:                  -7.671
REMARK INTRA:                  -0.636
REMARK UNBOUND:                -0.657
REMARK  Name = 
REMARK  10 active torsions:
REMARK  status: ('A' for Active; 'I' for Inactive)
REMARK    1  A    between atoms: C_1  and  C_2
REMARK    2  A    between atoms: C_2  and  C_3
REMARK    3  A    between atoms: C_2  and  C_4
REMARK    4  A    between atoms: C_2  and  C_5
REMARK    5  A    between atoms: N_7  and  C_8
REMARK    6  A    between atoms: C_8  and  C_9
REMARK    7  A    between atoms: C_12  and  C_13
REMARK    8  A    between atoms: C_13  and  C_14
REMARK    9  A    between atoms: C_14  and  N_15
REMARK   10  A    between atoms: C_22  and  C_23
REMARK                            x       y       z     vdW  Elec       q    Type
REMARK                         _______ _______ _______ _____ _____    ______ ____
ROOT
ATOM      1  C   UNL     1      49.035   5.070  16.865  0.00  0.00    +0.000 A 
ATOM      2  C   UNL     1      48.165   5.600  15.917  0.00  0.00    +0.000 A 
ATOM      3  N   UNL     1      48.781   6.619  15.255  0.00  0.00    +0.000 N 
ATOM      4  C   UNL     1      50.047   6.783  15.737  0.00  0.00    +0.000 A 
ATOM      5  N   UNL     1      50.880   7.745  15.284  0.00  0.00    +0.000 NA
ATOM      6  C   UNL     1      52.101   7.719  15.832  0.00  0.00    +0.000 A 
ATOM      7  C   UNL     1      52.517   6.815  16.783  0.00  0.00    +0.000 A 
ATOM      8  C   UNL     1      51.621   5.837  17.251  0.00  0.00    +0.000 A 
ATOM      9  C   UNL     1      50.294   5.806  16.718  0.00  0.00    +0.000 A 
ENDROOT
BRANCH   8  10
ATOM     10  C   UNL     1      52.172   4.858  18.221  0.00  0.00    +0.000 C 
ATOM     11  N   UNL     1      52.926   3.826  17.708  0.00  0.00    +0.000 N 
ATOM     12  O   UNL     1      51.966   4.906  19.423  0.00  0.00    +0.000 OA
ATOM     13  H   UNL     1      53.189   3.736  16.739  0.00  0.00    +0.000 HD
ATOM     14  H   UNL     1      53.317   3.171  18.372  0.00  0.00    +0.000 HD
ENDBRANCH   8  10
BRANCH   1  16
ATOM     15  C   UNL     1      49.573   2.696  17.426  0.00  0.00    +0.000 C 
ATOM     16  C   UNL     1      48.652   3.886  17.769  0.00  0.00    +0.000 C 
ATOM     17  C   UNL     1      47.198   3.388  17.507  0.00  0.00    +0.000 C 
ATOM     18  C   UNL     1      48.650   4.253  19.266  0.00  0.00    +0.000 C 
ENDBRANCH   1  16
BRANCH   3  19
ATOM     19  C   UNL     1      48.135   7.486  14.276  0.00  0.00    +0.000 C 
BRANCH  19  20
ATOM     20  C   UNL     1      47.127   6.773  13.419  0.00  0.00    +0.000 A 
ATOM     21  C   UNL     1      47.190   5.399  13.184  0.00  0.00    +0.000 A 
ATOM     22  C   UNL     1      46.165   4.767  12.475  0.00  0.00    +0.000 A 
ATOM     23  C   UNL     1      45.102   5.525  12.007  0.00  0.00    +0.000 A 
ATOM     24  N   UNL     1      45.038   6.867  12.188  0.00  0.00    +0.000 NA
ATOM     25  C   UNL     1      46.047   7.458  12.876  0.00  0.00    +0.000 A 
BRANCH  23  26
ATOM     26  C   UNL     1      43.923   4.863  11.327  0.00  0.00    +0.000 C 
BRANCH  26  27
ATOM     27  C   UNL     1      42.586   5.336  11.897  0.00  0.00    +0.000 C 
BRANCH  27  28
ATOM     28  N   UNL     1      42.627   5.408  13.362  0.00  0.00    +0.000 NA
ATOM     29  H   UNL     1      43.529   5.075  13.699  0.00  0.00    +0.000 HD
ATOM     30  H   UNL     1      41.927   4.772  13.742  0.00  0.00    +0.000 HD
ENDBRANCH  27  28
ENDBRANCH  26  27
ENDBRANCH  23  26
ENDBRANCH  19  20
ENDBRANCH   3  19
TORSDOF 7
ENDMDL
MODEL 7
REMARK VINA RESULT:    -5.478      4.163      6.036
REMARK INTER + INTRA:          -8.217
REMARK INTER:                  -7.041
REMARK INTRA:                  -1.176
REMARK UNBOUND:                -0.657
REMARK  Name = 
REMARK  10 active torsions:
REMARK  status: ('A' for Active; 'I' for Inactive)
REMARK    1  A    between atoms: C_1  and  C_2
REMARK    2  A    between atoms: C_2  and  C_3
REMARK    3  A    between atoms: C_2  and  C_4
REMARK    4  A    between atoms: C_2  and  C_5
REMARK    5  A    between atoms: N_7  and  C_8
REMARK    6  A    between atoms: C_8  and  C_9
REMARK    7  A    between atoms: C_12  and  C_13
REMARK    8  A    between atoms: C_13  and  C_14
REMARK    9  A    between atoms: C_14  and  N_15
REMARK   10  A    between atoms: C_22  and  C_23
REMARK                            x       y       z     vdW  Elec       q    Type
REMARK                         _______ _______ _______ _____ _____    ______ ____
ROOT
ATOM      1  C   UNL     1      48.858   7.291  16.010  0.00  0.00    +0.000 A 
ATOM      2  C   UNL     1      48.752   7.998  14.817  0.00  0.00    +0.000 A 
ATOM      3  N   UNL     1      48.184   7.204  13.866  0.00  0.00    +0.000 N 
ATOM      4  C   UNL     1      47.904   5.978  14.397  0.00  0.00    +0.000 A 
ATOM      5  N   UNL     1      47.362   4.977  13.671  0.00  0.00    +0.000 NA
ATOM      6  C   UNL     1      47.105   3.865  14.372  0.00  0.00    +0.000 A 
ATOM      7  C   UNL     1      47.358   3.707  15.716  0.00  0.00    +0.000 A 
ATOM      8  C   UNL     1      47.942   4.761  16.442  0.00  0.00    +0.000 A 
ATOM      9  C   UNL     1      48.254   5.978  15.760  0.00  0.00    +0.000 A 
ENDROOT
BRANCH   8  10
ATOM     10  C   UNL     1      48.114   4.533  17.899  0.00  0.00    +0.000 C 
ATOM     11  N   UNL     1      47.089   4.946  18.722  0.00  0.00    +0.000 N 
ATOM     12  O   UNL     1      49.113   4.037  18.393  0.00  0.00    +0.000 OA
ATOM     13  H   UNL     1      46.210   5.317  18.398  0.00  0.00    +0.000 HD
ATOM     14  H   UNL     1      47.199   4.773  19.712  0.00  0.00    +0.000 HD
ENDBRANCH   8  10
BRANCH   1  16
ATOM     15  C   UNL     1      48.276   8.178  18.272  0.00  0.00    +0.000 C 
ATOM     16  C   UNL     1      49.438   7.912  17.291  0.00  0.00    +0.000 C 
ATOM     17  C   UNL     1      50.099   9.299  17.030  0.00  0.00    +0.000 C 
ATOM     18  C   UNL     1      50.578   7.072  17.900  0.00  0.00    +0.000 C 
ENDBRANCH   1  16
BRANCH   3  19
ATOM     19  C   UNL     1      48.026   7.568  12.463  0.00  0.00    +0.000 C 
BRANCH  19  20
ATOM     20  C   UNL     1      46.835   8.448  12.204  0.00  0.00    +0.000 A 
ATOM     21  C   UNL     1      46.930   9.841  12.188  0.00  0.00    +0.000 A 
ATOM     22  C   UNL     1      45.819  10.609  11.830  0.00  0.00    +0.000 A 
ATOM     23  C   UNL     1      44.632   9.969  11.505  0.00  0.00    +0.000 A 
ATOM     24  N   UNL     1      44.504   8.621  11.552  0.00  0.00    +0.000 NA
ATOM     25  C   UNL     1      45.596   7.896  11.906  0.00  0.00    +0.000 A 
BRANCH  23  26
ATOM     26  C   UNL     1      43.440  10.760  11.012  0.00  0.00    +0.000 C 
BRANCH  26  27
ATOM     27  C   UNL     1      42.421   9.879  10.288  0.00  0.00    +0.000 C 
BRANCH  27  28
ATOM     28  N   UNL     1      41.341   9.464  11.190  0.00  0.00    +0.000 NA
ATOM     29  H   UNL     1      40.530  10.065  11.056  0.00  0.00    +0.000 HD
ATOM     30  H   UNL     1      41.644   9.603  12.153  0.00  0.00    +0.000 HD
ENDBRANCH  27  28
ENDBRANCH  26  27
ENDBRANCH  23  26
ENDBRANCH  19  20
ENDBRANCH   3  19
TORSDOF 7
ENDMDL
MODEL 8
REMARK VINA RESULT:    -5.386      4.106      7.490
REMARK INTER + INTRA:          -8.089
REMARK INTER:                  -7.145
REMARK INTRA:                  -0.945
REMARK UNBOUND:                -0.657
REMARK  Name = 
REMARK  10 active torsions:
REMARK  status: ('A' for Active; 'I' for Inactive)
REMARK    1  A    between atoms: C_1  and  C_2
REMARK    2  A    between atoms: C_2  and  C_3
REMARK    3  A    between atoms: C_2  and  C_4
REMARK    4  A    between atoms: C_2  and  C_5
REMARK    5  A    between atoms: N_7  and  C_8
REMARK    6  A    between atoms: C_8  and  C_9
REMARK    7  A    between atoms: C_12  and  C_13
REMARK    8  A    between atoms: C_13  and  C_14
REMARK    9  A    between atoms: C_14  and  N_15
REMARK   10  A    between atoms: C_22  and  C_23
REMARK                            x       y       z     vdW  Elec       q    Type
REMARK                         _______ _______ _______ _____ _____    ______ ____
ROOT
ATOM      1  C   UNL     1      48.808   7.058  15.191  0.00  0.00    +0.000 A 
ATOM      2  C   UNL     1      49.185   6.286  16.285  0.00  0.00    +0.000 A 
ATOM      3  N   UNL     1      48.536   5.089  16.242  0.00  0.00    +0.000 N 
ATOM      4  C   UNL     1      47.733   5.039  15.139  0.00  0.00    +0.000 A 
ATOM      5  N   UNL     1      46.946   3.979  14.858  0.00  0.00    +0.000 NA
ATOM      6  C   UNL     1      46.271   4.083  13.707  0.00  0.00    +0.000 A 
ATOM      7  C   UNL     1      46.336   5.161  12.853  0.00  0.00    +0.000 A 
ATOM      8  C   UNL     1      47.148   6.261  13.182  0.00  0.00    +0.000 A 
ATOM      9  C   UNL     1      47.894   6.226  14.402  0.00  0.00    +0.000 A 
ENDROOT
BRANCH   8  10
ATOM     10  C   UNL     1      47.216   7.348  12.173  0.00  0.00    +0.000 C 
ATOM     11  N   UNL     1      46.150   8.218  12.118  0.00  0.00    +0.000 N 
ATOM     12  O   UNL     1      48.139   7.484  11.387  0.00  0.00    +0.000 OA
ATOM     13  H   UNL     1      45.372   8.211  12.760  0.00  0.00    +0.000 HD
ATOM     14  H   UNL     1      46.206   8.968  11.444  0.00  0.00    +0.000 HD
ENDBRANCH   8  10
BRANCH   1  16
ATOM     15  C   UNL     1      50.396   8.366  13.774  0.00  0.00    +0.000 C 
ATOM     16  C   UNL     1      49.381   8.461  14.932  0.00  0.00    +0.000 C 
ATOM     17  C   UNL     1      50.179   9.010  16.153  0.00  0.00    +0.000 C 
ATOM     18  C   UNL     1      48.285   9.522  14.705  0.00  0.00    +0.000 C 
ENDBRANCH   1  16
BRANCH   3  19
ATOM     19  C   UNL     1      48.592   4.074  17.287  0.00  0.00    +0.000 C 
BRANCH  19  20
ATOM     20  C   UNL     1      49.952   3.454  17.447  0.00  0.00    +0.000 A 
ATOM     21  C   UNL     1      51.031   4.159  17.983  0.00  0.00    +0.000 A 
ATOM     22  C   UNL     1      52.243   3.503  18.215  0.00  0.00    +0.000 A 
ATOM     23  C   UNL     1      52.353   2.156  17.899  0.00  0.00    +0.000 A 
ATOM     24  N   UNL     1      51.332   1.461  17.342  0.00  0.00    +0.000 NA
ATOM     25  C   UNL     1      50.167   2.121  17.121  0.00  0.00    +0.000 A 
BRANCH  23  26
ATOM     26  C   UNL     1      53.612   1.387  18.233  0.00  0.00    +0.000 C 
BRANCH  26  27
ATOM     27  C   UNL     1      53.552  -0.060  17.743  0.00  0.00    +0.000 C 
BRANCH  27  28
ATOM     28  N   UNL     1      52.719  -0.887  18.624  0.00  0.00    +0.000 NA
ATOM     29  H   UNL     1      52.251  -1.608  18.078  0.00  0.00    +0.000 HD
ATOM     30  H   UNL     1      51.982  -0.305  19.021  0.00  0.00    +0.000 HD
ENDBRANCH  27  28
ENDBRANCH  26  27
ENDBRANCH  23  26
ENDBRANCH  19  20
ENDBRANCH   3  19
TORSDOF 7
ENDMDL
MODEL 9
REMARK VINA RESULT:    -5.354      3.566      8.019
REMARK INTER + INTRA:          -8.046
REMARK INTER:                  -7.267
REMARK INTRA:                  -0.779
REMARK UNBOUND:                -0.657
REMARK  Name = 
REMARK  10 active torsions:
REMARK  status: ('A' for Active; 'I' for Inactive)
REMARK    1  A    between atoms: C_1  and  C_2
REMARK    2  A    between atoms: C_2  and  C_3
REMARK    3  A    between atoms: C_2  and  C_4
REMARK    4  A    between atoms: C_2  and  C_5
REMARK    5  A    between atoms: N_7  and  C_8
REMARK    6  A    between atoms: C_8  and  C_9
REMARK    7  A    between atoms: C_12  and  C_13
REMARK    8  A    between atoms: C_13  and  C_14
REMARK    9  A    between atoms: C_14  and  N_15
REMARK   10  A    between atoms: C_22  and  C_23
REMARK                            x       y       z     vdW  Elec       q    Type
REMARK                         _______ _______ _______ _____ _____    ______ ____
ROOT
ATOM      1  C   UNL     1      45.971   5.343  12.753  0.00  0.00    +0.000 A 
ATOM      2  C   UNL     1      47.122   5.675  13.459  0.00  0.00    +0.000 A 
ATOM      3  N   UNL     1      47.323   7.021  13.394  0.00  0.00    +0.000 N 
ATOM      4  C   UNL     1      46.329   7.601  12.660  0.00  0.00    +0.000 A 
ATOM      5  N   UNL     1      46.290   8.926  12.405  0.00  0.00    +0.000 NA
ATOM      6  C   UNL     1      45.212   9.323  11.718  0.00  0.00    +0.000 A 
ATOM      7  C   UNL     1      44.206   8.490  11.283  0.00  0.00    +0.000 A 
ATOM      8  C   UNL     1      44.284   7.110  11.546  0.00  0.00    +0.000 A 
ATOM      9  C   UNL     1      45.411   6.609  12.268  0.00  0.00    +0.000 A 
ENDROOT
BRANCH   8  10
ATOM     10  C   UNL     1      43.123   6.295  11.105  0.00  0.00    +0.000 C 
ATOM     11  N   UNL     1      41.932   6.495  11.766  0.00  0.00    +0.000 N 
ATOM     12  O   UNL     1      43.184   5.453  10.225  0.00  0.00    +0.000 OA
ATOM     13  H   UNL     1      41.778   7.203  12.468  0.00  0.00    +0.000 HD
ATOM     14  H   UNL     1      41.138   5.954  11.452  0.00  0.00    +0.000 HD
ENDBRANCH   8  10
BRANCH   1  16
ATOM     15  C   UNL     1      46.445   2.971  13.379  0.00  0.00    +0.000 C 
ATOM     16  C   UNL     1      45.450   3.900  12.650  0.00  0.00    +0.000 C 
ATOM     17  C   UNL     1      45.396   3.392  11.177  0.00  0.00    +0.000 C 
ATOM     18  C   UNL     1      43.996   3.753  13.142  0.00  0.00    +0.000 C 
ENDBRANCH   1  16
BRANCH   3  19
ATOM     19  C   UNL     1      48.495   7.714  13.916  0.00  0.00    +0.000 C 
BRANCH  19  20
ATOM     20  C   UNL     1      48.617   7.639  15.412  0.00  0.00    +0.000 A 
ATOM     21  C   UNL     1      48.209   8.683  16.245  0.00  0.00    +0.000 A 
ATOM     22  C   UNL     1      48.239   8.518  17.632  0.00  0.00    +0.000 A 
ATOM     23  C   UNL     1      48.684   7.315  18.159  0.00  0.00    +0.000 A 
ATOM     24  N   UNL     1      49.121   6.301  17.373  0.00  0.00    +0.000 NA
ATOM     25  C   UNL     1      49.087   6.487  16.030  0.00  0.00    +0.000 A 
BRANCH  23  26
ATOM     26  C   UNL     1      48.631   7.060  19.650  0.00  0.00    +0.000 C 
BRANCH  26  27
ATOM     27  C   UNL     1      47.442   6.183  20.045  0.00  0.00    +0.000 C 
BRANCH  27  28
ATOM     28  N   UNL     1      46.710   5.715  18.863  0.00  0.00    +0.000 NA
ATOM     29  H   UNL     1      47.165   4.889  18.479  0.00  0.00    +0.000 HD
ATOM     30  H   UNL     1      46.761   6.431  18.139  0.00  0.00    +0.000 HD
ENDBRANCH  27  28
ENDBRANCH  26  27
ENDBRANCH  23  26
ENDBRANCH  19  20
ENDBRANCH   3  19
TORSDOF 7
ENDMDL
