MODEL 1
REMARK VINA RESULT:    -9.013      0.000      0.000
REMARK INTER + INTRA:         -11.005
REMARK INTER:                 -11.121
REMARK INTRA:                   0.116
REMARK UNBOUND:                 0.116
REMARK  Name = 
REMARK  5 active torsions:
REMARK  status: ('A' for Active; 'I' for Inactive)
REMARK    1  A    between atoms: C_1  and  O_2
REMARK    2  A    between atoms: O_2  and  C_3
REMARK    3  A    between atoms: C_5  and  C_6
REMARK    4  A    between atoms: C_6  and  N_7
REMARK    5  A    between atoms: C_11  and  C_12
REMARK                            x       y       z     vdW  Elec       q    Type
REMARK                         _______ _______ _______ _____ _____    ______ ____
ROOT
ATOM      1  N   UNL     1      44.439   5.159   9.877  0.00  0.00    +0.000 N 
ATOM      2  C   UNL     1      45.123   4.174   9.176  0.00  0.00    +0.000 A 
ATOM      3  C   UNL     1      45.188   2.843   9.568  0.00  0.00    +0.000 A 
ATOM      4  C   UNL     1      45.870   1.922   8.764  0.00  0.00    +0.000 A 
ATOM      5  C   UNL     1      46.471   2.356   7.584  0.00  0.00    +0.000 A 
ATOM      6  C   UNL     1      46.369   3.702   7.273  0.00  0.00    +0.000 A 
ATOM      7  N   UNL     1      45.704   4.605   8.036  0.00  0.00    +0.000 NA
ATOM      8  H   UNL     1      44.613   6.047   9.417  0.00  0.00    +0.000 HD
ENDROOT
BRANCH   5   9
ATOM      9  C   UNL     1      47.225   1.473   6.670  0.00  0.00    +0.000 C 
ATOM     10  N   UNL     1      48.212   2.042   5.913  0.00  0.00    +0.000 N 
ATOM     11  O   UNL     1      47.001   0.272   6.613  0.00  0.00    +0.000 OA
ATOM     12  H   UNL     1      48.588   2.960   6.099  0.00  0.00    +0.000 HD
ATOM     13  H   UNL     1      48.780   1.406   5.367  0.00  0.00    +0.000 HD
ENDBRANCH   5   9
BRANCH   1  14
ATOM     14  C   UNL     1      44.078   5.137  11.297  0.00  0.00    +0.000 C 
ATOM     15  C   UNL     1      42.696   5.552  11.761  0.00  0.00    +0.000 C 
ATOM     16  C   UNL     1      43.020   4.098  11.672  0.00  0.00    +0.000 C 
BRANCH  14  19
ATOM     17  C   UNL     1      46.887   4.299  13.774  0.00  0.00    +0.000 A 
ATOM     18  C   UNL     1      45.777   4.132  12.956  0.00  0.00    +0.000 A 
ATOM     19  C   UNL     1      45.269   5.231  12.248  0.00  0.00    +0.000 A 
ATOM     20  C   UNL     1      45.920   6.458  12.441  0.00  0.00    +0.000 A 
ATOM     21  C   UNL     1      47.017   6.532  13.281  0.00  0.00    +0.000 A 
ATOM     22  N   UNL     1      47.518   5.476  13.947  0.00  0.00    +0.000 NA
BRANCH  17  24
ATOM     23  C   UNL     1      47.592   3.428  15.823  0.00  0.00    +0.000 C 
ATOM     24  O   UNL     1      47.338   3.178  14.442  0.00  0.00    +0.000 OA
ENDBRANCH  17  24
ENDBRANCH  14  19
ENDBRANCH   1  14
TORSDOF 4
ENDMDL
MODEL 2
REMARK VINA RESULT:    -7.779      1.718      2.003
REMARK INTER + INTRA:          -9.482
REMARK INTER:                  -8.940
REMARK INTRA:                  -0.542
REMARK UNBOUND:                 0.116
REMARK  Name = 
REMARK  5 active torsions:
REMARK  status: ('A' for Active; 'I' for Inactive)
REMARK    1  A    between atoms: C_1  and  O_2
REMARK    2  A    between atoms: O_2  and  C_3
REMARK    3  A    between atoms: C_5  and  C_6
REMARK    4  A    between atoms: C_6  and  N_7
REMARK    5  A    between atoms: C_11  and  C_12
REMARK                            x       y       z     vdW  Elec       q    Type
REMARK                         _______ _______ _______ _____ _____    ______ ____
ROOT
ATOM      1  N   UNL     1      44.523   3.780  11.254  0.00  0.00    +0.000 N 
ATOM      2  C   UNL     1      45.092   3.542  10.008  0.00  0.00    +0.000 A 
ATOM      3  C   UNL     1      45.670   4.526   9.216  0.00  0.00    +0.000 A 
ATOM      4  C   UNL     1      46.253   4.170   7.995  0.00  0.00    +0.000 A 
ATOM      5  C   UNL     1      46.245   2.835   7.594  0.00  0.00    +0.000 A 
ATOM      6  C   UNL     1      45.637   1.919   8.438  0.00  0.00    +0.000 A 
ATOM      7  N   UNL     1      45.076   2.246   9.629  0.00  0.00    +0.000 NA
ATOM      8  H   UNL     1      44.112   2.910  11.580  0.00  0.00    +0.000 HD
ENDROOT
BRANCH   5   9
ATOM      9  C   UNL     1      46.820   2.353   6.322  0.00  0.00    +0.000 C 
ATOM     10  N   UNL     1      47.039   3.276   5.337  0.00  0.00    +0.000 N 
ATOM     11  O   UNL     1      47.121   1.178   6.162  0.00  0.00    +0.000 OA
ATOM     12  H   UNL     1      47.034   4.271   5.505  0.00  0.00    +0.000 HD
ATOM     13  H   UNL     1      47.521   2.943   4.511  0.00  0.00    +0.000 HD
ENDBRANCH   5   9
BRANCH   1  14
ATOM     14  C   UNL     1      44.011   5.057  11.756  0.00  0.00    +0.000 C 
ATOM     15  C   UNL     1      42.640   5.563  11.355  0.00  0.00    +0.000 C 
ATOM     16  C   UNL     1      42.813   4.939  12.700  0.00  0.00    +0.000 C 
BRANCH  14  19
ATOM     17  C   UNL     1      47.202   6.605  13.222  0.00  0.00    +0.000 A 
ATOM     18  C   UNL     1      46.248   5.651  12.892  0.00  0.00    +0.000 A 
ATOM     19  C   UNL     1      45.095   6.039  12.194  0.00  0.00    +0.000 A 
ATOM     20  C   UNL     1      44.973   7.403  11.892  0.00  0.00    +0.000 A 
ATOM     21  C   UNL     1      45.972   8.285  12.265  0.00  0.00    +0.000 A 
ATOM     22  N   UNL     1      47.088   7.912  12.919  0.00  0.00    +0.000 NA
BRANCH  17  24
ATOM     23  C   UNL     1      48.744   7.075  14.912  0.00  0.00    +0.000 C 
ATOM     24  O   UNL     1      48.314   6.159  13.908  0.00  0.00    +0.000 OA
ENDBRANCH  17  24
ENDBRANCH  14  19
ENDBRANCH   1  14
TORSDOF 4
ENDMDL
MODEL 3
REMARK VINA RESULT:    -7.719      2.181      3.031
REMARK INTER + INTRA:          -9.408
REMARK INTER:                  -8.857
REMARK INTRA:                  -0.551
REMARK UNBOUND:                 0.116
REMARK  Name = 
REMARK  5 active torsions:
REMARK  status: ('A' for Active; 'I' for Inactive)
REMARK    1  A    between atoms: C_1  and  O_2
REMARK    2  A    between atoms: O_2  and  C_3
REMARK    3  A    between atoms: C_5  and  C_6
REMARK    4  A    between atoms: C_6  and  N_7
REMARK    5  A    between atoms: C_11  and  C_12
REMARK                            x       y       z     vdW  Elec       q    Type
REMARK                         _______ _______ _______ _____ _____    ______ ____
ROOT
ATOM      1  N   UNL     1      44.542   3.904  11.313  0.00  0.00    +0.000 N 
ATOM      2  C   UNL     1      45.098   3.653  10.064  0.00  0.00    +0.000 A 
ATOM      3  C   UNL     1      45.662   4.629   9.253  0.00  0.00    +0.000 A 
ATOM      4  C   UNL     1      46.233   4.260   8.030  0.00  0.00    +0.000 A 
ATOM      5  C   UNL     1      46.228   2.920   7.646  0.00  0.00    +0.000 A 
ATOM      6  C   UNL     1      45.634   2.012   8.509  0.00  0.00    +0.000 A 
ATOM      7  N   UNL     1      45.085   2.352   9.702  0.00  0.00    +0.000 NA
ATOM      8  H   UNL     1      44.140   3.037  11.655  0.00  0.00    +0.000 HD
ENDROOT
BRANCH   5   9
ATOM      9  C   UNL     1      46.790   2.423   6.374  0.00  0.00    +0.000 C 
ATOM     10  N   UNL     1      46.954   3.326   5.360  0.00  0.00    +0.000 N 
ATOM     11  O   UNL     1      47.130   1.256   6.238  0.00  0.00    +0.000 OA
ATOM     12  H   UNL     1      46.918   4.325   5.502  0.00  0.00    +0.000 HD
ATOM     13  H   UNL     1      47.429   2.989   4.532  0.00  0.00    +0.000 HD
ENDBRANCH   5   9
BRANCH   1  14
ATOM     14  C   UNL     1      44.029   5.185  11.804  0.00  0.00    +0.000 C 
ATOM     15  C   UNL     1      42.685   5.717  11.348  0.00  0.00    +0.000 C 
ATOM     16  C   UNL     1      42.789   5.079  12.693  0.00  0.00    +0.000 C 
BRANCH  14  19
ATOM     17  C   UNL     1      46.048   8.341  12.636  0.00  0.00    +0.000 A 
ATOM     18  C   UNL     1      45.038   7.536  12.124  0.00  0.00    +0.000 A 
ATOM     19  C   UNL     1      45.108   6.146  12.297  0.00  0.00    +0.000 A 
ATOM     20  C   UNL     1      46.234   5.653  12.972  0.00  0.00    +0.000 A 
ATOM     21  C   UNL     1      47.195   6.530  13.444  0.00  0.00    +0.000 A 
ATOM     22  N   UNL     1      47.122   7.865  13.295  0.00  0.00    +0.000 NA
BRANCH  17  24
ATOM     23  C   UNL     1      44.712  10.042  11.755  0.00  0.00    +0.000 C 
ATOM     24  O   UNL     1      45.920   9.701  12.433  0.00  0.00    +0.000 OA
ENDBRANCH  17  24
ENDBRANCH  14  19
ENDBRANCH   1  14
TORSDOF 4
ENDMDL
MODEL 4
REMARK VINA RESULT:    -7.321      2.305      6.640
REMARK INTER + INTRA:          -8.917
REMARK INTER:                  -8.393
REMARK INTRA:                  -0.524
REMARK UNBOUND:                 0.116
REMARK  Name = 
REMARK  5 active torsions:
REMARK  status: ('A' for Active; 'I' for Inactive)
REMARK    1  A    between atoms: C_1  and  O_2
REMARK    2  A    between atoms: O_2  and  C_3
REMARK    3  A    between atoms: C_5  and  C_6
REMARK    4  A    between atoms: C_6  and  N_7
REMARK    5  A    between atoms: C_11  and  C_12
REMARK                            x       y       z     vdW  Elec       q    Type
REMARK                         _______ _______ _______ _____ _____    ______ ____
ROOT
ATOM      1  N   UNL     1      44.857   6.498  11.613  0.00  0.00    +0.000 N 
ATOM      2  C   UNL     1      45.946   6.652  12.462  0.00  0.00    +0.000 A 
ATOM      3  C   UNL     1      46.695   5.597  12.966  0.00  0.00    +0.000 A 
ATOM      4  C   UNL     1      47.801   5.867  13.780  0.00  0.00    +0.000 A 
ATOM      5  C   UNL     1      48.133   7.189  14.071  0.00  0.00    +0.000 A 
ATOM      6  C   UNL     1      47.327   8.181  13.537  0.00  0.00    +0.000 A 
ATOM      7  N   UNL     1      46.257   7.937  12.739  0.00  0.00    +0.000 NA
ATOM      8  H   UNL     1      44.451   7.416  11.458  0.00  0.00    +0.000 HD
ENDROOT
BRANCH   5   9
ATOM      9  C   UNL     1      49.269   7.584  14.928  0.00  0.00    +0.000 C 
ATOM     10  N   UNL     1      50.531   7.360  14.449  0.00  0.00    +0.000 N 
ATOM     11  O   UNL     1      49.094   8.124  16.012  0.00  0.00    +0.000 OA
ATOM     12  H   UNL     1      50.722   7.148  13.481  0.00  0.00    +0.000 HD
ATOM     13  H   UNL     1      51.293   7.726  15.007  0.00  0.00    +0.000 HD
ENDBRANCH   5   9
BRANCH   1  14
ATOM     14  C   UNL     1      44.025   5.302  11.460  0.00  0.00    +0.000 C 
ATOM     15  C   UNL     1      43.192   4.774  12.611  0.00  0.00    +0.000 C 
ATOM     16  C   UNL     1      42.519   5.556  11.533  0.00  0.00    +0.000 C 
BRANCH  14  19
ATOM     17  C   UNL     1      45.639   3.855   8.293  0.00  0.00    +0.000 A 
ATOM     18  C   UNL     1      45.240   4.784   9.245  0.00  0.00    +0.000 A 
ATOM     19  C   UNL     1      44.477   4.362  10.345  0.00  0.00    +0.000 A 
ATOM     20  C   UNL     1      44.144   3.001  10.393  0.00  0.00    +0.000 A 
ATOM     21  C   UNL     1      44.581   2.148   9.395  0.00  0.00    +0.000 A 
ATOM     22  N   UNL     1      45.328   2.546   8.349  0.00  0.00    +0.000 NA
BRANCH  17  24
ATOM     23  C   UNL     1      46.760   3.307   6.318  0.00  0.00    +0.000 C 
ATOM     24  O   UNL     1      46.388   4.334   7.237  0.00  0.00    +0.000 OA
ENDBRANCH  17  24
ENDBRANCH  14  19
ENDBRANCH   1  14
TORSDOF 4
ENDMDL
MODEL 5
REMARK VINA RESULT:    -6.434      3.761      6.464
REMARK INTER + INTRA:          -7.823
REMARK INTER:                  -7.582
REMARK INTRA:                  -0.241
REMARK UNBOUND:                 0.116
REMARK  Name = 
REMARK  5 active torsions:
REMARK  status: ('A' for Active; 'I' for Inactive)
REMARK    1  A    between atoms: C_1  and  O_2
REMARK    2  A    between atoms: O_2  and  C_3
REMARK    3  A    between atoms: C_5  and  C_6
REMARK    4  A    between atoms: C_6  and  N_7
REMARK    5  A    between atoms: C_11  and  C_12
REMARK                            x       y       z     vdW  Elec       q    Type
REMARK                         _______ _______ _______ _____ _____    ______ ____
ROOT
ATOM      1  N   UNL     1      47.591   3.044  15.329  0.00  0.00    +0.000 N 
ATOM      2  C   UNL     1      47.081   3.889  14.350  0.00  0.00    +0.000 A 
ATOM      3  C   UNL     1      47.220   5.271  14.367  0.00  0.00    +0.000 A 
ATOM      4  C   UNL     1      46.705   6.026  13.307  0.00  0.00    +0.000 A 
ATOM      5  C   UNL     1      46.061   5.380  12.254  0.00  0.00    +0.000 A 
ATOM      6  C   UNL     1      45.955   4.000  12.321  0.00  0.00    +0.000 A 
ATOM      7  N   UNL     1      46.458   3.252  13.336  0.00  0.00    +0.000 NA
ATOM      8  H   UNL     1      47.286   2.100  15.114  0.00  0.00    +0.000 HD
ENDROOT
BRANCH   5   9
ATOM      9  C   UNL     1      45.470   6.079  11.095  0.00  0.00    +0.000 C 
ATOM     10  N   UNL     1      45.342   5.375   9.930  0.00  0.00    +0.000 N 
ATOM     11  O   UNL     1      45.078   7.235  11.179  0.00  0.00    +0.000 OA
ATOM     12  H   UNL     1      45.423   4.370   9.883  0.00  0.00    +0.000 HD
ATOM     13  H   UNL     1      44.847   5.840   9.178  0.00  0.00    +0.000 HD
ENDBRANCH   5   9
BRANCH   1  14
ATOM     14  C   UNL     1      47.928   3.401  16.709  0.00  0.00    +0.000 C 
ATOM     15  C   UNL     1      47.062   4.357  17.505  0.00  0.00    +0.000 C 
ATOM     16  C   UNL     1      46.941   2.892  17.761  0.00  0.00    +0.000 C 
BRANCH  14  19
ATOM     17  C   UNL     1      51.421   1.930  17.313  0.00  0.00    +0.000 A 
ATOM     18  C   UNL     1      50.066   1.992  17.012  0.00  0.00    +0.000 A 
ATOM     19  C   UNL     1      49.404   3.228  17.059  0.00  0.00    +0.000 A 
ATOM     20  C   UNL     1      50.172   4.338  17.438  0.00  0.00    +0.000 A 
ATOM     21  C   UNL     1      51.517   4.181  17.726  0.00  0.00    +0.000 A 
ATOM     22  N   UNL     1      52.159   3.000  17.664  0.00  0.00    +0.000 NA
BRANCH  17  24
ATOM     23  C   UNL     1      53.387   0.710  17.631  0.00  0.00    +0.000 C 
ATOM     24  O   UNL     1      52.014   0.684  17.248  0.00  0.00    +0.000 OA
ENDBRANCH  17  24
ENDBRANCH  14  19
ENDBRANCH   1  14
TORSDOF 4
ENDMDL
