MODEL 1
REMARK VINA RESULT:    -8.445      0.000      0.000
REMARK INTER + INTRA:         -12.575
REMARK INTER:                 -11.900
REMARK INTRA:                  -0.675
REMARK UNBOUND:                -0.675
REMARK  Name = 
REMARK  7 active torsions:
REMARK  status: ('A' for Active; 'I' for Inactive)
REMARK    1  A    between atoms: C_2  and  C_3
REMARK    2  A    between atoms: C_3  and  N_4
REMARK    3  A    between atoms: C_3  and  C_21
REMARK    4  A    between atoms: C_5  and  C_7
REMARK    5  A    between atoms: C_10  and  C_11
REMARK    6  A    between atoms: C_11  and  N_12
REMARK    7  A    between atoms: C_13  and  C_15
REMARK                            x       y       z     vdW  Elec       q    Type
REMARK                         _______ _______ _______ _____ _____    ______ ____
ROOT
ATOM      1  N   UNL     1      47.067   6.010  13.897  0.00  0.00    +0.000 N 
ATOM      2  C   UNL     1      46.753   6.008  12.562  0.00  0.00    +0.000 C 
ATOM      3  O   UNL     1      47.460   6.556  11.720  0.00  0.00    +0.000 OA
ATOM      4  H   UNL     1      46.534   5.460  14.564  0.00  0.00    +0.000 HD
ENDROOT
BRANCH   2   5
ATOM      5  C   UNL     1      45.464   5.307  12.168  0.00  0.00    +0.000 C 
ATOM      6  C   UNL     1      44.268   5.709  13.021  0.00  0.00    +0.000 C 
ATOM      7  C   UNL     1      43.289   4.540  12.925  0.00  0.00    +0.000 C 
ATOM      8  C   UNL     1      44.072   3.334  12.369  0.00  0.00    +0.000 C 
ATOM      9  C   UNL     1      45.532   3.793  12.329  0.00  0.00    +0.000 C 
BRANCH   8  10
ATOM     10  C   UNL     1      43.542   2.907  10.991  0.00  0.00    +0.000 C 
BRANCH  10  11
ATOM     11  N   UNL     1      44.595   2.449  10.103  0.00  0.00    +0.000 N 
ATOM     12  C   UNL     1      44.882   3.082   8.915  0.00  0.00    +0.000 C 
ATOM     13  O   UNL     1      44.276   4.079   8.534  0.00  0.00    +0.000 OA
ATOM     14  H   UNL     1      45.143   1.650  10.380  0.00  0.00    +0.000 HD
BRANCH  12  15
ATOM     15  C   UNL     1      45.942   2.493   8.139  0.00  0.00    +0.000 A 
ATOM     16  C   UNL     1      46.913   3.002   7.298  0.00  0.00    +0.000 A 
ATOM     17  C   UNL     1      47.652   1.884   6.868  0.00  0.00    +0.000 A 
ATOM     18  N   UNL     1      47.193   0.744   7.385  0.00  0.00    +0.000 NA
ATOM     19  N   UNL     1      46.158   1.139   8.147  0.00  0.00    +0.000 N 
ATOM     20  H   UNL     1      45.630   0.441   8.664  0.00  0.00    +0.000 HD
ENDBRANCH  12  15
ENDBRANCH  10  11
ENDBRANCH   8  10
ENDBRANCH   2   5
BRANCH   1  21
ATOM     21  C   UNL     1      48.291   6.618  14.373  0.00  0.00    +0.000 C 
BRANCH  21  22
ATOM     22  C   UNL     1      48.472   6.311  15.846  0.00  0.00    +0.000 A 
ATOM     23  C   UNL     1      48.878   7.268  16.764  0.00  0.00    +0.000 A 
ATOM     24  S   UNL     1      48.955   6.684  18.366  0.00  0.00    +0.000 S 
ATOM     25  C   UNL     1      48.453   5.130  17.888  0.00  0.00    +0.000 A 
ATOM     26  N   UNL     1      48.281   4.134  18.796  0.00  0.00    +0.000 NA
ATOM     27  C   UNL     1      47.857   3.022  18.291  0.00  0.00    +0.000 A 
ATOM     28  N   UNL     1      47.616   2.810  16.955  0.00  0.00    +0.000 N 
ATOM     29  C   UNL     1      47.869   3.759  15.990  0.00  0.00    +0.000 A 
ATOM     30  O   UNL     1      47.808   3.518  14.788  0.00  0.00    +0.000 OA
ATOM     31  C   UNL     1      48.260   5.052  16.522  0.00  0.00    +0.000 A 
ATOM     32  H   UNL     1      47.319   1.900  16.630  0.00  0.00    +0.000 HD
ENDBRANCH  21  22
BRANCH  21  34
ATOM     33  N   UNL     1      48.365   9.215  13.888  0.00  0.00    +0.000 NA
ATOM     34  C   UNL     1      48.337   8.078  14.115  0.00  0.00    +0.000 C 
ENDBRANCH  21  34
ENDBRANCH   1  21
TORSDOF 7
ENDMDL
MODEL 2
REMARK VINA RESULT:    -7.809      1.872      3.324
REMARK INTER + INTRA:         -11.679
REMARK INTER:                 -11.587
REMARK INTRA:                  -0.092
REMARK UNBOUND:                -0.675
REMARK  Name = 
REMARK  7 active torsions:
REMARK  status: ('A' for Active; 'I' for Inactive)
REMARK    1  A    between atoms: C_2  and  C_3
REMARK    2  A    between atoms: C_3  and  N_4
REMARK    3  A    between atoms: C_3  and  C_21
REMARK    4  A    between atoms: C_5  and  C_7
REMARK    5  A    between atoms: C_10  and  C_11
REMARK    6  A    between atoms: C_11  and  N_12
REMARK    7  A    between atoms: C_13  and  C_15
REMARK                            x       y       z     vdW  Elec       q    Type
REMARK                         _______ _______ _______ _____ _____    ______ ____
ROOT
ATOM      1  N   UNL     1      46.790   4.778  15.340  0.00  0.00    +0.000 N 
ATOM      2  C   UNL     1      46.649   4.086  14.164  0.00  0.00    +0.000 C 
ATOM      3  O   UNL     1      46.932   2.895  14.064  0.00  0.00    +0.000 OA
ATOM      4  H   UNL     1      46.448   5.730  15.436  0.00  0.00    +0.000 HD
ENDROOT
BRANCH   2   5
ATOM      5  C   UNL     1      46.139   4.875  12.969  0.00  0.00    +0.000 C 
ATOM      6  C   UNL     1      47.111   5.942  12.485  0.00  0.00    +0.000 C 
ATOM      7  C   UNL     1      46.251   6.977  11.761  0.00  0.00    +0.000 C 
ATOM      8  C   UNL     1      44.787   6.719  12.169  0.00  0.00    +0.000 C 
ATOM      9  C   UNL     1      44.863   5.653  13.265  0.00  0.00    +0.000 C 
BRANCH   8  10
ATOM     10  C   UNL     1      43.937   6.282  10.967  0.00  0.00    +0.000 C 
BRANCH  10  11
ATOM     11  N   UNL     1      44.628   5.344  10.103  0.00  0.00    +0.000 N 
ATOM     12  C   UNL     1      44.263   4.020  10.010  0.00  0.00    +0.000 C 
ATOM     13  O   UNL     1      43.323   3.549  10.644  0.00  0.00    +0.000 OA
ATOM     14  H   UNL     1      45.392   5.684   9.538  0.00  0.00    +0.000 HD
BRANCH  12  15
ATOM     15  C   UNL     1      45.062   3.216   9.123  0.00  0.00    +0.000 A 
ATOM     16  C   UNL     1      45.830   3.492   8.007  0.00  0.00    +0.000 A 
ATOM     17  C   UNL     1      46.369   2.252   7.615  0.00  0.00    +0.000 A 
ATOM     18  N   UNL     1      45.978   1.256   8.409  0.00  0.00    +0.000 NA
ATOM     19  N   UNL     1      45.187   1.864   9.311  0.00  0.00    +0.000 N 
ATOM     20  H   UNL     1      44.757   1.309  10.045  0.00  0.00    +0.000 HD
ENDBRANCH  12  15
ENDBRANCH  10  11
ENDBRANCH   8  10
ENDBRANCH   2   5
BRANCH   1  21
ATOM     21  C   UNL     1      47.233   4.112  16.546  0.00  0.00    +0.000 C 
BRANCH  21  22
ATOM     22  C   UNL     1      47.674   5.145  17.564  0.00  0.00    +0.000 A 
ATOM     23  C   UNL     1      47.144   5.205  18.844  0.00  0.00    +0.000 A 
ATOM     24  S   UNL     1      47.845   6.423  19.814  0.00  0.00    +0.000 S 
ATOM     25  C   UNL     1      48.879   6.915  18.555  0.00  0.00    +0.000 A 
ATOM     26  N   UNL     1      49.779   7.916  18.733  0.00  0.00    +0.000 NA
ATOM     27  C   UNL     1      50.524   8.151  17.703  0.00  0.00    +0.000 A 
ATOM     28  N   UNL     1      50.428   7.491  16.501  0.00  0.00    +0.000 N 
ATOM     29  C   UNL     1      49.467   6.539  16.245  0.00  0.00    +0.000 A 
ATOM     30  O   UNL     1      49.278   6.068  15.128  0.00  0.00    +0.000 OA
ATOM     31  C   UNL     1      48.669   6.180  17.404  0.00  0.00    +0.000 A 
ATOM     32  H   UNL     1      51.023   7.755  15.727  0.00  0.00    +0.000 HD
ENDBRANCH  21  22
BRANCH  21  34
ATOM     33  N   UNL     1      49.143   2.339  16.109  0.00  0.00    +0.000 NA
ATOM     34  C   UNL     1      48.301   3.118  16.286  0.00  0.00    +0.000 C 
ENDBRANCH  21  34
ENDBRANCH   1  21
TORSDOF 7
ENDMDL
MODEL 3
REMARK VINA RESULT:    -7.711      2.448      3.288
REMARK INTER + INTRA:         -11.542
REMARK INTER:                 -10.578
REMARK INTRA:                  -0.964
REMARK UNBOUND:                -0.675
REMARK  Name = 
REMARK  7 active torsions:
REMARK  status: ('A' for Active; 'I' for Inactive)
REMARK    1  A    between atoms: C_2  and  C_3
REMARK    2  A    between atoms: C_3  and  N_4
REMARK    3  A    between atoms: C_3  and  C_21
REMARK    4  A    between atoms: C_5  and  C_7
REMARK    5  A    between atoms: C_10  and  C_11
REMARK    6  A    between atoms: C_11  and  N_12
REMARK    7  A    between atoms: C_13  and  C_15
REMARK                            x       y       z     vdW  Elec       q    Type
REMARK                         _______ _______ _______ _____ _____    ______ ____
ROOT
ATOM      1  N   UNL     1      47.235   4.916  15.658  0.00  0.00    +0.000 N 
ATOM      2  C   UNL     1      47.620   5.437  14.449  0.00  0.00    +0.000 C 
ATOM      3  O   UNL     1      48.561   6.220  14.341  0.00  0.00    +0.000 OA
ATOM      4  H   UNL     1      46.529   4.188  15.717  0.00  0.00    +0.000 HD
ENDROOT
BRANCH   2   5
ATOM      5  C   UNL     1      46.809   5.013  13.237  0.00  0.00    +0.000 C 
ATOM      6  C   UNL     1      46.778   6.057  12.129  0.00  0.00    +0.000 C 
ATOM      7  C   UNL     1      45.506   5.769  11.334  0.00  0.00    +0.000 C 
ATOM      8  C   UNL     1      44.625   4.848  12.200  0.00  0.00    +0.000 C 
ATOM      9  C   UNL     1      45.337   4.777  13.554  0.00  0.00    +0.000 C 
BRANCH   8  10
ATOM     10  C   UNL     1      44.442   3.468  11.548  0.00  0.00    +0.000 C 
BRANCH  10  11
ATOM     11  N   UNL     1      45.294   3.279  10.389  0.00  0.00    +0.000 N 
ATOM     12  C   UNL     1      44.984   2.390   9.385  0.00  0.00    +0.000 C 
ATOM     13  O   UNL     1      43.963   1.708   9.398  0.00  0.00    +0.000 OA
ATOM     14  H   UNL     1      46.133   3.834  10.313  0.00  0.00    +0.000 HD
BRANCH  12  15
ATOM     15  C   UNL     1      45.942   2.305   8.314  0.00  0.00    +0.000 A 
ATOM     16  C   UNL     1      46.488   3.225   7.440  0.00  0.00    +0.000 A 
ATOM     17  C   UNL     1      47.386   2.488   6.643  0.00  0.00    +0.000 A 
ATOM     18  N   UNL     1      47.414   1.198   6.973  0.00  0.00    +0.000 NA
ATOM     19  N   UNL     1      46.531   1.111   7.983  0.00  0.00    +0.000 N 
ATOM     20  H   UNL     1      46.369   0.210   8.423  0.00  0.00    +0.000 HD
ENDBRANCH  12  15
ENDBRANCH  10  11
ENDBRANCH   8  10
ENDBRANCH   2   5
BRANCH   1  21
ATOM     21  C   UNL     1      47.963   5.228  16.870  0.00  0.00    +0.000 C 
BRANCH  21  22
ATOM     22  C   UNL     1      49.051   4.196  17.088  0.00  0.00    +0.000 A 
ATOM     23  C   UNL     1      48.855   2.843  16.851  0.00  0.00    +0.000 A 
ATOM     24  S   UNL     1      50.249   1.897  17.123  0.00  0.00    +0.000 S 
ATOM     25  C   UNL     1      51.162   3.261  17.571  0.00  0.00    +0.000 A 
ATOM     26  N   UNL     1      52.475   3.153  17.903  0.00  0.00    +0.000 NA
ATOM     27  C   UNL     1      53.048   4.278  18.180  0.00  0.00    +0.000 A 
ATOM     28  N   UNL     1      52.417   5.498  18.182  0.00  0.00    +0.000 N 
ATOM     29  C   UNL     1      51.067   5.642  17.948  0.00  0.00    +0.000 A 
ATOM     30  O   UNL     1      50.474   6.705  18.107  0.00  0.00    +0.000 OA
ATOM     31  C   UNL     1      50.405   4.415  17.543  0.00  0.00    +0.000 A 
ATOM     32  H   UNL     1      52.923   6.333  18.445  0.00  0.00    +0.000 HD
ENDBRANCH  21  22
BRANCH  21  34
ATOM     33  N   UNL     1      46.402   5.441  18.991  0.00  0.00    +0.000 NA
ATOM     34  C   UNL     1      47.076   5.340  18.052  0.00  0.00    +0.000 C 
ENDBRANCH  21  34
ENDBRANCH   1  21
TORSDOF 7
ENDMDL
MODEL 4
REMARK VINA RESULT:    -7.341      1.760      2.140
REMARK INTER + INTRA:         -11.021
REMARK INTER:                  -9.888
REMARK INTRA:                  -1.132
REMARK UNBOUND:                -0.675
REMARK  Name = 
REMARK  7 active torsions:
REMARK  status: ('A' for Active; 'I' for Inactive)
REMARK    1  A    between atoms: C_2  and  C_3
REMARK    2  A    between atoms: C_3  and  N_4
REMARK    3  A    between atoms: C_3  and  C_21
REMARK    4  A    between atoms: C_5  and  C_7
REMARK    5  A    between atoms: C_10  and  C_11
REMARK    6  A    between atoms: C_11  and  N_12
REMARK    7  A    between atoms: C_13  and  C_15
REMARK                            x       y       z     vdW  Elec       q    Type
REMARK                         _______ _______ _______ _____ _____    ______ ____
ROOT
ATOM      1  N   UNL     1      47.822   7.328  14.669  0.00  0.00    +0.000 N 
ATOM      2  C   UNL     1      48.158   6.605  13.553  0.00  0.00    +0.000 C 
ATOM      3  O   UNL     1      49.301   6.586  13.102  0.00  0.00    +0.000 OA
ATOM      4  H   UNL     1      46.902   7.246  15.092  0.00  0.00    +0.000 HD
ENDROOT
BRANCH   2   5
ATOM      5  C   UNL     1      47.035   5.836  12.878  0.00  0.00    +0.000 C 
ATOM      6  C   UNL     1      46.091   6.720  12.073  0.00  0.00    +0.000 C 
ATOM      7  C   UNL     1      44.773   5.949  12.004  0.00  0.00    +0.000 C 
ATOM      8  C   UNL     1      44.832   4.846  13.079  0.00  0.00    +0.000 C 
ATOM      9  C   UNL     1      46.115   5.128  13.866  0.00  0.00    +0.000 C 
BRANCH   8  10
ATOM     10  C   UNL     1      44.813   3.445  12.449  0.00  0.00    +0.000 C 
BRANCH  10  11
ATOM     11  N   UNL     1      45.420   3.414  11.132  0.00  0.00    +0.000 N 
ATOM     12  C   UNL     1      44.807   2.817  10.053  0.00  0.00    +0.000 C 
ATOM     13  O   UNL     1      43.705   2.282  10.131  0.00  0.00    +0.000 OA
ATOM     14  H   UNL     1      46.314   3.863  11.004  0.00  0.00    +0.000 HD
BRANCH  12  15
ATOM     15  C   UNL     1      45.549   2.854   8.820  0.00  0.00    +0.000 A 
ATOM     16  C   UNL     1      46.242   1.908   8.088  0.00  0.00    +0.000 A 
ATOM     17  C   UNL     1      46.727   2.598   6.960  0.00  0.00    +0.000 A 
ATOM     18  N   UNL     1      46.380   3.885   6.966  0.00  0.00    +0.000 NA
ATOM     19  N   UNL     1      45.671   4.015   8.101  0.00  0.00    +0.000 N 
ATOM     20  H   UNL     1      45.282   4.923   8.339  0.00  0.00    +0.000 HD
ENDBRANCH  12  15
ENDBRANCH  10  11
ENDBRANCH   8  10
ENDBRANCH   2   5
BRANCH   1  21
ATOM     21  C   UNL     1      48.824   8.066  15.408  0.00  0.00    +0.000 C 
BRANCH  21  22
ATOM     22  C   UNL     1      48.530   7.976  16.892  0.00  0.00    +0.000 A 
ATOM     23  C   UNL     1      48.119   9.070  17.639  0.00  0.00    +0.000 A 
ATOM     24  S   UNL     1      47.802   8.697  19.274  0.00  0.00    +0.000 S 
ATOM     25  C   UNL     1      48.207   7.060  19.042  0.00  0.00    +0.000 A 
ATOM     26  N   UNL     1      48.122   6.162  20.057  0.00  0.00    +0.000 NA
ATOM     27  C   UNL     1      48.421   4.950  19.721  0.00  0.00    +0.000 A 
ATOM     28  N   UNL     1      48.825   4.562  18.466  0.00  0.00    +0.000 N 
ATOM     29  C   UNL     1      49.019   5.454  17.435  0.00  0.00    +0.000 A 
ATOM     30  O   UNL     1      49.532   5.134  16.367  0.00  0.00    +0.000 OA
ATOM     31  C   UNL     1      48.608   6.812  17.743  0.00  0.00    +0.000 A 
ATOM     32  H   UNL     1      49.077   3.600  18.288  0.00  0.00    +0.000 HD
ENDBRANCH  21  22
BRANCH  21  34
ATOM     33  N   UNL     1      48.994  10.578  14.608  0.00  0.00    +0.000 NA
ATOM     34  C   UNL     1      48.934   9.476  14.962  0.00  0.00    +0.000 C 
ENDBRANCH  21  34
ENDBRANCH   1  21
TORSDOF 7
ENDMDL
MODEL 5
REMARK VINA RESULT:    -7.338      3.762      8.099
REMARK INTER + INTRA:         -11.016
REMARK INTER:                  -9.696
REMARK INTRA:                  -1.320
REMARK UNBOUND:                -0.675
REMARK  Name = 
REMARK  7 active torsions:
REMARK  status: ('A' for Active; 'I' for Inactive)
REMARK    1  A    between atoms: C_2  and  C_3
REMARK    2  A    between atoms: C_3  and  N_4
REMARK    3  A    between atoms: C_3  and  C_21
REMARK    4  A    between atoms: C_5  and  C_7
REMARK    5  A    between atoms: C_10  and  C_11
REMARK    6  A    between atoms: C_11  and  N_12
REMARK    7  A    between atoms: C_13  and  C_15
REMARK                            x       y       z     vdW  Elec       q    Type
REMARK                         _______ _______ _______ _____ _____    ______ ____
ROOT
ATOM      1  N   UNL     1      46.783   5.105  14.593  0.00  0.00    +0.000 N 
ATOM      2  C   UNL     1      47.397   3.946  14.993  0.00  0.00    +0.000 C 
ATOM      3  O   UNL     1      47.407   2.934  14.295  0.00  0.00    +0.000 OA
ATOM      4  H   UNL     1      46.877   5.963  15.129  0.00  0.00    +0.000 HD
ENDROOT
BRANCH   2   5
ATOM      5  C   UNL     1      48.054   3.962  16.362  0.00  0.00    +0.000 C 
ATOM      6  C   UNL     1      47.486   2.926  17.323  0.00  0.00    +0.000 C 
ATOM      7  C   UNL     1      47.781   3.464  18.722  0.00  0.00    +0.000 C 
ATOM      8  C   UNL     1      48.143   4.954  18.570  0.00  0.00    +0.000 C 
ATOM      9  C   UNL     1      47.869   5.282  17.100  0.00  0.00    +0.000 C 
BRANCH   8  10
ATOM     10  C   UNL     1      49.599   5.224  18.981  0.00  0.00    +0.000 C 
BRANCH  10  11
ATOM     11  N   UNL     1      50.423   4.030  18.942  0.00  0.00    +0.000 N 
ATOM     12  C   UNL     1      51.337   3.799  17.939  0.00  0.00    +0.000 C 
ATOM     13  O   UNL     1      51.523   4.592  17.020  0.00  0.00    +0.000 OA
ATOM     14  H   UNL     1      50.330   3.357  19.688  0.00  0.00    +0.000 HD
BRANCH  12  15
ATOM     15  C   UNL     1      52.061   2.559  18.033  0.00  0.00    +0.000 A 
ATOM     16  C   UNL     1      51.968   1.341  17.385  0.00  0.00    +0.000 A 
ATOM     17  C   UNL     1      52.993   0.551  17.938  0.00  0.00    +0.000 A 
ATOM     18  N   UNL     1      53.690   1.203  18.868  0.00  0.00    +0.000 NA
ATOM     19  N   UNL     1      53.106   2.413  18.909  0.00  0.00    +0.000 N 
ATOM     20  H   UNL     1      53.463   3.113  19.553  0.00  0.00    +0.000 HD
ENDBRANCH  12  15
ENDBRANCH  10  11
ENDBRANCH   8  10
ENDBRANCH   2   5
BRANCH   1  21
ATOM     21  C   UNL     1      46.158   5.207  13.292  0.00  0.00    +0.000 C 
BRANCH  21  22
ATOM     22  C   UNL     1      46.118   6.659  12.860  0.00  0.00    +0.000 A 
ATOM     23  C   UNL     1      44.932   7.319  12.571  0.00  0.00    +0.000 A 
ATOM     24  S   UNL     1      45.151   8.961  12.160  0.00  0.00    +0.000 S 
ATOM     25  C   UNL     1      46.838   8.847  12.349  0.00  0.00    +0.000 A 
ATOM     26  N   UNL     1      47.643   9.927  12.172  0.00  0.00    +0.000 NA
ATOM     27  C   UNL     1      48.896   9.698  12.390  0.00  0.00    +0.000 A 
ATOM     28  N   UNL     1      49.419   8.478  12.743  0.00  0.00    +0.000 N 
ATOM     29  C   UNL     1      48.655   7.336  12.838  0.00  0.00    +0.000 A 
ATOM     30  O   UNL     1      49.142   6.220  12.994  0.00  0.00    +0.000 OA
ATOM     31  C   UNL     1      47.229   7.567  12.690  0.00  0.00    +0.000 A 
ATOM     32  H   UNL     1      50.417   8.367  12.862  0.00  0.00    +0.000 HD
ENDBRANCH  21  22
BRANCH  21  34
ATOM     33  N   UNL     1      43.764   4.091  13.241  0.00  0.00    +0.000 NA
ATOM     34  C   UNL     1      44.809   4.595  13.260  0.00  0.00    +0.000 C 
ENDBRANCH  21  34
ENDBRANCH   1  21
TORSDOF 7
ENDMDL
MODEL 6
REMARK VINA RESULT:    -7.164      2.360      2.744
REMARK INTER + INTRA:         -10.771
REMARK INTER:                  -9.894
REMARK INTRA:                  -0.878
REMARK UNBOUND:                -0.675
REMARK  Name = 
REMARK  7 active torsions:
REMARK  status: ('A' for Active; 'I' for Inactive)
REMARK    1  A    between atoms: C_2  and  C_3
REMARK    2  A    between atoms: C_3  and  N_4
REMARK    3  A    between atoms: C_3  and  C_21
REMARK    4  A    between atoms: C_5  and  C_7
REMARK    5  A    between atoms: C_10  and  C_11
REMARK    6  A    between atoms: C_11  and  N_12
REMARK    7  A    between atoms: C_13  and  C_15
REMARK                            x       y       z     vdW  Elec       q    Type
REMARK                         _______ _______ _______ _____ _____    ______ ____
ROOT
ATOM      1  N   UNL     1      47.933   6.428  14.880  0.00  0.00    +0.000 N 
ATOM      2  C   UNL     1      48.112   6.298  13.526  0.00  0.00    +0.000 C 
ATOM      3  O   UNL     1      49.131   6.683  12.958  0.00  0.00    +0.000 OA
ATOM      4  H   UNL     1      47.137   6.006  15.349  0.00  0.00    +0.000 HD
ENDROOT
BRANCH   2   5
ATOM      5  C   UNL     1      46.970   5.666  12.748  0.00  0.00    +0.000 C 
ATOM      6  C   UNL     1      46.197   6.658  11.890  0.00  0.00    +0.000 C 
ATOM      7  C   UNL     1      44.813   6.038  11.700  0.00  0.00    +0.000 C 
ATOM      8  C   UNL     1      44.664   4.922  12.753  0.00  0.00    +0.000 C 
ATOM      9  C   UNL     1      45.902   5.050  13.645  0.00  0.00    +0.000 C 
BRANCH   8  10
ATOM     10  C   UNL     1      44.544   3.539  12.093  0.00  0.00    +0.000 C 
BRANCH  10  11
ATOM     11  N   UNL     1      45.220   3.468  10.812  0.00  0.00    +0.000 N 
ATOM     12  C   UNL     1      44.777   2.661   9.789  0.00  0.00    +0.000 C 
ATOM     13  O   UNL     1      43.776   1.957   9.889  0.00  0.00    +0.000 OA
ATOM     14  H   UNL     1      46.033   4.047  10.665  0.00  0.00    +0.000 HD
BRANCH  12  15
ATOM     15  C   UNL     1      45.570   2.689   8.588  0.00  0.00    +0.000 A 
ATOM     16  C   UNL     1      46.408   1.780   7.970  0.00  0.00    +0.000 A 
ATOM     17  C   UNL     1      46.863   2.430   6.807  0.00  0.00    +0.000 A 
ATOM     18  N   UNL     1      46.364   3.660   6.686  0.00  0.00    +0.000 NA
ATOM     19  N   UNL     1      45.588   3.794   7.776  0.00  0.00    +0.000 N 
ATOM     20  H   UNL     1      45.082   4.662   7.919  0.00  0.00    +0.000 HD
ENDBRANCH  12  15
ENDBRANCH  10  11
ENDBRANCH   8  10
ENDBRANCH   2   5
BRANCH   1  21
ATOM     21  C   UNL     1      48.974   6.983  15.719  0.00  0.00    +0.000 C 
BRANCH  21  22
ATOM     22  C   UNL     1      49.315   6.002  16.822  0.00  0.00    +0.000 A 
ATOM     23  C   UNL     1      48.346   5.387  17.600  0.00  0.00    +0.000 A 
ATOM     24  S   UNL     1      48.984   4.286  18.738  0.00  0.00    +0.000 S 
ATOM     25  C   UNL     1      50.579   4.595  18.233  0.00  0.00    +0.000 A 
ATOM     26  N   UNL     1      51.634   3.945  18.790  0.00  0.00    +0.000 NA
ATOM     27  C   UNL     1      52.780   4.253  18.277  0.00  0.00    +0.000 A 
ATOM     28  N   UNL     1      52.966   5.174  17.274  0.00  0.00    +0.000 N 
ATOM     29  C   UNL     1      51.939   5.926  16.749  0.00  0.00    +0.000 A 
ATOM     30  O   UNL     1      52.126   6.858  15.973  0.00  0.00    +0.000 OA
ATOM     31  C   UNL     1      50.624   5.547  17.233  0.00  0.00    +0.000 A 
ATOM     32  H   UNL     1      53.899   5.389  16.948  0.00  0.00    +0.000 HD
ENDBRANCH  21  22
BRANCH  21  34
ATOM     33  N   UNL     1      48.310   9.353  16.679  0.00  0.00    +0.000 NA
ATOM     34  C   UNL     1      48.612   8.312  16.268  0.00  0.00    +0.000 C 
ENDBRANCH  21  34
ENDBRANCH   1  21
TORSDOF 7
ENDMDL
MODEL 7
REMARK VINA RESULT:    -6.997      2.354      3.649
REMARK INTER + INTRA:         -10.536
REMARK INTER:                  -9.499
REMARK INTRA:                  -1.037
REMARK UNBOUND:                -0.675
REMARK  Name = 
REMARK  7 active torsions:
REMARK  status: ('A' for Active; 'I' for Inactive)
REMARK    1  A    between atoms: C_2  and  C_3
REMARK    2  A    between atoms: C_3  and  N_4
REMARK    3  A    between atoms: C_3  and  C_21
REMARK    4  A    between atoms: C_5  and  C_7
REMARK    5  A    between atoms: C_10  and  C_11
REMARK    6  A    between atoms: C_11  and  N_12
REMARK    7  A    between atoms: C_13  and  C_15
REMARK                            x       y       z     vdW  Elec       q    Type
REMARK                         _______ _______ _______ _____ _____    ______ ____
ROOT
ATOM      1  N   UNL     1      48.276   6.503  16.389  0.00  0.00    +0.000 N 
ATOM      2  C   UNL     1      48.662   7.219  15.284  0.00  0.00    +0.000 C 
ATOM      3  O   UNL     1      49.554   8.063  15.327  0.00  0.00    +0.000 OA
ATOM      4  H   UNL     1      47.617   5.734  16.314  0.00  0.00    +0.000 HD
ENDROOT
BRANCH   2   5
ATOM      5  C   UNL     1      47.914   6.932  13.994  0.00  0.00    +0.000 C 
ATOM      6  C   UNL     1      48.823   6.804  12.779  0.00  0.00    +0.000 C 
ATOM      7  C   UNL     1      47.941   7.134  11.575  0.00  0.00    +0.000 C 
ATOM      8  C   UNL     1      46.673   7.825  12.113  0.00  0.00    +0.000 C 
ATOM      9  C   UNL     1      46.942   8.040  13.605  0.00  0.00    +0.000 C 
BRANCH   8  10
ATOM     10  C   UNL     1      45.417   6.981  11.848  0.00  0.00    +0.000 C 
BRANCH  10  11
ATOM     11  N   UNL     1      45.658   5.894  10.918  0.00  0.00    +0.000 N 
ATOM     12  C   UNL     1      44.649   5.073  10.468  0.00  0.00    +0.000 C 
ATOM     13  O   UNL     1      43.479   5.213  10.814  0.00  0.00    +0.000 OA
ATOM     14  H   UNL     1      46.597   5.751  10.579  0.00  0.00    +0.000 HD
BRANCH  12  15
ATOM     15  C   UNL     1      45.056   4.029   9.564  0.00  0.00    +0.000 A 
ATOM     16  C   UNL     1      45.564   4.016   8.278  0.00  0.00    +0.000 A 
ATOM     17  C   UNL     1      45.767   2.656   7.976  0.00  0.00    +0.000 A 
ATOM     18  N   UNL     1      45.416   1.856   8.982  0.00  0.00    +0.000 NA
ATOM     19  N   UNL     1      44.986   2.709   9.928  0.00  0.00    +0.000 N 
ATOM     20  H   UNL     1      44.660   2.339  10.816  0.00  0.00    +0.000 HD
ENDBRANCH  12  15
ENDBRANCH  10  11
ENDBRANCH   8  10
ENDBRANCH   2   5
BRANCH   1  21
ATOM     21  C   UNL     1      48.949   6.674  17.659  0.00  0.00    +0.000 C 
BRANCH  21  22
ATOM     22  C   UNL     1      50.181   5.793  17.704  0.00  0.00    +0.000 A 
ATOM     23  C   UNL     1      51.446   6.293  17.975  0.00  0.00    +0.000 A 
ATOM     24  S   UNL     1      52.657   5.091  18.021  0.00  0.00    +0.000 S 
ATOM     25  C   UNL     1      51.533   3.861  17.677  0.00  0.00    +0.000 A 
ATOM     26  N   UNL     1      51.914   2.558  17.602  0.00  0.00    +0.000 NA
ATOM     27  C   UNL     1      50.945   1.733  17.374  0.00  0.00    +0.000 A 
ATOM     28  N   UNL     1      49.634   2.098  17.187  0.00  0.00    +0.000 N 
ATOM     29  C   UNL     1      49.220   3.412  17.157  0.00  0.00    +0.000 A 
ATOM     30  O   UNL     1      48.085   3.744  16.831  0.00  0.00    +0.000 OA
ATOM     31  C   UNL     1      50.260   4.366  17.499  0.00  0.00    +0.000 A 
ATOM     32  H   UNL     1      48.936   1.398  16.977  0.00  0.00    +0.000 HD
ENDBRANCH  21  22
BRANCH  21  34
ATOM     33  N   UNL     1      47.378   6.215  19.734  0.00  0.00    +0.000 NA
ATOM     34  C   UNL     1      48.055   6.415  18.814  0.00  0.00    +0.000 C 
ENDBRANCH  21  34
ENDBRANCH   1  21
TORSDOF 7
ENDMDL
MODEL 8
REMARK VINA RESULT:    -6.949      2.540      3.672
REMARK INTER + INTRA:         -10.467
REMARK INTER:                  -9.113
REMARK INTRA:                  -1.354
REMARK UNBOUND:                -0.675
REMARK  Name = 
REMARK  7 active torsions:
REMARK  status: ('A' for Active; 'I' for Inactive)
REMARK    1  A    between atoms: C_2  and  C_3
REMARK    2  A    between atoms: C_3  and  N_4
REMARK    3  A    between atoms: C_3  and  C_21
REMARK    4  A    between atoms: C_5  and  C_7
REMARK    5  A    between atoms: C_10  and  C_11
REMARK    6  A    between atoms: C_11  and  N_12
REMARK    7  A    between atoms: C_13  and  C_15
REMARK                            x       y       z     vdW  Elec       q    Type
REMARK                         _______ _______ _______ _____ _____    ______ ____
ROOT
ATOM      1  N   UNL     1      48.833   7.871  14.006  0.00  0.00    +0.000 N 
ATOM      2  C   UNL     1      48.712   7.851  12.640  0.00  0.00    +0.000 C 
ATOM      3  O   UNL     1      49.605   7.431  11.907  0.00  0.00    +0.000 OA
ATOM      4  H   UNL     1      48.047   8.117  14.601  0.00  0.00    +0.000 HD
ENDROOT
BRANCH   2   5
ATOM      5  C   UNL     1      47.416   8.397  12.064  0.00  0.00    +0.000 C 
ATOM      6  C   UNL     1      47.303   9.913  12.149  0.00  0.00    +0.000 C 
ATOM      7  C   UNL     1      45.805  10.211  12.124  0.00  0.00    +0.000 C 
ATOM      8  C   UNL     1      45.072   8.889  12.426  0.00  0.00    +0.000 C 
ATOM      9  C   UNL     1      46.178   7.898  12.799  0.00  0.00    +0.000 C 
BRANCH   8  10
ATOM     10  C   UNL     1      44.233   8.424  11.226  0.00  0.00    +0.000 C 
BRANCH  10  11
ATOM     11  N   UNL     1      44.327   6.995  10.996  0.00  0.00    +0.000 N 
ATOM     12  C   UNL     1      43.280   6.138  11.248  0.00  0.00    +0.000 C 
ATOM     13  O   UNL     1      42.195   6.527  11.673  0.00  0.00    +0.000 OA
ATOM     14  H   UNL     1      45.187   6.624  10.621  0.00  0.00    +0.000 HD
BRANCH  12  15
ATOM     15  C   UNL     1      43.539   4.747  10.987  0.00  0.00    +0.000 A 
ATOM     16  C   UNL     1      44.357   4.073  10.099  0.00  0.00    +0.000 A 
ATOM     17  C   UNL     1      44.153   2.707  10.374  0.00  0.00    +0.000 A 
ATOM     18  N   UNL     1      43.274   2.514  11.357  0.00  0.00    +0.000 NA
ATOM     19  N   UNL     1      42.915   3.761  11.708  0.00  0.00    +0.000 N 
ATOM     20  H   UNL     1      42.241   3.889  12.457  0.00  0.00    +0.000 HD
ENDBRANCH  12  15
ENDBRANCH  10  11
ENDBRANCH   8  10
ENDBRANCH   2   5
BRANCH   1  21
ATOM     21  C   UNL     1      50.012   7.342  14.657  0.00  0.00    +0.000 C 
BRANCH  21  22
ATOM     22  C   UNL     1      49.634   6.777  16.011  0.00  0.00    +0.000 A 
ATOM     23  C   UNL     1      50.216   7.214  17.192  0.00  0.00    +0.000 A 
ATOM     24  S   UNL     1      49.581   6.459  18.584  0.00  0.00    +0.000 S 
ATOM     25  C   UNL     1      48.508   5.518  17.658  0.00  0.00    +0.000 A 
ATOM     26  N   UNL     1      47.637   4.657  18.247  0.00  0.00    +0.000 NA
ATOM     27  C   UNL     1      46.857   4.042  17.419  0.00  0.00    +0.000 A 
ATOM     28  N   UNL     1      46.890   4.190  16.054  0.00  0.00    +0.000 N 
ATOM     29  C   UNL     1      47.820   4.976  15.409  0.00  0.00    +0.000 A 
ATOM     30  O   UNL     1      47.954   4.983  14.190  0.00  0.00    +0.000 OA
ATOM     31  C   UNL     1      48.656   5.755  16.306  0.00  0.00    +0.000 A 
ATOM     32  H   UNL     1      46.271   3.647  15.468  0.00  0.00    +0.000 HD
ENDBRANCH  21  22
BRANCH  21  34
ATOM     33  N   UNL     1      51.927   9.151  14.859  0.00  0.00    +0.000 NA
ATOM     34  C   UNL     1      51.097   8.346  14.773  0.00  0.00    +0.000 C 
ENDBRANCH  21  34
ENDBRANCH   1  21
TORSDOF 7
ENDMDL
MODEL 9
REMARK VINA RESULT:    -6.740      2.949      4.629
REMARK INTER + INTRA:         -10.173
REMARK INTER:                  -9.012
REMARK INTRA:                  -1.160
REMARK UNBOUND:                -0.675
REMARK  Name = 
REMARK  7 active torsions:
REMARK  status: ('A' for Active; 'I' for Inactive)
REMARK    1  A    between atoms: C_2  and  C_3
REMARK    2  A    between atoms: C_3  and  N_4
REMARK    3  A    between atoms: C_3  and  C_21
REMARK    4  A    between atoms: C_5  and  C_7
REMARK    5  A    between atoms: C_10  and  C_11
REMARK    6  A    between atoms: C_11  and  N_12
REMARK    7  A    between atoms: C_13  and  C_15
REMARK                            x       y       z     vdW  Elec       q    Type
REMARK                         _______ _______ _______ _____ _____    ______ ____
ROOT
ATOM      1  N   UNL     1      48.273   6.449  16.227  0.00  0.00    +0.000 N 
ATOM      2  C   UNL     1      48.866   6.825  15.049  0.00  0.00    +0.000 C 
ATOM      3  O   UNL     1      50.081   6.978  14.944  0.00  0.00    +0.000 OA
ATOM      4  H   UNL     1      47.284   6.220  16.269  0.00  0.00    +0.000 HD
ENDROOT
BRANCH   2   5
ATOM      5  C   UNL     1      47.940   7.068  13.869  0.00  0.00    +0.000 C 
ATOM      6  C   UNL     1      48.621   6.904  12.517  0.00  0.00    +0.000 C 
ATOM      7  C   UNL     1      47.795   7.741  11.542  0.00  0.00    +0.000 C 
ATOM      8  C   UNL     1      46.909   8.680  12.383  0.00  0.00    +0.000 C 
ATOM      9  C   UNL     1      47.383   8.486  13.826  0.00  0.00    +0.000 C 
BRANCH   8  10
ATOM     10  C   UNL     1      45.417   8.363  12.197  0.00  0.00    +0.000 C 
BRANCH  10  11
ATOM     11  N   UNL     1      45.193   7.156  11.425  0.00  0.00    +0.000 N 
ATOM     12  C   UNL     1      44.736   5.990  11.997  0.00  0.00    +0.000 C 
ATOM     13  O   UNL     1      44.479   5.898  13.194  0.00  0.00    +0.000 OA
ATOM     14  H   UNL     1      45.362   7.183  10.430  0.00  0.00    +0.000 HD
BRANCH  12  15
ATOM     15  C   UNL     1      44.585   4.876  11.098  0.00  0.00    +0.000 A 
ATOM     16  C   UNL     1      44.493   3.508  11.273  0.00  0.00    +0.000 A 
ATOM     17  C   UNL     1      44.338   2.980   9.977  0.00  0.00    +0.000 A 
ATOM     18  N   UNL     1      44.334   3.930   9.041  0.00  0.00    +0.000 NA
ATOM     19  N   UNL     1      44.487   5.065   9.744  0.00  0.00    +0.000 N 
ATOM     20  H   UNL     1      44.513   5.953   9.250  0.00  0.00    +0.000 HD
ENDBRANCH  12  15
ENDBRANCH  10  11
ENDBRANCH   8  10
ENDBRANCH   2   5
BRANCH   1  21
ATOM     21  C   UNL     1      49.067   6.158  17.401  0.00  0.00    +0.000 C 
BRANCH  21  22
ATOM     22  C   UNL     1      49.489   4.703  17.382  0.00  0.00    +0.000 A 
ATOM     23  C   UNL     1      48.629   3.681  17.007  0.00  0.00    +0.000 A 
ATOM     24  S   UNL     1      49.359   2.138  17.018  0.00  0.00    +0.000 S 
ATOM     25  C   UNL     1      50.850   2.781  17.527  0.00  0.00    +0.000 A 
ATOM     26  N   UNL     1      51.937   1.986  17.706  0.00  0.00    +0.000 NA
ATOM     27  C   UNL     1      53.009   2.620  18.053  0.00  0.00    +0.000 A 
ATOM     28  N   UNL     1      53.082   3.975  18.266  0.00  0.00    +0.000 N 
ATOM     29  C   UNL     1      51.985   4.805  18.192  0.00  0.00    +0.000 A 
ATOM     30  O   UNL     1      52.016   5.981  18.538  0.00  0.00    +0.000 OA
ATOM     31  C   UNL     1      50.781   4.148  17.716  0.00  0.00    +0.000 A 
ATOM     32  H   UNL     1      53.949   4.396  18.572  0.00  0.00    +0.000 HD
ENDBRANCH  21  22
BRANCH  21  34
ATOM     33  N   UNL     1      47.797   6.783  19.632  0.00  0.00    +0.000 NA
ATOM     34  C   UNL     1      48.366   6.502  18.661  0.00  0.00    +0.000 C 
ENDBRANCH  21  34
ENDBRANCH   1  21
TORSDOF 7
ENDMDL
