MODEL 1
REMARK VINA RESULT:    -8.658      0.000      0.000
REMARK INTER + INTRA:         -13.993
REMARK INTER:                 -13.214
REMARK INTRA:                  -0.779
REMARK UNBOUND:                -0.779
REMARK  Name = 
REMARK  10 active torsions:
REMARK  status: ('A' for Active; 'I' for Inactive)
REMARK    1  A    between atoms: N_1  and  C_2
REMARK    2  A    between atoms: C_2  and  C_3
REMARK    3  A    between atoms: C_2  and  C_20
REMARK    4  A    between atoms: C_3  and  C_4
REMARK    5  A    between atoms: C_7  and  C_8
REMARK    6  A    between atoms: C_8  and  O_9
REMARK    7  A    between atoms: C_8  and  C_10
REMARK    8  A    between atoms: C_10  and  C_11
REMARK    9  A    between atoms: C_11  and  C_12
REMARK   10  A    between atoms: C_20  and  C_22
REMARK                            x       y       z     vdW  Elec       q    Type
REMARK                         _______ _______ _______ _____ _____    ______ ____
ROOT
ATOM      1  C   UNL     1      47.588   5.147  14.700  0.00  0.00    +0.000 C 
ENDROOT
BRANCH   1   2
ATOM      2  C   UNL     1      46.540   4.876  13.645  0.00  0.00    +0.000 A 
ATOM      3  C   UNL     1      46.170   3.562  13.351  0.00  0.00    +0.000 A 
ATOM      4  C   UNL     1      45.262   3.293  12.326  0.00  0.00    +0.000 A 
ATOM      5  C   UNL     1      44.703   4.331  11.566  0.00  0.00    +0.000 A 
ATOM      6  C   UNL     1      45.052   5.652  11.885  0.00  0.00    +0.000 A 
ATOM      7  C   UNL     1      45.962   5.922  12.913  0.00  0.00    +0.000 A 
BRANCH   5   8
ATOM      8  C   UNL     1      43.759   3.994  10.428  0.00  0.00    +0.000 C 
BRANCH   8   9
ATOM      9  O   UNL     1      43.381   5.187   9.737  0.00  0.00    +0.000 OA
ATOM     10  H   UNL     1      44.145   5.491   9.220  0.00  0.00    +0.000 HD
ENDBRANCH   8   9
BRANCH   8  11
ATOM     11  C   UNL     1      44.326   3.016   9.392  0.00  0.00    +0.000 C 
BRANCH  11  12
ATOM     12  C   UNL     1      44.876   3.697   8.136  0.00  0.00    +0.000 C 
BRANCH  12  13
ATOM     13  C   UNL     1      45.985   2.938   7.439  0.00  0.00    +0.000 A 
ATOM     14  C   UNL     1      46.394   1.712   7.964  0.00  0.00    +0.000 A 
ATOM     15  C   UNL     1      47.419   1.002   7.357  0.00  0.00    +0.000 A 
ATOM     16  N   UNL     1      48.047   1.416   6.242  0.00  0.00    +0.000 NA
ATOM     17  C   UNL     1      47.609   2.578   5.712  0.00  0.00    +0.000 A 
ATOM     18  C   UNL     1      46.598   3.360   6.260  0.00  0.00    +0.000 A 
ENDBRANCH  12  13
ENDBRANCH  11  12
ENDBRANCH   8  11
ENDBRANCH   5   8
ENDBRANCH   1   2
BRANCH   1  19
ATOM     19  C   UNL     1      47.492   4.162  15.879  0.00  0.00    +0.000 C 
BRANCH  19  20
ATOM     20  N   UNL     1      48.154   2.884  15.522  0.00  0.00    +0.000 NA
ATOM     21  H   UNL     1      47.453   2.140  15.576  0.00  0.00    +0.000 HD
ATOM     22  H   UNL     1      48.834   2.668  16.259  0.00  0.00    +0.000 HD
ENDBRANCH  19  20
BRANCH  19  23
ATOM     23  C   UNL     1      48.170   4.730  17.146  0.00  0.00    +0.000 C 
ATOM     24  O   UNL     1      47.518   4.822  18.193  0.00  0.00    +0.000 OA
BRANCH  23  25
ATOM     25  C   UNL     1      49.589   5.115  17.136  0.00  0.00    +0.000 A 
ATOM     26  C   UNL     1      49.959   6.413  16.815  0.00  0.00    +0.000 A 
ATOM     27  S   UNL     1      51.639   6.684  16.914  0.00  0.00    +0.000 S 
ATOM     28  C   UNL     1      51.923   5.082  17.420  0.00  0.00    +0.000 A 
ATOM     29  N   UNL     1      53.165   4.656  17.777  0.00  0.00    +0.000 NA
ATOM     30  C   UNL     1      53.212   3.442  18.207  0.00  0.00    +0.000 A 
ATOM     31  N   UNL     1      52.141   2.583  18.237  0.00  0.00    +0.000 N 
ATOM     32  C   UNL     1      50.930   2.914  17.682  0.00  0.00    +0.000 A 
ATOM     33  O   UNL     1      50.099   2.062  17.391  0.00  0.00    +0.000 OA
ATOM     34  C   UNL     1      50.764   4.328  17.412  0.00  0.00    +0.000 A 
ATOM     35  H   UNL     1      52.277   1.608  18.462  0.00  0.00    +0.000 HD
ENDBRANCH  23  25
ENDBRANCH  19  23
ENDBRANCH   1  19
TORSDOF 10
ENDMDL
MODEL 2
REMARK VINA RESULT:    -8.495      2.432      3.278
REMARK INTER + INTRA:         -13.743
REMARK INTER:                 -12.484
REMARK INTRA:                  -1.259
REMARK UNBOUND:                -0.779
REMARK  Name = 
REMARK  10 active torsions:
REMARK  status: ('A' for Active; 'I' for Inactive)
REMARK    1  A    between atoms: N_1  and  C_2
REMARK    2  A    between atoms: C_2  and  C_3
REMARK    3  A    between atoms: C_2  and  C_20
REMARK    4  A    between atoms: C_3  and  C_4
REMARK    5  A    between atoms: C_7  and  C_8
REMARK    6  A    between atoms: C_8  and  O_9
REMARK    7  A    between atoms: C_8  and  C_10
REMARK    8  A    between atoms: C_10  and  C_11
REMARK    9  A    between atoms: C_11  and  C_12
REMARK   10  A    between atoms: C_20  and  C_22
REMARK                            x       y       z     vdW  Elec       q    Type
REMARK                         _______ _______ _______ _____ _____    ______ ____
ROOT
ATOM      1  C   UNL     1      47.845   7.504  13.847  0.00  0.00    +0.000 C 
ENDROOT
BRANCH   1   2
ATOM      2  C   UNL     1      46.921   6.627  13.035  0.00  0.00    +0.000 A 
ATOM      3  C   UNL     1      46.531   7.024  11.753  0.00  0.00    +0.000 A 
ATOM      4  C   UNL     1      45.616   6.263  11.023  0.00  0.00    +0.000 A 
ATOM      5  C   UNL     1      45.065   5.088  11.557  0.00  0.00    +0.000 A 
ATOM      6  C   UNL     1      45.484   4.676  12.831  0.00  0.00    +0.000 A 
ATOM      7  C   UNL     1      46.401   5.438  13.563  0.00  0.00    +0.000 A 
BRANCH   5   8
ATOM      8  C   UNL     1      44.037   4.318  10.752  0.00  0.00    +0.000 C 
BRANCH   8   9
ATOM      9  O   UNL     1      43.284   5.215   9.934  0.00  0.00    +0.000 OA
ATOM     10  H   UNL     1      42.351   4.949   9.973  0.00  0.00    +0.000 HD
ENDBRANCH   8   9
BRANCH   8  11
ATOM     11  C   UNL     1      44.619   3.232   9.838  0.00  0.00    +0.000 C 
BRANCH  11  12
ATOM     12  C   UNL     1      44.861   3.699   8.400  0.00  0.00    +0.000 C 
BRANCH  12  13
ATOM     13  C   UNL     1      45.926   2.925   7.654  0.00  0.00    +0.000 A 
ATOM     14  C   UNL     1      46.240   1.634   8.078  0.00  0.00    +0.000 A 
ATOM     15  C   UNL     1      47.224   0.907   7.424  0.00  0.00    +0.000 A 
ATOM     16  N   UNL     1      47.898   1.368   6.356  0.00  0.00    +0.000 NA
ATOM     17  C   UNL     1      47.551   2.599   5.921  0.00  0.00    +0.000 A 
ATOM     18  C   UNL     1      46.587   3.401   6.523  0.00  0.00    +0.000 A 
ENDBRANCH  12  13
ENDBRANCH  11  12
ENDBRANCH   8  11
ENDBRANCH   5   8
ENDBRANCH   1   2
BRANCH   1  19
ATOM     19  C   UNL     1      49.288   6.970  13.861  0.00  0.00    +0.000 C 
BRANCH  19  20
ATOM     20  N   UNL     1      49.975   7.343  12.601  0.00  0.00    +0.000 NA
ATOM     21  H   UNL     1      50.359   6.489  12.187  0.00  0.00    +0.000 HD
ATOM     22  H   UNL     1      50.792   7.913  12.848  0.00  0.00    +0.000 HD
ENDBRANCH  19  20
BRANCH  19  23
ATOM     23  C   UNL     1      50.092   7.545  15.049  0.00  0.00    +0.000 C 
ATOM     24  O   UNL     1      51.285   7.831  14.891  0.00  0.00    +0.000 OA
BRANCH  23  25
ATOM     25  C   UNL     1      49.448   7.801  16.345  0.00  0.00    +0.000 A 
ATOM     26  C   UNL     1      49.451   9.078  16.887  0.00  0.00    +0.000 A 
ATOM     27  S   UNL     1      48.607   9.190  18.364  0.00  0.00    +0.000 S 
ATOM     28  C   UNL     1      48.185   7.541  18.310  0.00  0.00    +0.000 A 
ATOM     29  N   UNL     1      47.366   6.983  19.244  0.00  0.00    +0.000 NA
ATOM     30  C   UNL     1      47.077   5.745  19.033  0.00  0.00    +0.000 A 
ATOM     31  N   UNL     1      47.597   4.986  18.014  0.00  0.00    +0.000 N 
ATOM     32  C   UNL     1      48.588   5.459  17.190  0.00  0.00    +0.000 A 
ATOM     33  O   UNL     1      49.291   4.704  16.527  0.00  0.00    +0.000 OA
ATOM     34  C   UNL     1      48.766   6.896  17.235  0.00  0.00    +0.000 A 
ATOM     35  H   UNL     1      47.430   3.990  17.985  0.00  0.00    +0.000 HD
ENDBRANCH  23  25
ENDBRANCH  19  23
ENDBRANCH   1  19
TORSDOF 10
ENDMDL
MODEL 3
REMARK VINA RESULT:    -8.373      1.758      2.534
REMARK INTER + INTRA:         -13.557
REMARK INTER:                 -12.155
REMARK INTRA:                  -1.403
REMARK UNBOUND:                -0.779
REMARK  Name = 
REMARK  10 active torsions:
REMARK  status: ('A' for Active; 'I' for Inactive)
REMARK    1  A    between atoms: N_1  and  C_2
REMARK    2  A    between atoms: C_2  and  C_3
REMARK    3  A    between atoms: C_2  and  C_20
REMARK    4  A    between atoms: C_3  and  C_4
REMARK    5  A    between atoms: C_7  and  C_8
REMARK    6  A    between atoms: C_8  and  O_9
REMARK    7  A    between atoms: C_8  and  C_10
REMARK    8  A    between atoms: C_10  and  C_11
REMARK    9  A    between atoms: C_11  and  C_12
REMARK   10  A    between atoms: C_20  and  C_22
REMARK                            x       y       z     vdW  Elec       q    Type
REMARK                         _______ _______ _______ _____ _____    ______ ____
ROOT
ATOM      1  C   UNL     1      47.801   3.735  15.593  0.00  0.00    +0.000 C 
ENDROOT
BRANCH   1   2
ATOM      2  C   UNL     1      47.114   4.141  14.309  0.00  0.00    +0.000 A 
ATOM      3  C   UNL     1      47.152   5.473  13.889  0.00  0.00    +0.000 A 
ATOM      4  C   UNL     1      46.457   5.877  12.748  0.00  0.00    +0.000 A 
ATOM      5  C   UNL     1      45.704   4.960  12.000  0.00  0.00    +0.000 A 
ATOM      6  C   UNL     1      45.694   3.617  12.406  0.00  0.00    +0.000 A 
ATOM      7  C   UNL     1      46.391   3.212  13.550  0.00  0.00    +0.000 A 
BRANCH   5   8
ATOM      8  C   UNL     1      44.922   5.448  10.796  0.00  0.00    +0.000 C 
BRANCH   8   9
ATOM      9  O   UNL     1      44.818   6.874  10.826  0.00  0.00    +0.000 OA
ATOM     10  H   UNL     1      45.642   7.244  10.470  0.00  0.00    +0.000 HD
ENDBRANCH   8   9
BRANCH   8  11
ATOM     11  C   UNL     1      45.520   5.054   9.439  0.00  0.00    +0.000 C 
BRANCH  11  12
ATOM     12  C   UNL     1      44.970   3.738   8.882  0.00  0.00    +0.000 C 
BRANCH  12  13
ATOM     13  C   UNL     1      45.974   2.911   8.107  0.00  0.00    +0.000 A 
ATOM     14  C   UNL     1      45.986   1.528   8.283  0.00  0.00    +0.000 A 
ATOM     15  C   UNL     1      46.905   0.746   7.600  0.00  0.00    +0.000 A 
ATOM     16  N   UNL     1      47.797   1.247   6.726  0.00  0.00    +0.000 NA
ATOM     17  C   UNL     1      47.744   2.581   6.522  0.00  0.00    +0.000 A 
ATOM     18  C   UNL     1      46.864   3.440   7.174  0.00  0.00    +0.000 A 
ENDBRANCH  12  13
ENDBRANCH  11  12
ENDBRANCH   8  11
ENDBRANCH   5   8
ENDBRANCH   1   2
BRANCH   1  19
ATOM     19  C   UNL     1      46.965   4.092  16.835  0.00  0.00    +0.000 C 
BRANCH  19  20
ATOM     20  N   UNL     1      46.591   2.855  17.563  0.00  0.00    +0.000 NA
ATOM     21  H   UNL     1      45.569   2.796  17.578  0.00  0.00    +0.000 HD
ATOM     22  H   UNL     1      46.869   2.973  18.543  0.00  0.00    +0.000 HD
ENDBRANCH  19  20
BRANCH  19  23
ATOM     23  C   UNL     1      47.750   5.011  17.799  0.00  0.00    +0.000 C 
ATOM     24  O   UNL     1      47.134   5.658  18.654  0.00  0.00    +0.000 OA
BRANCH  23  25
ATOM     25  C   UNL     1      49.217   5.088  17.744  0.00  0.00    +0.000 A 
ATOM     26  C   UNL     1      49.992   4.177  18.447  0.00  0.00    +0.000 A 
ATOM     27  S   UNL     1      51.667   4.389  18.215  0.00  0.00    +0.000 S 
ATOM     28  C   UNL     1      51.409   5.687  17.142  0.00  0.00    +0.000 A 
ATOM     29  N   UNL     1      52.440   6.286  16.487  0.00  0.00    +0.000 NA
ATOM     30  C   UNL     1      52.085   7.204  15.655  0.00  0.00    +0.000 A 
ATOM     31  N   UNL     1      50.794   7.636  15.474  0.00  0.00    +0.000 N 
ATOM     32  C   UNL     1      49.766   7.204  16.274  0.00  0.00    +0.000 A 
ATOM     33  O   UNL     1      48.711   7.822  16.359  0.00  0.00    +0.000 OA
ATOM     34  C   UNL     1      50.070   6.016  17.046  0.00  0.00    +0.000 A 
ATOM     35  H   UNL     1      50.604   8.447  14.903  0.00  0.00    +0.000 HD
ENDBRANCH  23  25
ENDBRANCH  19  23
ENDBRANCH   1  19
TORSDOF 10
ENDMDL
MODEL 4
REMARK VINA RESULT:    -8.244      1.944      2.432
REMARK INTER + INTRA:         -13.360
REMARK INTER:                 -12.204
REMARK INTRA:                  -1.156
REMARK UNBOUND:                -0.779
REMARK  Name = 
REMARK  10 active torsions:
REMARK  status: ('A' for Active; 'I' for Inactive)
REMARK    1  A    between atoms: N_1  and  C_2
REMARK    2  A    between atoms: C_2  and  C_3
REMARK    3  A    between atoms: C_2  and  C_20
REMARK    4  A    between atoms: C_3  and  C_4
REMARK    5  A    between atoms: C_7  and  C_8
REMARK    6  A    between atoms: C_8  and  O_9
REMARK    7  A    between atoms: C_8  and  C_10
REMARK    8  A    between atoms: C_10  and  C_11
REMARK    9  A    between atoms: C_11  and  C_12
REMARK   10  A    between atoms: C_20  and  C_22
REMARK                            x       y       z     vdW  Elec       q    Type
REMARK                         _______ _______ _______ _____ _____    ______ ____
ROOT
ATOM      1  C   UNL     1      47.714   7.582  13.819  0.00  0.00    +0.000 C 
ENDROOT
BRANCH   1   2
ATOM      2  C   UNL     1      46.832   6.681  12.984  0.00  0.00    +0.000 A 
ATOM      3  C   UNL     1      46.339   7.131  11.757  0.00  0.00    +0.000 A 
ATOM      4  C   UNL     1      45.461   6.341  11.013  0.00  0.00    +0.000 A 
ATOM      5  C   UNL     1      45.050   5.084  11.479  0.00  0.00    +0.000 A 
ATOM      6  C   UNL     1      45.572   4.622  12.697  0.00  0.00    +0.000 A 
ATOM      7  C   UNL     1      46.452   5.413  13.443  0.00  0.00    +0.000 A 
BRANCH   5   8
ATOM      8  C   UNL     1      44.055   4.278  10.666  0.00  0.00    +0.000 C 
BRANCH   8   9
ATOM      9  O   UNL     1      43.254   5.153   9.868  0.00  0.00    +0.000 OA
ATOM     10  H   UNL     1      42.563   4.623   9.439  0.00  0.00    +0.000 HD
ENDBRANCH   8   9
BRANCH   8  11
ATOM     11  C   UNL     1      44.683   3.238   9.730  0.00  0.00    +0.000 C 
BRANCH  11  12
ATOM     12  C   UNL     1      44.990   3.775   8.329  0.00  0.00    +0.000 C 
BRANCH  12  13
ATOM     13  C   UNL     1      46.015   2.973   7.555  0.00  0.00    +0.000 A 
ATOM     14  C   UNL     1      46.376   1.710   8.026  0.00  0.00    +0.000 A 
ATOM     15  C   UNL     1      47.325   0.960   7.348  0.00  0.00    +0.000 A 
ATOM     16  N   UNL     1      47.919   1.369   6.213  0.00  0.00    +0.000 NA
ATOM     17  C   UNL     1      47.525   2.570   5.736  0.00  0.00    +0.000 A 
ATOM     18  C   UNL     1      46.591   3.393   6.358  0.00  0.00    +0.000 A 
ENDBRANCH  12  13
ENDBRANCH  11  12
ENDBRANCH   8  11
ENDBRANCH   5   8
ENDBRANCH   1   2
BRANCH   1  19
ATOM     19  C   UNL     1      48.978   6.857  14.314  0.00  0.00    +0.000 C 
BRANCH  19  20
ATOM     20  N   UNL     1      50.182   7.473  13.705  0.00  0.00    +0.000 NA
ATOM     21  H   UNL     1      50.054   7.477  12.690  0.00  0.00    +0.000 HD
ATOM     22  H   UNL     1      50.974   6.843  13.874  0.00  0.00    +0.000 HD
ENDBRANCH  19  20
BRANCH  19  23
ATOM     23  C   UNL     1      49.109   6.938  15.852  0.00  0.00    +0.000 C 
ATOM     24  O   UNL     1      48.910   8.018  16.421  0.00  0.00    +0.000 OA
BRANCH  23  25
ATOM     25  C   UNL     1      49.418   5.742  16.649  0.00  0.00    +0.000 A 
ATOM     26  C   UNL     1      48.405   4.877  17.034  0.00  0.00    +0.000 A 
ATOM     27  S   UNL     1      48.963   3.519  17.900  0.00  0.00    +0.000 S 
ATOM     28  C   UNL     1      50.583   4.029  17.761  0.00  0.00    +0.000 A 
ATOM     29  N   UNL     1      51.613   3.263  18.214  0.00  0.00    +0.000 NA
ATOM     30  C   UNL     1      52.784   3.746  17.974  0.00  0.00    +0.000 A 
ATOM     31  N   UNL     1      53.021   4.967  17.393  0.00  0.00    +0.000 N 
ATOM     32  C   UNL     1      52.007   5.852  17.126  0.00  0.00    +0.000 A 
ATOM     33  O   UNL     1      52.222   7.045  16.945  0.00  0.00    +0.000 OA
ATOM     34  C   UNL     1      50.682   5.267  17.154  0.00  0.00    +0.000 A 
ATOM     35  H   UNL     1      53.960   5.339  17.356  0.00  0.00    +0.000 HD
ENDBRANCH  23  25
ENDBRANCH  19  23
ENDBRANCH   1  19
TORSDOF 10
ENDMDL
MODEL 5
REMARK VINA RESULT:    -8.163      2.443      3.417
REMARK INTER + INTRA:         -13.237
REMARK INTER:                 -11.885
REMARK INTRA:                  -1.352
REMARK UNBOUND:                -0.779
REMARK  Name = 
REMARK  10 active torsions:
REMARK  status: ('A' for Active; 'I' for Inactive)
REMARK    1  A    between atoms: N_1  and  C_2
REMARK    2  A    between atoms: C_2  and  C_3
REMARK    3  A    between atoms: C_2  and  C_20
REMARK    4  A    between atoms: C_3  and  C_4
REMARK    5  A    between atoms: C_7  and  C_8
REMARK    6  A    between atoms: C_8  and  O_9
REMARK    7  A    between atoms: C_8  and  C_10
REMARK    8  A    between atoms: C_10  and  C_11
REMARK    9  A    between atoms: C_11  and  C_12
REMARK   10  A    between atoms: C_20  and  C_22
REMARK                            x       y       z     vdW  Elec       q    Type
REMARK                         _______ _______ _______ _____ _____    ______ ____
ROOT
ATOM      1  C   UNL     1      47.604   3.506  15.386  0.00  0.00    +0.000 C 
ENDROOT
BRANCH   1   2
ATOM      2  C   UNL     1      46.935   3.951  14.106  0.00  0.00    +0.000 A 
ATOM      3  C   UNL     1      46.971   5.297  13.731  0.00  0.00    +0.000 A 
ATOM      4  C   UNL     1      46.292   5.735  12.594  0.00  0.00    +0.000 A 
ATOM      5  C   UNL     1      45.556   4.839  11.803  0.00  0.00    +0.000 A 
ATOM      6  C   UNL     1      45.549   3.483  12.164  0.00  0.00    +0.000 A 
ATOM      7  C   UNL     1      46.230   3.044  13.304  0.00  0.00    +0.000 A 
BRANCH   5   8
ATOM      8  C   UNL     1      44.791   5.364  10.603  0.00  0.00    +0.000 C 
BRANCH   8   9
ATOM      9  O   UNL     1      44.620   6.779  10.713  0.00  0.00    +0.000 OA
ATOM     10  H   UNL     1      44.688   7.161   9.823  0.00  0.00    +0.000 HD
ENDBRANCH   8   9
BRANCH   8  11
ATOM     11  C   UNL     1      45.448   5.078   9.247  0.00  0.00    +0.000 C 
BRANCH  11  12
ATOM     12  C   UNL     1      44.837   3.886   8.504  0.00  0.00    +0.000 C 
BRANCH  12  13
ATOM     13  C   UNL     1      45.847   2.933   7.901  0.00  0.00    +0.000 A 
ATOM     14  C   UNL     1      46.744   3.417   6.949  0.00  0.00    +0.000 A 
ATOM     15  C   UNL     1      47.668   2.563   6.366  0.00  0.00    +0.000 A 
ATOM     16  N   UNL     1      47.782   1.263   6.690  0.00  0.00    +0.000 NA
ATOM     17  C   UNL     1      46.944   0.816   7.650  0.00  0.00    +0.000 A 
ATOM     18  C   UNL     1      45.979   1.597   8.277  0.00  0.00    +0.000 A 
ENDBRANCH  12  13
ENDBRANCH  11  12
ENDBRANCH   8  11
ENDBRANCH   5   8
ENDBRANCH   1   2
BRANCH   1  19
ATOM     19  C   UNL     1      47.393   4.513  16.530  0.00  0.00    +0.000 C 
BRANCH  19  20
ATOM     20  N   UNL     1      46.856   3.814  17.724  0.00  0.00    +0.000 NA
ATOM     21  H   UNL     1      47.000   2.810  17.591  0.00  0.00    +0.000 HD
ATOM     22  H   UNL     1      45.838   3.942  17.728  0.00  0.00    +0.000 HD
ENDBRANCH  19  20
BRANCH  19  23
ATOM     23  C   UNL     1      48.716   5.209  16.922  0.00  0.00    +0.000 C 
ATOM     24  O   UNL     1      49.764   4.551  16.941  0.00  0.00    +0.000 OA
BRANCH  23  25
ATOM     25  C   UNL     1      48.754   6.647  17.224  0.00  0.00    +0.000 A 
ATOM     26  C   UNL     1      48.171   7.134  18.385  0.00  0.00    +0.000 A 
ATOM     27  S   UNL     1      48.366   8.814  18.590  0.00  0.00    +0.000 S 
ATOM     28  C   UNL     1      49.265   8.940  17.148  0.00  0.00    +0.000 A 
ATOM     29  N   UNL     1      49.833  10.115  16.763  0.00  0.00    +0.000 NA
ATOM     30  C   UNL     1      50.542  10.040  15.689  0.00  0.00    +0.000 A 
ATOM     31  N   UNL     1      50.671   8.912  14.916  0.00  0.00    +0.000 N 
ATOM     32  C   UNL     1      49.938   7.778  15.161  0.00  0.00    +0.000 A 
ATOM     33  O   UNL     1      49.778   6.916  14.305  0.00  0.00    +0.000 OA
ATOM     34  C   UNL     1      49.324   7.736  16.472  0.00  0.00    +0.000 A 
ATOM     35  H   UNL     1      51.135   8.960  14.020  0.00  0.00    +0.000 HD
ENDBRANCH  23  25
ENDBRANCH  19  23
ENDBRANCH   1  19
TORSDOF 10
ENDMDL
MODEL 6
REMARK VINA RESULT:    -8.097      2.551      3.545
REMARK INTER + INTRA:         -13.136
REMARK INTER:                 -11.764
REMARK INTRA:                  -1.372
REMARK UNBOUND:                -0.779
REMARK  Name = 
REMARK  10 active torsions:
REMARK  status: ('A' for Active; 'I' for Inactive)
REMARK    1  A    between atoms: N_1  and  C_2
REMARK    2  A    between atoms: C_2  and  C_3
REMARK    3  A    between atoms: C_2  and  C_20
REMARK    4  A    between atoms: C_3  and  C_4
REMARK    5  A    between atoms: C_7  and  C_8
REMARK    6  A    between atoms: C_8  and  O_9
REMARK    7  A    between atoms: C_8  and  C_10
REMARK    8  A    between atoms: C_10  and  C_11
REMARK    9  A    between atoms: C_11  and  C_12
REMARK   10  A    between atoms: C_20  and  C_22
REMARK                            x       y       z     vdW  Elec       q    Type
REMARK                         _______ _______ _______ _____ _____    ______ ____
ROOT
ATOM      1  C   UNL     1      47.537   3.610  15.448  0.00  0.00    +0.000 C 
ENDROOT
BRANCH   1   2
ATOM      2  C   UNL     1      46.906   4.030  14.140  0.00  0.00    +0.000 A 
ATOM      3  C   UNL     1      46.928   5.373  13.756  0.00  0.00    +0.000 A 
ATOM      4  C   UNL     1      46.282   5.788  12.590  0.00  0.00    +0.000 A 
ATOM      5  C   UNL     1      45.594   4.871  11.782  0.00  0.00    +0.000 A 
ATOM      6  C   UNL     1      45.600   3.518  12.154  0.00  0.00    +0.000 A 
ATOM      7  C   UNL     1      46.249   3.103  13.321  0.00  0.00    +0.000 A 
BRANCH   5   8
ATOM      8  C   UNL     1      44.861   5.370  10.551  0.00  0.00    +0.000 C 
BRANCH   8   9
ATOM      9  O   UNL     1      44.670   6.784  10.635  0.00  0.00    +0.000 OA
ATOM     10  H   UNL     1      43.749   6.949  10.892  0.00  0.00    +0.000 HD
ENDBRANCH   8   9
BRANCH   8  11
ATOM     11  C   UNL     1      45.565   5.074   9.221  0.00  0.00    +0.000 C 
BRANCH  11  12
ATOM     12  C   UNL     1      44.933   3.926   8.429  0.00  0.00    +0.000 C 
BRANCH  12  13
ATOM     13  C   UNL     1      45.923   3.023   7.725  0.00  0.00    +0.000 A 
ATOM     14  C   UNL     1      46.112   1.727   8.207  0.00  0.00    +0.000 A 
ATOM     15  C   UNL     1      47.025   0.883   7.592  0.00  0.00    +0.000 A 
ATOM     16  N   UNL     1      47.742   1.231   6.509  0.00  0.00    +0.000 NA
ATOM     17  C   UNL     1      47.514   2.468   6.019  0.00  0.00    +0.000 A 
ATOM     18  C   UNL     1      46.628   3.383   6.579  0.00  0.00    +0.000 A 
ENDBRANCH  12  13
ENDBRANCH  11  12
ENDBRANCH   8  11
ENDBRANCH   5   8
ENDBRANCH   1   2
BRANCH   1  19
ATOM     19  C   UNL     1      47.401   4.693  16.532  0.00  0.00    +0.000 C 
BRANCH  19  20
ATOM     20  N   UNL     1      46.837   4.100  17.769  0.00  0.00    +0.000 NA
ATOM     21  H   UNL     1      46.138   3.405  17.494  0.00  0.00    +0.000 HD
ATOM     22  H   UNL     1      46.311   4.834  18.255  0.00  0.00    +0.000 HD
ENDBRANCH  19  20
BRANCH  19  23
ATOM     23  C   UNL     1      48.769   5.328  16.871  0.00  0.00    +0.000 C 
ATOM     24  O   UNL     1      49.660   4.623  17.359  0.00  0.00    +0.000 OA
BRANCH  23  25
ATOM     25  C   UNL     1      49.040   6.743  16.575  0.00  0.00    +0.000 A 
ATOM     26  C   UNL     1      49.788   7.094  15.461  0.00  0.00    +0.000 A 
ATOM     27  S   UNL     1      49.947   8.778  15.253  0.00  0.00    +0.000 S 
ATOM     28  C   UNL     1      48.994   9.092  16.630  0.00  0.00    +0.000 A 
ATOM     29  N   UNL     1      48.646  10.360  16.982  0.00  0.00    +0.000 NA
ATOM     30  C   UNL     1      47.863  10.437  18.003  0.00  0.00    +0.000 A 
ATOM     31  N   UNL     1      47.459   9.364  18.758  0.00  0.00    +0.000 N 
ATOM     32  C   UNL     1      47.966   8.104  18.558  0.00  0.00    +0.000 A 
ATOM     33  O   UNL     1      47.890   7.234  19.418  0.00  0.00    +0.000 OA
ATOM     34  C   UNL     1      48.649   7.930  17.292  0.00  0.00    +0.000 A 
ATOM     35  H   UNL     1      46.953   9.510  19.620  0.00  0.00    +0.000 HD
ENDBRANCH  23  25
ENDBRANCH  19  23
ENDBRANCH   1  19
TORSDOF 10
ENDMDL
MODEL 7
REMARK VINA RESULT:    -7.476      1.740      2.146
REMARK INTER + INTRA:         -12.189
REMARK INTER:                 -11.074
REMARK INTRA:                  -1.115
REMARK UNBOUND:                -0.779
REMARK  Name = 
REMARK  10 active torsions:
REMARK  status: ('A' for Active; 'I' for Inactive)
REMARK    1  A    between atoms: N_1  and  C_2
REMARK    2  A    between atoms: C_2  and  C_3
REMARK    3  A    between atoms: C_2  and  C_20
REMARK    4  A    between atoms: C_3  and  C_4
REMARK    5  A    between atoms: C_7  and  C_8
REMARK    6  A    between atoms: C_8  and  O_9
REMARK    7  A    between atoms: C_8  and  C_10
REMARK    8  A    between atoms: C_10  and  C_11
REMARK    9  A    between atoms: C_11  and  C_12
REMARK   10  A    between atoms: C_20  and  C_22
REMARK                            x       y       z     vdW  Elec       q    Type
REMARK                         _______ _______ _______ _____ _____    ______ ____
ROOT
ATOM      1  C   UNL     1      48.201   5.581  15.330  0.00  0.00    +0.000 C 
ENDROOT
BRANCH   1   2
ATOM      2  C   UNL     1      47.277   5.288  14.171  0.00  0.00    +0.000 A 
ATOM      3  C   UNL     1      46.812   6.333  13.369  0.00  0.00    +0.000 A 
ATOM      4  C   UNL     1      45.896   6.088  12.344  0.00  0.00    +0.000 A 
ATOM      5  C   UNL     1      45.420   4.792  12.097  0.00  0.00    +0.000 A 
ATOM      6  C   UNL     1      45.913   3.740  12.884  0.00  0.00    +0.000 A 
ATOM      7  C   UNL     1      46.831   3.986  13.910  0.00  0.00    +0.000 A 
BRANCH   5   8
ATOM      8  C   UNL     1      44.387   4.575  11.008  0.00  0.00    +0.000 C 
BRANCH   8   9
ATOM      9  O   UNL     1      44.361   5.701  10.128  0.00  0.00    +0.000 OA
ATOM     10  H   UNL     1      45.234   5.777   9.710  0.00  0.00    +0.000 HD
ENDBRANCH   8   9
BRANCH   8  11
ATOM     11  C   UNL     1      44.610   3.321  10.153  0.00  0.00    +0.000 C 
BRANCH  11  12
ATOM     12  C   UNL     1      44.750   3.611   8.656  0.00  0.00    +0.000 C 
BRANCH  12  13
ATOM     13  C   UNL     1      45.853   2.841   7.962  0.00  0.00    +0.000 A 
ATOM     14  C   UNL     1      45.993   1.479   8.230  0.00  0.00    +0.000 A 
ATOM     15  C   UNL     1      47.005   0.751   7.622  0.00  0.00    +0.000 A 
ATOM     16  N   UNL     1      47.871   1.281   6.741  0.00  0.00    +0.000 NA
ATOM     17  C   UNL     1      47.695   2.588   6.449  0.00  0.00    +0.000 A 
ATOM     18  C   UNL     1      46.717   3.395   7.019  0.00  0.00    +0.000 A 
ENDBRANCH  12  13
ENDBRANCH  11  12
ENDBRANCH   8  11
ENDBRANCH   5   8
ENDBRANCH   1   2
BRANCH   1  19
ATOM     19  C   UNL     1      47.876   4.718  16.562  0.00  0.00    +0.000 C 
BRANCH  19  20
ATOM     20  N   UNL     1      48.928   3.689  16.748  0.00  0.00    +0.000 NA
ATOM     21  H   UNL     1      48.748   3.212  17.635  0.00  0.00    +0.000 HD
ATOM     22  H   UNL     1      49.821   4.175  16.879  0.00  0.00    +0.000 HD
ENDBRANCH  19  20
BRANCH  19  23
ATOM     23  C   UNL     1      47.795   5.575  17.846  0.00  0.00    +0.000 C 
ATOM     24  O   UNL     1      46.896   5.354  18.667  0.00  0.00    +0.000 OA
BRANCH  23  25
ATOM     25  C   UNL     1      48.798   6.613  18.127  0.00  0.00    +0.000 A 
ATOM     26  C   UNL     1      48.582   7.921  17.721  0.00  0.00    +0.000 A 
ATOM     27  S   UNL     1      49.826   8.990  18.186  0.00  0.00    +0.000 S 
ATOM     28  C   UNL     1      50.677   7.742  18.974  0.00  0.00    +0.000 A 
ATOM     29  N   UNL     1      51.813   7.991  19.682  0.00  0.00    +0.000 NA
ATOM     30  C   UNL     1      52.306   6.962  20.282  0.00  0.00    +0.000 A 
ATOM     31  N   UNL     1      51.811   5.685  20.175  0.00  0.00    +0.000 N 
ATOM     32  C   UNL     1      50.803   5.369  19.299  0.00  0.00    +0.000 A 
ATOM     33  O   UNL     1      50.597   4.215  18.941  0.00  0.00    +0.000 OA
ATOM     34  C   UNL     1      50.072   6.513  18.794  0.00  0.00    +0.000 A 
ATOM     35  H   UNL     1      52.323   4.907  20.566  0.00  0.00    +0.000 HD
ENDBRANCH  23  25
ENDBRANCH  19  23
ENDBRANCH   1  19
TORSDOF 10
ENDMDL
MODEL 8
REMARK VINA RESULT:    -7.148      3.656      9.000
REMARK INTER + INTRA:         -11.688
REMARK INTER:                 -10.057
REMARK INTRA:                  -1.631
REMARK UNBOUND:                -0.779
REMARK  Name = 
REMARK  10 active torsions:
REMARK  status: ('A' for Active; 'I' for Inactive)
REMARK    1  A    between atoms: N_1  and  C_2
REMARK    2  A    between atoms: C_2  and  C_3
REMARK    3  A    between atoms: C_2  and  C_20
REMARK    4  A    between atoms: C_3  and  C_4
REMARK    5  A    between atoms: C_7  and  C_8
REMARK    6  A    between atoms: C_8  and  O_9
REMARK    7  A    between atoms: C_8  and  C_10
REMARK    8  A    between atoms: C_10  and  C_11
REMARK    9  A    between atoms: C_11  and  C_12
REMARK   10  A    between atoms: C_20  and  C_22
REMARK                            x       y       z     vdW  Elec       q    Type
REMARK                         _______ _______ _______ _____ _____    ______ ____
ROOT
ATOM      1  C   UNL     1      48.416   7.816  13.128  0.00  0.00    +0.000 C 
ENDROOT
BRANCH   1   2
ATOM      2  C   UNL     1      48.939   7.784  14.546  0.00  0.00    +0.000 A 
ATOM      3  C   UNL     1      50.084   7.044  14.851  0.00  0.00    +0.000 A 
ATOM      4  C   UNL     1      50.532   6.942  16.168  0.00  0.00    +0.000 A 
ATOM      5  C   UNL     1      49.846   7.574  17.216  0.00  0.00    +0.000 A 
ATOM      6  C   UNL     1      48.714   8.343  16.902  0.00  0.00    +0.000 A 
ATOM      7  C   UNL     1      48.265   8.446  15.581  0.00  0.00    +0.000 A 
BRANCH   5   8
ATOM      8  C   UNL     1      50.336   7.396  18.640  0.00  0.00    +0.000 C 
BRANCH   8   9
ATOM      9  O   UNL     1      49.457   8.066  19.547  0.00  0.00    +0.000 OA
ATOM     10  H   UNL     1      48.587   7.639  19.493  0.00  0.00    +0.000 HD
ENDBRANCH   8   9
BRANCH   8  11
ATOM     11  C   UNL     1      50.458   5.938  19.100  0.00  0.00    +0.000 C 
BRANCH  11  12
ATOM     12  C   UNL     1      49.155   5.143  18.983  0.00  0.00    +0.000 C 
BRANCH  12  13
ATOM     13  C   UNL     1      49.200   3.996  17.996  0.00  0.00    +0.000 A 
ATOM     14  C   UNL     1      50.370   3.245  17.891  0.00  0.00    +0.000 A 
ATOM     15  C   UNL     1      50.447   2.199  16.983  0.00  0.00    +0.000 A 
ATOM     16  N   UNL     1      49.424   1.830  16.192  0.00  0.00    +0.000 NA
ATOM     17  C   UNL     1      48.278   2.529  16.338  0.00  0.00    +0.000 A 
ATOM     18  C   UNL     1      48.118   3.599  17.212  0.00  0.00    +0.000 A 
ENDBRANCH  12  13
ENDBRANCH  11  12
ENDBRANCH   8  11
ENDBRANCH   5   8
ENDBRANCH   1   2
BRANCH   1  19
ATOM     19  C   UNL     1      47.611   6.552  12.779  0.00  0.00    +0.000 C 
BRANCH  19  20
ATOM     20  N   UNL     1      47.098   5.923  14.021  0.00  0.00    +0.000 NA
ATOM     21  H   UNL     1      46.479   6.596  14.482  0.00  0.00    +0.000 HD
ATOM     22  H   UNL     1      47.891   5.804  14.660  0.00  0.00    +0.000 HD
ENDBRANCH  19  20
BRANCH  19  23
ATOM     23  C   UNL     1      46.410   6.882  11.864  0.00  0.00    +0.000 C 
ATOM     24  O   UNL     1      46.024   8.054  11.769  0.00  0.00    +0.000 OA
BRANCH  23  25
ATOM     25  C   UNL     1      45.754   5.834  11.069  0.00  0.00    +0.000 A 
ATOM     26  C   UNL     1      46.015   5.719   9.712  0.00  0.00    +0.000 A 
ATOM     27  S   UNL     1      45.208   4.411   8.973  0.00  0.00    +0.000 S 
ATOM     28  C   UNL     1      44.508   3.938  10.453  0.00  0.00    +0.000 A 
ATOM     29  N   UNL     1      43.756   2.808  10.557  0.00  0.00    +0.000 NA
ATOM     30  C   UNL     1      43.354   2.541  11.752  0.00  0.00    +0.000 A 
ATOM     31  N   UNL     1      43.567   3.345  12.845  0.00  0.00    +0.000 N 
ATOM     32  C   UNL     1      44.131   4.591  12.730  0.00  0.00    +0.000 A 
ATOM     33  O   UNL     1      44.008   5.438  13.607  0.00  0.00    +0.000 OA
ATOM     34  C   UNL     1      44.805   4.826  11.469  0.00  0.00    +0.000 A 
ATOM     35  H   UNL     1      43.112   3.140  13.724  0.00  0.00    +0.000 HD
ENDBRANCH  23  25
ENDBRANCH  19  23
ENDBRANCH   1  19
TORSDOF 10
ENDMDL
MODEL 9
REMARK VINA RESULT:    -7.105      4.201      8.933
REMARK INTER + INTRA:         -11.623
REMARK INTER:                  -9.615
REMARK INTRA:                  -2.008
REMARK UNBOUND:                -0.779
REMARK  Name = 
REMARK  10 active torsions:
REMARK  status: ('A' for Active; 'I' for Inactive)
REMARK    1  A    between atoms: N_1  and  C_2
REMARK    2  A    between atoms: C_2  and  C_3
REMARK    3  A    between atoms: C_2  and  C_20
REMARK    4  A    between atoms: C_3  and  C_4
REMARK    5  A    between atoms: C_7  and  C_8
REMARK    6  A    between atoms: C_8  and  O_9
REMARK    7  A    between atoms: C_8  and  C_10
REMARK    8  A    between atoms: C_10  and  C_11
REMARK    9  A    between atoms: C_11  and  C_12
REMARK   10  A    between atoms: C_20  and  C_22
REMARK                            x       y       z     vdW  Elec       q    Type
REMARK                         _______ _______ _______ _____ _____    ______ ____
ROOT
ATOM      1  C   UNL     1      48.303   9.431  14.337  0.00  0.00    +0.000 C 
ENDROOT
BRANCH   1   2
ATOM      2  C   UNL     1      48.509   8.771  15.681  0.00  0.00    +0.000 A 
ATOM      3  C   UNL     1      47.918   9.316  16.824  0.00  0.00    +0.000 A 
ATOM      4  C   UNL     1      48.164   8.763  18.082  0.00  0.00    +0.000 A 
ATOM      5  C   UNL     1      49.010   7.654  18.230  0.00  0.00    +0.000 A 
ATOM      6  C   UNL     1      49.576   7.090  17.077  0.00  0.00    +0.000 A 
ATOM      7  C   UNL     1      49.330   7.643  15.816  0.00  0.00    +0.000 A 
BRANCH   5   8
ATOM      8  C   UNL     1      49.291   7.115  19.619  0.00  0.00    +0.000 C 
BRANCH   8   9
ATOM      9  O   UNL     1      48.119   7.217  20.430  0.00  0.00    +0.000 OA
ATOM     10  H   UNL     1      48.367   7.639  21.268  0.00  0.00    +0.000 HD
ENDBRANCH   8   9
BRANCH   8  11
ATOM     11  C   UNL     1      49.758   5.654  19.658  0.00  0.00    +0.000 C 
BRANCH  11  12
ATOM     12  C   UNL     1      48.660   4.645  19.312  0.00  0.00    +0.000 C 
BRANCH  12  13
ATOM     13  C   UNL     1      49.037   3.643  18.242  0.00  0.00    +0.000 A 
ATOM     14  C   UNL     1      48.041   3.158  17.394  0.00  0.00    +0.000 A 
ATOM     15  C   UNL     1      48.354   2.225  16.416  0.00  0.00    +0.000 A 
ATOM     16  N   UNL     1      49.599   1.765  16.203  0.00  0.00    +0.000 NA
ATOM     17  C   UNL     1      50.565   2.279  16.995  0.00  0.00    +0.000 A 
ATOM     18  C   UNL     1      50.340   3.206  18.007  0.00  0.00    +0.000 A 
ENDBRANCH  12  13
ENDBRANCH  11  12
ENDBRANCH   8  11
ENDBRANCH   5   8
ENDBRANCH   1   2
BRANCH   1  19
ATOM     19  C   UNL     1      47.085   8.859  13.591  0.00  0.00    +0.000 C 
BRANCH  19  20
ATOM     20  N   UNL     1      46.514   9.891  12.692  0.00  0.00    +0.000 NA
ATOM     21  H   UNL     1      46.254  10.699  13.265  0.00  0.00    +0.000 HD
ATOM     22  H   UNL     1      45.630   9.528  12.321  0.00  0.00    +0.000 HD
ENDBRANCH  19  20
BRANCH  19  23
ATOM     23  C   UNL     1      47.470   7.626  12.742  0.00  0.00    +0.000 C 
ATOM     24  O   UNL     1      48.370   7.728  11.900  0.00  0.00    +0.000 OA
BRANCH  23  25
ATOM     25  C   UNL     1      46.817   6.327  12.956  0.00  0.00    +0.000 A 
ATOM     26  C   UNL     1      47.550   5.243  13.418  0.00  0.00    +0.000 A 
ATOM     27  S   UNL     1      46.611   3.841  13.659  0.00  0.00    +0.000 S 
ATOM     28  C   UNL     1      45.188   4.647  13.182  0.00  0.00    +0.000 A 
ATOM     29  N   UNL     1      43.970   4.041  13.244  0.00  0.00    +0.000 NA
ATOM     30  C   UNL     1      42.978   4.798  12.920  0.00  0.00    +0.000 A 
ATOM     31  N   UNL     1      43.098   6.087  12.460  0.00  0.00    +0.000 N 
ATOM     32  C   UNL     1      44.320   6.647  12.181  0.00  0.00    +0.000 A 
ATOM     33  O   UNL     1      44.429   7.631  11.459  0.00  0.00    +0.000 OA
ATOM     34  C   UNL     1      45.446   5.934  12.749  0.00  0.00    +0.000 A 
ATOM     35  H   UNL     1      42.290   6.575  12.100  0.00  0.00    +0.000 HD
ENDBRANCH  23  25
ENDBRANCH  19  23
ENDBRANCH   1  19
TORSDOF 10
ENDMDL
