MODEL 1
REMARK VINA RESULT:    -8.879      0.000      0.000
REMARK INTER + INTRA:         -12.214
REMARK INTER:                 -11.475
REMARK INTRA:                  -0.740
REMARK UNBOUND:                -0.740
REMARK  Name = 
REMARK  6 active torsions:
REMARK  status: ('A' for Active; 'I' for Inactive)
REMARK    1  A    between atoms: C_1  and  O_2
REMARK    2  A    between atoms: O_2  and  C_3
REMARK    3  A    between atoms: C_5  and  C_6
REMARK    4  A    between atoms: C_6  and  N_7
REMARK    5  A    between atoms: C_11  and  C_12
REMARK    6  A    between atoms: C_20  and  C_21
REMARK                            x       y       z     vdW  Elec       q    Type
REMARK                         _______ _______ _______ _____ _____    ______ ____
ROOT
ATOM      1  C   UNL     1      44.150   4.768  11.512  0.00  0.00    +0.000 C 
ATOM      2  C   UNL     1      43.187   5.871  11.121  0.00  0.00    +0.000 C 
ATOM      3  C   UNL     1      42.761   4.874  12.146  0.00  0.00    +0.000 C 
ENDROOT
BRANCH   1   4
ATOM      4  N   UNL     1      44.336   3.567  10.698  0.00  0.00    +0.000 N 
ATOM      5  C   UNL     1      45.121   3.420   9.564  0.00  0.00    +0.000 A 
ATOM      6  C   UNL     1      45.701   4.468   8.846  0.00  0.00    +0.000 A 
ATOM      7  N   UNL     1      46.428   4.303   7.705  0.00  0.00    +0.000 NA
ATOM      8  C   UNL     1      46.540   3.010   7.291  0.00  0.00    +0.000 A 
ATOM      9  C   UNL     1      45.970   1.960   7.988  0.00  0.00    +0.000 A 
ATOM     10  N   UNL     1      45.263   2.146   9.133  0.00  0.00    +0.000 NA
ATOM     11  H   UNL     1      44.123   2.656  11.096  0.00  0.00    +0.000 HD
BRANCH   8  12
ATOM     12  C   UNL     1      47.290   2.734   6.036  0.00  0.00    +0.000 C 
ATOM     13  N   UNL     1      48.609   2.400   6.188  0.00  0.00    +0.000 N 
ATOM     14  O   UNL     1      46.767   2.804   4.932  0.00  0.00    +0.000 OA
ATOM     15  H   UNL     1      49.022   2.358   7.112  0.00  0.00    +0.000 HD
ATOM     16  H   UNL     1      49.167   2.211   5.367  0.00  0.00    +0.000 HD
ENDBRANCH   8  12
ENDBRANCH   1   4
BRANCH   1  19
ATOM     17  C   UNL     1      46.725   4.761  14.281  0.00  0.00    +0.000 A 
ATOM     18  C   UNL     1      45.600   4.397  13.580  0.00  0.00    +0.000 A 
ATOM     19  C   UNL     1      45.329   5.114  12.431  0.00  0.00    +0.000 A 
ATOM     20  N   UNL     1      46.126   6.139  12.055  0.00  0.00    +0.000 NA
ATOM     21  C   UNL     1      47.206   6.418  12.803  0.00  0.00    +0.000 A 
ATOM     22  N   UNL     1      47.545   5.755  13.914  0.00  0.00    +0.000 NA
BRANCH  21  23
ATOM     23  C   UNL     1      48.091   7.502  12.344  0.00  0.00    +0.000 A 
ATOM     24  C   UNL     1      47.600   8.807  12.137  0.00  0.00    +0.000 A 
ATOM     25  C   UNL     1      48.431   9.837  11.692  0.00  0.00    +0.000 A 
ATOM     26  C   UNL     1      49.774   9.583  11.441  0.00  0.00    +0.000 A 
ATOM     27 CL   UNL     1      50.799  10.849  10.890  0.00  0.00    +0.000 Cl
ATOM     28  C   UNL     1      50.292   8.306  11.634  0.00  0.00    +0.000 A 
ATOM     29  C   UNL     1      49.457   7.277  12.083  0.00  0.00    +0.000 A 
ENDBRANCH  21  23
BRANCH  17  31
ATOM     30  C   UNL     1      47.845   4.741  16.334  0.00  0.00    +0.000 C 
ATOM     31  O   UNL     1      47.009   4.033  15.420  0.00  0.00    +0.000 OA
ENDBRANCH  17  31
ENDBRANCH   1  19
TORSDOF 5
ENDMDL
MODEL 2
REMARK VINA RESULT:    -7.099      4.658      8.397
REMARK INTER + INTRA:          -9.914
REMARK INTER:                  -9.192
REMARK INTRA:                  -0.722
REMARK UNBOUND:                -0.740
REMARK  Name = 
REMARK  6 active torsions:
REMARK  status: ('A' for Active; 'I' for Inactive)
REMARK    1  A    between atoms: C_1  and  O_2
REMARK    2  A    between atoms: O_2  and  C_3
REMARK    3  A    between atoms: C_5  and  C_6
REMARK    4  A    between atoms: C_6  and  N_7
REMARK    5  A    between atoms: C_11  and  C_12
REMARK    6  A    between atoms: C_20  and  C_21
REMARK                            x       y       z     vdW  Elec       q    Type
REMARK                         _______ _______ _______ _____ _____    ______ ____
ROOT
ATOM      1  C   UNL     1      48.596   4.991  17.496  0.00  0.00    +0.000 C 
ATOM      2  C   UNL     1      47.351   4.184  17.806  0.00  0.00    +0.000 C 
ATOM      3  C   UNL     1      47.537   5.504  18.476  0.00  0.00    +0.000 C 
ENDROOT
BRANCH   1   4
ATOM      4  N   UNL     1      49.888   4.706  18.120  0.00  0.00    +0.000 N 
ATOM      5  C   UNL     1      50.710   3.610  17.912  0.00  0.00    +0.000 A 
ATOM      6  C   UNL     1      50.342   2.445  17.236  0.00  0.00    +0.000 A 
ATOM      7  N   UNL     1      51.152   1.359  17.086  0.00  0.00    +0.000 NA
ATOM      8  C   UNL     1      52.375   1.483  17.672  0.00  0.00    +0.000 A 
ATOM      9  C   UNL     1      52.756   2.628  18.348  0.00  0.00    +0.000 A 
ATOM     10  N   UNL     1      51.938   3.706  18.471  0.00  0.00    +0.000 NA
ATOM     11  H   UNL     1      50.417   5.466  18.541  0.00  0.00    +0.000 HD
BRANCH   8  12
ATOM     12  C   UNL     1      53.317   0.335  17.588  0.00  0.00    +0.000 C 
ATOM     13  N   UNL     1      53.104  -0.682  18.480  0.00  0.00    +0.000 N 
ATOM     14  O   UNL     1      54.231   0.297  16.776  0.00  0.00    +0.000 OA
ATOM     15  H   UNL     1      52.345  -0.624  19.149  0.00  0.00    +0.000 HD
ATOM     16  H   UNL     1      53.720  -1.482  18.472  0.00  0.00    +0.000 HD
ENDBRANCH   8  12
ENDBRANCH   1   4
BRANCH   1  19
ATOM     17  C   UNL     1      49.660   7.218  14.631  0.00  0.00    +0.000 A 
ATOM     18  C   UNL     1      49.652   6.674  15.894  0.00  0.00    +0.000 A 
ATOM     19  C   UNL     1      48.676   5.733  16.155  0.00  0.00    +0.000 A 
ATOM     20  N   UNL     1      47.766   5.404  15.211  0.00  0.00    +0.000 NA
ATOM     21  C   UNL     1      47.857   5.986  14.005  0.00  0.00    +0.000 A 
ATOM     22  N   UNL     1      48.786   6.888  13.670  0.00  0.00    +0.000 NA
BRANCH  21  23
ATOM     23  C   UNL     1      46.889   5.571  12.974  0.00  0.00    +0.000 A 
ATOM     24  C   UNL     1      46.137   4.388  13.113  0.00  0.00    +0.000 A 
ATOM     25  C   UNL     1      45.226   3.983  12.135  0.00  0.00    +0.000 A 
ATOM     26  C   UNL     1      45.050   4.754  10.992  0.00  0.00    +0.000 A 
ATOM     27 CL   UNL     1      43.931   4.258   9.785  0.00  0.00    +0.000 Cl
ATOM     28  C   UNL     1      45.777   5.929  10.822  0.00  0.00    +0.000 A 
ATOM     29  C   UNL     1      46.687   6.332  11.806  0.00  0.00    +0.000 A 
ENDBRANCH  21  23
BRANCH  17  31
ATOM     30  C   UNL     1      50.540   8.699  13.050  0.00  0.00    +0.000 C 
ATOM     31  O   UNL     1      50.647   8.146  14.361  0.00  0.00    +0.000 OA
ENDBRANCH  17  31
ENDBRANCH   1  19
TORSDOF 5
ENDMDL
MODEL 3
REMARK VINA RESULT:    -6.816      3.948      7.774
REMARK INTER + INTRA:          -9.548
REMARK INTER:                  -9.724
REMARK INTRA:                   0.176
REMARK UNBOUND:                -0.740
REMARK  Name = 
REMARK  6 active torsions:
REMARK  status: ('A' for Active; 'I' for Inactive)
REMARK    1  A    between atoms: C_1  and  O_2
REMARK    2  A    between atoms: O_2  and  C_3
REMARK    3  A    between atoms: C_5  and  C_6
REMARK    4  A    between atoms: C_6  and  N_7
REMARK    5  A    between atoms: C_11  and  C_12
REMARK    6  A    between atoms: C_20  and  C_21
REMARK                            x       y       z     vdW  Elec       q    Type
REMARK                         _______ _______ _______ _____ _____    ______ ____
ROOT
ATOM      1  C   UNL     1      48.806   8.258  13.026  0.00  0.00    +0.000 C 
ATOM      2  C   UNL     1      49.773   9.107  12.225  0.00  0.00    +0.000 C 
ATOM      3  C   UNL     1      49.894   7.621  12.158  0.00  0.00    +0.000 C 
ENDROOT
BRANCH   1   4
ATOM      4  N   UNL     1      48.977   8.017  14.458  0.00  0.00    +0.000 N 
ATOM      5  C   UNL     1      48.681   6.865  15.169  0.00  0.00    +0.000 A 
ATOM      6  C   UNL     1      47.934   5.789  14.684  0.00  0.00    +0.000 A 
ATOM      7  N   UNL     1      47.613   4.687  15.418  0.00  0.00    +0.000 NA
ATOM      8  C   UNL     1      48.068   4.714  16.702  0.00  0.00    +0.000 A 
ATOM      9  C   UNL     1      48.806   5.772  17.201  0.00  0.00    +0.000 A 
ATOM     10  N   UNL     1      49.129   6.853  16.445  0.00  0.00    +0.000 NA
ATOM     11  H   UNL     1      49.620   8.600  14.988  0.00  0.00    +0.000 HD
BRANCH   8  12
ATOM     12  C   UNL     1      47.739   3.566  17.590  0.00  0.00    +0.000 C 
ATOM     13  N   UNL     1      48.650   3.290  18.573  0.00  0.00    +0.000 N 
ATOM     14  O   UNL     1      46.718   2.905  17.453  0.00  0.00    +0.000 OA
ATOM     15  H   UNL     1      49.492   3.846  18.661  0.00  0.00    +0.000 HD
ATOM     16  H   UNL     1      48.480   2.515  19.199  0.00  0.00    +0.000 HD
ENDBRANCH   8  12
ENDBRANCH   1   4
BRANCH   1  19
ATOM     17  C   UNL     1      45.221   8.892  12.002  0.00  0.00    +0.000 A 
ATOM     18  C   UNL     1      46.455   9.136  12.556  0.00  0.00    +0.000 A 
ATOM     19  C   UNL     1      47.368   8.101  12.512  0.00  0.00    +0.000 A 
ATOM     20  N   UNL     1      47.029   6.907  11.976  0.00  0.00    +0.000 NA
ATOM     21  C   UNL     1      45.800   6.765  11.455  0.00  0.00    +0.000 A 
ATOM     22  N   UNL     1      44.871   7.727  11.440  0.00  0.00    +0.000 NA
BRANCH  21  23
ATOM     23  C   UNL     1      45.472   5.473  10.826  0.00  0.00    +0.000 A 
ATOM     24  C   UNL     1      45.004   4.387  11.592  0.00  0.00    +0.000 A 
ATOM     25  C   UNL     1      44.702   3.157  11.004  0.00  0.00    +0.000 A 
ATOM     26  C   UNL     1      44.863   2.986   9.634  0.00  0.00    +0.000 A 
ATOM     27 CL   UNL     1      44.494   1.472   8.907  0.00  0.00    +0.000 Cl
ATOM     28  C   UNL     1      45.324   4.039   8.848  0.00  0.00    +0.000 A 
ATOM     29  C   UNL     1      45.623   5.270   9.440  0.00  0.00    +0.000 A 
ENDBRANCH  21  23
BRANCH  17  31
ATOM     30  C   UNL     1      43.521  10.004  10.842  0.00  0.00    +0.000 C 
ATOM     31  O   UNL     1      44.312   9.933  12.027  0.00  0.00    +0.000 OA
ENDBRANCH  17  31
ENDBRANCH   1  19
TORSDOF 5
ENDMDL
MODEL 4
REMARK VINA RESULT:    -6.559      3.851      7.613
REMARK INTER + INTRA:          -9.216
REMARK INTER:                  -8.558
REMARK INTRA:                  -0.658
REMARK UNBOUND:                -0.740
REMARK  Name = 
REMARK  6 active torsions:
REMARK  status: ('A' for Active; 'I' for Inactive)
REMARK    1  A    between atoms: C_1  and  O_2
REMARK    2  A    between atoms: O_2  and  C_3
REMARK    3  A    between atoms: C_5  and  C_6
REMARK    4  A    between atoms: C_6  and  N_7
REMARK    5  A    between atoms: C_11  and  C_12
REMARK    6  A    between atoms: C_20  and  C_21
REMARK                            x       y       z     vdW  Elec       q    Type
REMARK                         _______ _______ _______ _____ _____    ______ ____
ROOT
ATOM      1  C   UNL     1      48.525   5.230  17.491  0.00  0.00    +0.000 C 
ATOM      2  C   UNL     1      47.455   4.965  18.530  0.00  0.00    +0.000 C 
ATOM      3  C   UNL     1      47.902   6.369  18.301  0.00  0.00    +0.000 C 
ENDROOT
BRANCH   1   4
ATOM      4  N   UNL     1      49.947   5.022  17.761  0.00  0.00    +0.000 N 
ATOM      5  C   UNL     1      50.673   3.846  17.647  0.00  0.00    +0.000 A 
ATOM      6  C   UNL     1      50.123   2.575  17.475  0.00  0.00    +0.000 A 
ATOM      7  N   UNL     1      50.854   1.426  17.414  0.00  0.00    +0.000 NA
ATOM      8  C   UNL     1      52.197   1.606  17.553  0.00  0.00    +0.000 A 
ATOM      9  C   UNL     1      52.759   2.858  17.727  0.00  0.00    +0.000 A 
ATOM     10  N   UNL     1      52.012   3.991  17.768  0.00  0.00    +0.000 NA
ATOM     11  H   UNL     1      50.575   5.822  17.771  0.00  0.00    +0.000 HD
BRANCH   8  12
ATOM     12  C   UNL     1      53.075   0.405  17.531  0.00  0.00    +0.000 C 
ATOM     13  N   UNL     1      52.827  -0.536  18.494  0.00  0.00    +0.000 N 
ATOM     14  O   UNL     1      53.968   0.263  16.707  0.00  0.00    +0.000 OA
ATOM     15  H   UNL     1      52.087  -0.392  19.171  0.00  0.00    +0.000 HD
ATOM     16  H   UNL     1      53.400  -1.368  18.530  0.00  0.00    +0.000 HD
ENDBRANCH   8  12
ENDBRANCH   1   4
BRANCH   1  19
ATOM     17  C   UNL     1      47.068   4.233  14.147  0.00  0.00    +0.000 A 
ATOM     18  C   UNL     1      47.415   4.129  15.473  0.00  0.00    +0.000 A 
ATOM     19  C   UNL     1      48.136   5.179  16.007  0.00  0.00    +0.000 A 
ATOM     20  N   UNL     1      48.500   6.227  15.235  0.00  0.00    +0.000 NA
ATOM     21  C   UNL     1      48.111   6.241  13.950  0.00  0.00    +0.000 A 
ATOM     22  N   UNL     1      47.393   5.274  13.368  0.00  0.00    +0.000 NA
BRANCH  21  23
ATOM     23  C   UNL     1      48.470   7.420  13.143  0.00  0.00    +0.000 A 
ATOM     24  C   UNL     1      47.679   8.587  13.162  0.00  0.00    +0.000 A 
ATOM     25  C   UNL     1      48.008   9.703  12.391  0.00  0.00    +0.000 A 
ATOM     26  C   UNL     1      49.137   9.676  11.579  0.00  0.00    +0.000 A 
ATOM     27 CL   UNL     1      49.543  11.049  10.627  0.00  0.00    +0.000 Cl
ATOM     28  C   UNL     1      49.939   8.540  11.536  0.00  0.00    +0.000 A 
ATOM     29  C   UNL     1      49.608   7.424  12.313  0.00  0.00    +0.000 A 
ENDBRANCH  21  23
BRANCH  17  31
ATOM     30  C   UNL     1      45.491   3.607  12.537  0.00  0.00    +0.000 C 
ATOM     31  O   UNL     1      46.330   3.193  13.615  0.00  0.00    +0.000 OA
ENDBRANCH  17  31
ENDBRANCH   1  19
TORSDOF 5
ENDMDL
MODEL 5
REMARK VINA RESULT:    -6.457      4.228      7.039
REMARK INTER + INTRA:          -9.084
REMARK INTER:                  -8.338
REMARK INTRA:                  -0.745
REMARK UNBOUND:                -0.740
REMARK  Name = 
REMARK  6 active torsions:
REMARK  status: ('A' for Active; 'I' for Inactive)
REMARK    1  A    between atoms: C_1  and  O_2
REMARK    2  A    between atoms: O_2  and  C_3
REMARK    3  A    between atoms: C_5  and  C_6
REMARK    4  A    between atoms: C_6  and  N_7
REMARK    5  A    between atoms: C_11  and  C_12
REMARK    6  A    between atoms: C_20  and  C_21
REMARK                            x       y       z     vdW  Elec       q    Type
REMARK                         _______ _______ _______ _____ _____    ______ ____
ROOT
ATOM      1  C   UNL     1      48.930   7.631  14.634  0.00  0.00    +0.000 C 
ATOM      2  C   UNL     1      50.215   7.760  13.841  0.00  0.00    +0.000 C 
ATOM      3  C   UNL     1      49.641   8.978  14.484  0.00  0.00    +0.000 C 
ENDROOT
BRANCH   1   4
ATOM      4  N   UNL     1      47.616   7.583  13.993  0.00  0.00    +0.000 N 
ATOM      5  C   UNL     1      46.894   6.462  13.613  0.00  0.00    +0.000 A 
ATOM      6  C   UNL     1      47.399   5.162  13.556  0.00  0.00    +0.000 A 
ATOM      7  N   UNL     1      46.685   4.081  13.131  0.00  0.00    +0.000 NA
ATOM      8  C   UNL     1      45.413   4.367  12.737  0.00  0.00    +0.000 A 
ATOM      9  C   UNL     1      44.898   5.650  12.783  0.00  0.00    +0.000 A 
ATOM     10  N   UNL     1      45.623   6.709  13.226  0.00  0.00    +0.000 NA
ATOM     11  H   UNL     1      47.001   8.391  14.055  0.00  0.00    +0.000 HD
BRANCH   8  12
ATOM     12  C   UNL     1      44.567   3.255  12.227  0.00  0.00    +0.000 C 
ATOM     13  N   UNL     1      44.864   2.804  10.970  0.00  0.00    +0.000 N 
ATOM     14  O   UNL     1      43.656   2.771  12.886  0.00  0.00    +0.000 OA
ATOM     15  H   UNL     1      45.617   3.226  10.439  0.00  0.00    +0.000 HD
ATOM     16  H   UNL     1      44.314   2.055  10.571  0.00  0.00    +0.000 HD
ENDBRANCH   8  12
ENDBRANCH   1   4
BRANCH   1  19
ATOM     17  C   UNL     1      48.340   6.795  18.275  0.00  0.00    +0.000 A 
ATOM     18  C   UNL     1      48.254   7.490  17.092  0.00  0.00    +0.000 A 
ATOM     19  C   UNL     1      48.990   6.999  16.032  0.00  0.00    +0.000 A 
ATOM     20  N   UNL     1      49.773   5.908  16.184  0.00  0.00    +0.000 NA
ATOM     21  C   UNL     1      49.789   5.293  17.377  0.00  0.00    +0.000 A 
ATOM     22  N   UNL     1      49.087   5.696  18.443  0.00  0.00    +0.000 NA
BRANCH  21  23
ATOM     23  C   UNL     1      50.606   4.073  17.505  0.00  0.00    +0.000 A 
ATOM     24  C   UNL     1      51.958   4.138  17.897  0.00  0.00    +0.000 A 
ATOM     25  C   UNL     1      52.741   2.988  18.008  0.00  0.00    +0.000 A 
ATOM     26  C   UNL     1      52.187   1.744  17.728  0.00  0.00    +0.000 A 
ATOM     27 CL   UNL     1      53.149   0.325  17.863  0.00  0.00    +0.000 Cl
ATOM     28  C   UNL     1      50.855   1.644  17.338  0.00  0.00    +0.000 A 
ATOM     29  C   UNL     1      50.073   2.799  17.229  0.00  0.00    +0.000 A 
ENDBRANCH  21  23
BRANCH  17  31
ATOM     30  C   UNL     1      47.770   6.512  20.525  0.00  0.00    +0.000 C 
ATOM     31  O   UNL     1      47.590   7.273  19.332  0.00  0.00    +0.000 OA
ENDBRANCH  17  31
ENDBRANCH   1  19
TORSDOF 5
ENDMDL
MODEL 6
REMARK VINA RESULT:    -6.422      4.159      8.501
REMARK INTER + INTRA:          -9.039
REMARK INTER:                  -8.325
REMARK INTRA:                  -0.714
REMARK UNBOUND:                -0.740
REMARK  Name = 
REMARK  6 active torsions:
REMARK  status: ('A' for Active; 'I' for Inactive)
REMARK    1  A    between atoms: C_1  and  O_2
REMARK    2  A    between atoms: O_2  and  C_3
REMARK    3  A    between atoms: C_5  and  C_6
REMARK    4  A    between atoms: C_6  and  N_7
REMARK    5  A    between atoms: C_11  and  C_12
REMARK    6  A    between atoms: C_20  and  C_21
REMARK                            x       y       z     vdW  Elec       q    Type
REMARK                         _______ _______ _______ _____ _____    ______ ____
ROOT
ATOM      1  C   UNL     1      49.208   8.120  12.620  0.00  0.00    +0.000 C 
ATOM      2  C   UNL     1      49.942   9.398  12.267  0.00  0.00    +0.000 C 
ATOM      3  C   UNL     1      50.172   8.183  11.433  0.00  0.00    +0.000 C 
ENDROOT
BRANCH   1   4
ATOM      4  N   UNL     1      49.653   7.235  13.696  0.00  0.00    +0.000 N 
ATOM      5  C   UNL     1      49.327   7.298  15.042  0.00  0.00    +0.000 A 
ATOM      6  C   UNL     1      48.693   8.374  15.665  0.00  0.00    +0.000 A 
ATOM      7  N   UNL     1      48.426   8.436  17.001  0.00  0.00    +0.000 NA
ATOM      8  C   UNL     1      48.848   7.352  17.709  0.00  0.00    +0.000 A 
ATOM      9  C   UNL     1      49.480   6.278  17.109  0.00  0.00    +0.000 A 
ATOM     10  N   UNL     1      49.721   6.231  15.773  0.00  0.00    +0.000 NA
ATOM     11  H   UNL     1      50.010   6.310  13.465  0.00  0.00    +0.000 HD
BRANCH   8  12
ATOM     12  C   UNL     1      48.628   7.343  19.181  0.00  0.00    +0.000 C 
ATOM     13  N   UNL     1      47.617   6.538  19.630  0.00  0.00    +0.000 N 
ATOM     14  O   UNL     1      49.305   8.014  19.947  0.00  0.00    +0.000 OA
ATOM     15  H   UNL     1      47.064   5.997  18.975  0.00  0.00    +0.000 HD
ATOM     16  H   UNL     1      47.419   6.500  20.621  0.00  0.00    +0.000 HD
ENDBRANCH   8  12
ENDBRANCH   1   4
BRANCH   1  19
ATOM     17  C   UNL     1      45.553   8.860  11.992  0.00  0.00    +0.000 A 
ATOM     18  C   UNL     1      46.846   9.065  12.411  0.00  0.00    +0.000 A 
ATOM     19  C   UNL     1      47.720   8.006  12.264  0.00  0.00    +0.000 A 
ATOM     20  N   UNL     1      47.293   6.826  11.762  0.00  0.00    +0.000 NA
ATOM     21  C   UNL     1      46.011   6.722  11.375  0.00  0.00    +0.000 A 
ATOM     22  N   UNL     1      45.113   7.709  11.466  0.00  0.00    +0.000 NA
BRANCH  21  23
ATOM     23  C   UNL     1      45.582   5.444  10.779  0.00  0.00    +0.000 A 
ATOM     24  C   UNL     1      45.063   4.404  11.576  0.00  0.00    +0.000 A 
ATOM     25  C   UNL     1      44.665   3.188  11.019  0.00  0.00    +0.000 A 
ATOM     26  C   UNL     1      44.778   2.983   9.649  0.00  0.00    +0.000 A 
ATOM     27 CL   UNL     1      44.290   1.486   8.960  0.00  0.00    +0.000 Cl
ATOM     28  C   UNL     1      45.286   3.989   8.832  0.00  0.00    +0.000 A 
ATOM     29  C   UNL     1      45.682   5.208   9.394  0.00  0.00    +0.000 A 
ENDBRANCH  21  23
BRANCH  17  31
ATOM     30  C   UNL     1      43.678   9.941  11.106  0.00  0.00    +0.000 C 
ATOM     31  O   UNL     1      44.682   9.924  12.120  0.00  0.00    +0.000 OA
ENDBRANCH  17  31
ENDBRANCH   1  19
TORSDOF 5
ENDMDL
MODEL 7
REMARK VINA RESULT:    -6.335      4.691      8.568
REMARK INTER + INTRA:          -8.927
REMARK INTER:                  -8.129
REMARK INTRA:                  -0.798
REMARK UNBOUND:                -0.740
REMARK  Name = 
REMARK  6 active torsions:
REMARK  status: ('A' for Active; 'I' for Inactive)
REMARK    1  A    between atoms: C_1  and  O_2
REMARK    2  A    between atoms: O_2  and  C_3
REMARK    3  A    between atoms: C_5  and  C_6
REMARK    4  A    between atoms: C_6  and  N_7
REMARK    5  A    between atoms: C_11  and  C_12
REMARK    6  A    between atoms: C_20  and  C_21
REMARK                            x       y       z     vdW  Elec       q    Type
REMARK                         _______ _______ _______ _____ _____    ______ ____
ROOT
ATOM      1  C   UNL     1      49.397   6.650  17.267  0.00  0.00    +0.000 C 
ATOM      2  C   UNL     1      48.132   6.554  18.096  0.00  0.00    +0.000 C 
ATOM      3  C   UNL     1      48.911   7.826  18.118  0.00  0.00    +0.000 C 
ENDROOT
BRANCH   1   4
ATOM      4  N   UNL     1      50.670   6.086  17.713  0.00  0.00    +0.000 N 
ATOM      5  C   UNL     1      51.086   4.765  17.647  0.00  0.00    +0.000 A 
ATOM      6  C   UNL     1      50.263   3.676  17.353  0.00  0.00    +0.000 A 
ATOM      7  N   UNL     1      50.684   2.380  17.342  0.00  0.00    +0.000 NA
ATOM      8  C   UNL     1      51.997   2.212  17.664  0.00  0.00    +0.000 A 
ATOM      9  C   UNL     1      52.826   3.278  17.960  0.00  0.00    +0.000 A 
ATOM     10  N   UNL     1      52.389   4.564  17.949  0.00  0.00    +0.000 NA
ATOM     11  H   UNL     1      51.472   6.700  17.837  0.00  0.00    +0.000 HD
BRANCH   8  12
ATOM     12  C   UNL     1      52.540   0.827  17.708  0.00  0.00    +0.000 C 
ATOM     13  N   UNL     1      51.738  -0.112  18.297  0.00  0.00    +0.000 N 
ATOM     14  O   UNL     1      53.638   0.540  17.250  0.00  0.00    +0.000 OA
ATOM     15  H   UNL     1      50.836   0.151  18.677  0.00  0.00    +0.000 HD
ATOM     16  H   UNL     1      52.062  -1.067  18.362  0.00  0.00    +0.000 HD
ENDBRANCH   8  12
ENDBRANCH   1   4
BRANCH   1  19
ATOM     17  C   UNL     1      49.976   7.620  13.658  0.00  0.00    +0.000 A 
ATOM     18  C   UNL     1      50.157   7.594  15.020  0.00  0.00    +0.000 A 
ATOM     19  C   UNL     1      49.267   6.829  15.748  0.00  0.00    +0.000 A 
ATOM     20  N   UNL     1      48.257   6.176  15.133  0.00  0.00    +0.000 NA
ATOM     21  C   UNL     1      48.163   6.257  13.796  0.00  0.00    +0.000 A 
ATOM     22  N   UNL     1      48.999   6.959  13.022  0.00  0.00    +0.000 NA
BRANCH  21  23
ATOM     23  C   UNL     1      47.088   5.491  13.140  0.00  0.00    +0.000 A 
ATOM     24  C   UNL     1      46.783   4.175  13.539  0.00  0.00    +0.000 A 
ATOM     25  C   UNL     1      45.773   3.439  12.915  0.00  0.00    +0.000 A 
ATOM     26  C   UNL     1      45.046   4.006  11.874  0.00  0.00    +0.000 A 
ATOM     27 CL   UNL     1      43.804   3.103  11.102  0.00  0.00    +0.000 Cl
ATOM     28  C   UNL     1      45.322   5.304  11.455  0.00  0.00    +0.000 A 
ATOM     29  C   UNL     1      46.333   6.039  12.085  0.00  0.00    +0.000 A 
ENDBRANCH  21  23
BRANCH  17  31
ATOM     30  C   UNL     1      50.311   9.583  12.432  0.00  0.00    +0.000 C 
ATOM     31  O   UNL     1      50.876   8.369  12.925  0.00  0.00    +0.000 OA
ENDBRANCH  17  31
ENDBRANCH   1  19
TORSDOF 5
ENDMDL
MODEL 8
REMARK VINA RESULT:    -5.962      3.660      5.698
REMARK INTER + INTRA:          -8.445
REMARK INTER:                  -7.739
REMARK INTRA:                  -0.706
REMARK UNBOUND:                -0.740
REMARK  Name = 
REMARK  6 active torsions:
REMARK  status: ('A' for Active; 'I' for Inactive)
REMARK    1  A    between atoms: C_1  and  O_2
REMARK    2  A    between atoms: O_2  and  C_3
REMARK    3  A    between atoms: C_5  and  C_6
REMARK    4  A    between atoms: C_6  and  N_7
REMARK    5  A    between atoms: C_11  and  C_12
REMARK    6  A    between atoms: C_20  and  C_21
REMARK                            x       y       z     vdW  Elec       q    Type
REMARK                         _______ _______ _______ _____ _____    ______ ____
ROOT
ATOM      1  C   UNL     1      46.130   8.922  12.249  0.00  0.00    +0.000 C 
ATOM      2  C   UNL     1      45.743   9.778  11.061  0.00  0.00    +0.000 C 
ATOM      3  C   UNL     1      45.662  10.368  12.429  0.00  0.00    +0.000 C 
ENDROOT
BRANCH   1   4
ATOM      4  N   UNL     1      45.223   7.931  12.828  0.00  0.00    +0.000 N 
ATOM      5  C   UNL     1      44.943   6.656  12.361  0.00  0.00    +0.000 A 
ATOM      6  C   UNL     1      45.303   6.163  11.105  0.00  0.00    +0.000 A 
ATOM      7  N   UNL     1      44.975   4.922  10.647  0.00  0.00    +0.000 NA
ATOM      8  C   UNL     1      44.235   4.179  11.517  0.00  0.00    +0.000 A 
ATOM      9  C   UNL     1      43.867   4.652  12.764  0.00  0.00    +0.000 A 
ATOM     10  N   UNL     1      44.220   5.887  13.206  0.00  0.00    +0.000 NA
ATOM     11  H   UNL     1      44.953   8.013  13.805  0.00  0.00    +0.000 HD
BRANCH   8  12
ATOM     12  C   UNL     1      43.802   2.820  11.092  0.00  0.00    +0.000 C 
ATOM     13  N   UNL     1      44.465   2.289  10.020  0.00  0.00    +0.000 N 
ATOM     14  O   UNL     1      42.906   2.212  11.662  0.00  0.00    +0.000 OA
ATOM     15  H   UNL     1      45.198   2.816   9.559  0.00  0.00    +0.000 HD
ATOM     16  H   UNL     1      44.205   1.372   9.684  0.00  0.00    +0.000 HD
ENDBRANCH   8  12
ENDBRANCH   1   4
BRANCH   1  19
ATOM     17  C   UNL     1      49.909   8.947  12.093  0.00  0.00    +0.000 A 
ATOM     18  C   UNL     1      48.611   9.188  11.709  0.00  0.00    +0.000 A 
ATOM     19  C   UNL     1      47.620   8.667  12.517  0.00  0.00    +0.000 A 
ATOM     20  N   UNL     1      47.935   7.932  13.606  0.00  0.00    +0.000 NA
ATOM     21  C   UNL     1      49.233   7.754  13.904  0.00  0.00    +0.000 A 
ATOM     22  N   UNL     1      50.247   8.245  13.183  0.00  0.00    +0.000 NA
BRANCH  21  23
ATOM     23  C   UNL     1      49.553   6.997  15.127  0.00  0.00    +0.000 A 
ATOM     24  C   UNL     1      50.846   7.030  15.688  0.00  0.00    +0.000 A 
ATOM     25  C   UNL     1      51.159   6.307  16.840  0.00  0.00    +0.000 A 
ATOM     26  C   UNL     1      50.185   5.530  17.457  0.00  0.00    +0.000 A 
ATOM     27 CL   UNL     1      50.569   4.636  18.875  0.00  0.00    +0.000 Cl
ATOM     28  C   UNL     1      48.899   5.474  16.929  0.00  0.00    +0.000 A 
ATOM     29  C   UNL     1      48.587   6.203  15.776  0.00  0.00    +0.000 A 
ENDBRANCH  21  23
BRANCH  17  31
ATOM     30  C   UNL     1      50.546  10.753  10.751  0.00  0.00    +0.000 C 
ATOM     31  O   UNL     1      50.902   9.484  11.297  0.00  0.00    +0.000 OA
ENDBRANCH  17  31
ENDBRANCH   1  19
TORSDOF 5
ENDMDL
