MODEL 1
REMARK VINA RESULT:    -8.778      0.000      0.000
REMARK INTER + INTRA:         -13.432
REMARK INTER:                 -12.370
REMARK INTRA:                  -1.062
REMARK UNBOUND:                -1.062
REMARK  Name = 
REMARK  7 active torsions:
REMARK  status: ('A' for Active; 'I' for Inactive)
REMARK    1  A    between atoms: C_2  and  C_4
REMARK    2  A    between atoms: C_7  and  O_8
REMARK    3  A    between atoms: O_8  and  C_9
REMARK    4  A    between atoms: C_9  and  C_10
REMARK    5  A    between atoms: C_10  and  C_13
REMARK    6  A    between atoms: C_18  and  S_19
REMARK    7  A    between atoms: S_19  and  C_20
REMARK                            x       y       z     vdW  Elec       q    Type
REMARK                         _______ _______ _______ _____ _____    ______ ____
ROOT
ATOM      1  C   UNL     1      43.324   5.404  12.038  0.00  0.00    +0.000 C 
ATOM      2  F   UNL     1      42.977   6.577  11.431  0.00  0.00    +0.000 F 
ATOM      3  F   UNL     1      42.357   5.176  12.974  0.00  0.00    +0.000 F 
ENDROOT
BRANCH   1   4
ATOM      4  C   UNL     1      44.712   5.478  12.654  0.00  0.00    +0.000 A 
ATOM      5  C   UNL     1      45.345   4.324  13.127  0.00  0.00    +0.000 A 
ATOM      6  C   UNL     1      46.638   4.405  13.637  0.00  0.00    +0.000 A 
ATOM      7  F   UNL     1      47.232   3.296  14.097  0.00  0.00    +0.000 F 
ATOM      8  C   UNL     1      47.324   5.615  13.680  0.00  0.00    +0.000 A 
ATOM      9  C   UNL     1      46.708   6.775  13.209  0.00  0.00    +0.000 A 
ATOM     10  C   UNL     1      45.401   6.704  12.709  0.00  0.00    +0.000 A 
BRANCH   9  11
ATOM     11  S   UNL     1      47.523   8.350  13.347  0.00  0.00    +0.000 S 
BRANCH  11  12
ATOM     12  C   UNL     1      48.508   8.322  11.804  0.00  0.00    +0.000 C 
ATOM     13  C   UNL     1      49.851   7.578  12.030  0.00  0.00    +0.000 C 
ATOM     14  C   UNL     1      50.552   8.714  11.266  0.00  0.00    +0.000 C 
ATOM     15  C   UNL     1      49.336   9.609  11.581  0.00  0.00    +0.000 C 
ENDBRANCH  11  12
ENDBRANCH   9  11
ENDBRANCH   1   4
BRANCH   1  16
ATOM     16  C   UNL     1      43.292   4.276  11.000  0.00  0.00    +0.000 C 
BRANCH  16  17
ATOM     17  O   UNL     1      43.610   4.749   9.680  0.00  0.00    +0.000 OA
BRANCH  17  21
ATOM     18  C   UNL     1      46.328   2.263   7.834  0.00  0.00    +0.000 A 
ATOM     19  C   UNL     1      45.455   1.742   8.791  0.00  0.00    +0.000 A 
ATOM     20  C   UNL     1      44.540   2.593   9.417  0.00  0.00    +0.000 A 
ATOM     21  C   UNL     1      44.534   3.932   9.059  0.00  0.00    +0.000 A 
ATOM     22  N   UNL     1      45.376   4.464   8.145  0.00  0.00    +0.000 NA
ATOM     23  C   UNL     1      46.260   3.622   7.561  0.00  0.00    +0.000 A 
BRANCH  18  25
ATOM     24  N   UNL     1      48.400   2.109   6.575  0.00  0.00    +0.000 N 
ATOM     25  C   UNL     1      47.324   1.453   7.103  0.00  0.00    +0.000 C 
ATOM     26  O   UNL     1      47.217   0.237   7.014  0.00  0.00    +0.000 OA
ATOM     27  H   UNL     1      49.129   1.524   6.183  0.00  0.00    +0.000 HD
ATOM     28  H   UNL     1      48.653   3.049   6.843  0.00  0.00    +0.000 HD
ENDBRANCH  18  25
ENDBRANCH  17  21
ENDBRANCH  16  17
ENDBRANCH   1  16
TORSDOF 7
ENDMDL
MODEL 2
REMARK VINA RESULT:    -8.496      2.363      3.110
REMARK INTER + INTRA:         -13.035
REMARK INTER:                 -11.988
REMARK INTRA:                  -1.047
REMARK UNBOUND:                -1.062
REMARK  Name = 
REMARK  7 active torsions:
REMARK  status: ('A' for Active; 'I' for Inactive)
REMARK    1  A    between atoms: C_2  and  C_4
REMARK    2  A    between atoms: C_7  and  O_8
REMARK    3  A    between atoms: O_8  and  C_9
REMARK    4  A    between atoms: C_9  and  C_10
REMARK    5  A    between atoms: C_10  and  C_13
REMARK    6  A    between atoms: C_18  and  S_19
REMARK    7  A    between atoms: S_19  and  C_20
REMARK                            x       y       z     vdW  Elec       q    Type
REMARK                         _______ _______ _______ _____ _____    ______ ____
ROOT
ATOM      1  C   UNL     1      43.183   4.952  12.305  0.00  0.00    +0.000 C 
ATOM      2  F   UNL     1      42.017   5.629  12.092  0.00  0.00    +0.000 F 
ATOM      3  F   UNL     1      43.016   4.301  13.493  0.00  0.00    +0.000 F 
ENDROOT
BRANCH   1   4
ATOM      4  C   UNL     1      44.381   5.888  12.327  0.00  0.00    +0.000 A 
ATOM      5  C   UNL     1      45.662   5.400  12.603  0.00  0.00    +0.000 A 
ATOM      6  C   UNL     1      46.753   6.265  12.565  0.00  0.00    +0.000 A 
ATOM      7  F   UNL     1      47.976   5.790  12.841  0.00  0.00    +0.000 F 
ATOM      8  C   UNL     1      46.599   7.611  12.247  0.00  0.00    +0.000 A 
ATOM      9  C   UNL     1      45.327   8.112  11.966  0.00  0.00    +0.000 A 
ATOM     10  C   UNL     1      44.223   7.252  12.018  0.00  0.00    +0.000 A 
BRANCH   9  11
ATOM     11  S   UNL     1      45.089   9.848  11.658  0.00  0.00    +0.000 S 
BRANCH  11  12
ATOM     12  C   UNL     1      43.656   9.764  10.522  0.00  0.00    +0.000 C 
ATOM     13  C   UNL     1      43.809  10.797   9.375  0.00  0.00    +0.000 C 
ATOM     14  C   UNL     1      42.335  11.180   9.589  0.00  0.00    +0.000 C 
ATOM     15  C   UNL     1      42.438  10.585  11.008  0.00  0.00    +0.000 C 
ENDBRANCH  11  12
ENDBRANCH   9  11
ENDBRANCH   1   4
BRANCH   1  16
ATOM     16  C   UNL     1      43.372   3.917  11.189  0.00  0.00    +0.000 C 
BRANCH  16  17
ATOM     17  O   UNL     1      43.601   4.538   9.913  0.00  0.00    +0.000 OA
BRANCH  17  21
ATOM     18  C   UNL     1      46.404   2.447   7.735  0.00  0.00    +0.000 A 
ATOM     19  C   UNL     1      45.611   1.774   8.666  0.00  0.00    +0.000 A 
ATOM     20  C   UNL     1      44.667   2.491   9.404  0.00  0.00    +0.000 A 
ATOM     21  C   UNL     1      44.553   3.854   9.182  0.00  0.00    +0.000 A 
ATOM     22  N   UNL     1      45.316   4.532   8.297  0.00  0.00    +0.000 NA
ATOM     23  C   UNL     1      46.231   3.817   7.601  0.00  0.00    +0.000 A 
BRANCH  18  25
ATOM     24  N   UNL     1      48.480   2.545   6.475  0.00  0.00    +0.000 N 
ATOM     25  C   UNL     1      47.423   1.786   6.893  0.00  0.00    +0.000 C 
ATOM     26  O   UNL     1      47.350   0.596   6.619  0.00  0.00    +0.000 OA
ATOM     27  H   UNL     1      49.225   2.048   6.002  0.00  0.00    +0.000 HD
ATOM     28  H   UNL     1      48.706   3.440   6.886  0.00  0.00    +0.000 HD
ENDBRANCH  18  25
ENDBRANCH  17  21
ENDBRANCH  16  17
ENDBRANCH   1  16
TORSDOF 7
ENDMDL
MODEL 3
REMARK VINA RESULT:    -8.398      2.289      3.633
REMARK INTER + INTRA:         -12.897
REMARK INTER:                 -11.845
REMARK INTRA:                  -1.052
REMARK UNBOUND:                -1.062
REMARK  Name = 
REMARK  7 active torsions:
REMARK  status: ('A' for Active; 'I' for Inactive)
REMARK    1  A    between atoms: C_2  and  C_4
REMARK    2  A    between atoms: C_7  and  O_8
REMARK    3  A    between atoms: O_8  and  C_9
REMARK    4  A    between atoms: C_9  and  C_10
REMARK    5  A    between atoms: C_10  and  C_13
REMARK    6  A    between atoms: C_18  and  S_19
REMARK    7  A    between atoms: S_19  and  C_20
REMARK                            x       y       z     vdW  Elec       q    Type
REMARK                         _______ _______ _______ _____ _____    ______ ____
ROOT
ATOM      1  C   UNL     1      44.686   4.997  12.239  0.00  0.00    +0.000 C 
ATOM      2  F   UNL     1      43.706   5.400  13.100  0.00  0.00    +0.000 F 
ATOM      3  F   UNL     1      44.725   3.636  12.340  0.00  0.00    +0.000 F 
ENDROOT
BRANCH   1   4
ATOM      4  C   UNL     1      46.025   5.635  12.574  0.00  0.00    +0.000 A 
ATOM      5  C   UNL     1      46.678   6.451  11.644  0.00  0.00    +0.000 A 
ATOM      6  C   UNL     1      47.876   7.070  11.990  0.00  0.00    +0.000 A 
ATOM      7  F   UNL     1      48.499   7.842  11.088  0.00  0.00    +0.000 F 
ATOM      8  C   UNL     1      48.440   6.901  13.250  0.00  0.00    +0.000 A 
ATOM      9  C   UNL     1      47.800   6.093  14.190  0.00  0.00    +0.000 A 
ATOM     10  C   UNL     1      46.602   5.454  13.844  0.00  0.00    +0.000 A 
BRANCH   9  11
ATOM     11  S   UNL     1      48.550   5.779  15.772  0.00  0.00    +0.000 S 
BRANCH  11  12
ATOM     12  C   UNL     1      47.480   4.412  16.354  0.00  0.00    +0.000 C 
ATOM     13  C   UNL     1      47.436   4.378  17.905  0.00  0.00    +0.000 C 
ATOM     14  C   UNL     1      47.624   2.853  17.827  0.00  0.00    +0.000 C 
ATOM     15  C   UNL     1      48.204   3.047  16.412  0.00  0.00    +0.000 C 
ENDBRANCH  11  12
ENDBRANCH   9  11
ENDBRANCH   1   4
BRANCH   1  16
ATOM     16  C   UNL     1      44.286   5.382  10.810  0.00  0.00    +0.000 C 
BRANCH  16  17
ATOM     17  O   UNL     1      43.787   4.256  10.069  0.00  0.00    +0.000 OA
BRANCH  17  21
ATOM     18  C   UNL     1      46.611   2.701   7.503  0.00  0.00    +0.000 A 
ATOM     19  C   UNL     1      45.908   1.848   8.355  0.00  0.00    +0.000 A 
ATOM     20  C   UNL     1      44.956   2.383   9.226  0.00  0.00    +0.000 A 
ATOM     21  C   UNL     1      44.744   3.753   9.210  0.00  0.00    +0.000 A 
ATOM     22  N   UNL     1      45.419   4.602   8.404  0.00  0.00    +0.000 NA
ATOM     23  C   UNL     1      46.343   4.061   7.577  0.00  0.00    +0.000 A 
BRANCH  18  25
ATOM     24  N   UNL     1      47.724   2.923   5.355  0.00  0.00    +0.000 N 
ATOM     25  C   UNL     1      47.628   2.242   6.535  0.00  0.00    +0.000 C 
ATOM     26  O   UNL     1      48.386   1.318   6.797  0.00  0.00    +0.000 OA
ATOM     27  H   UNL     1      48.502   2.671   4.757  0.00  0.00    +0.000 HD
ATOM     28  H   UNL     1      47.304   3.831   5.211  0.00  0.00    +0.000 HD
ENDBRANCH  18  25
ENDBRANCH  17  21
ENDBRANCH  16  17
ENDBRANCH   1  16
TORSDOF 7
ENDMDL
MODEL 4
REMARK VINA RESULT:    -7.974      1.521      2.467
REMARK INTER + INTRA:         -12.298
REMARK INTER:                 -11.295
REMARK INTRA:                  -1.003
REMARK UNBOUND:                -1.062
REMARK  Name = 
REMARK  7 active torsions:
REMARK  status: ('A' for Active; 'I' for Inactive)
REMARK    1  A    between atoms: C_2  and  C_4
REMARK    2  A    between atoms: C_7  and  O_8
REMARK    3  A    between atoms: O_8  and  C_9
REMARK    4  A    between atoms: C_9  and  C_10
REMARK    5  A    between atoms: C_10  and  C_13
REMARK    6  A    between atoms: C_18  and  S_19
REMARK    7  A    between atoms: S_19  and  C_20
REMARK                            x       y       z     vdW  Elec       q    Type
REMARK                         _______ _______ _______ _____ _____    ______ ____
ROOT
ATOM      1  C   UNL     1      44.376   4.390  12.340  0.00  0.00    +0.000 C 
ATOM      2  F   UNL     1      43.412   4.268  13.299  0.00  0.00    +0.000 F 
ATOM      3  F   UNL     1      45.210   3.325  12.521  0.00  0.00    +0.000 F 
ENDROOT
BRANCH   1   4
ATOM      4  C   UNL     1      45.110   5.718  12.447  0.00  0.00    +0.000 A 
ATOM      5  C   UNL     1      44.545   6.889  11.929  0.00  0.00    +0.000 A 
ATOM      6  C   UNL     1      45.209   8.103  12.086  0.00  0.00    +0.000 A 
ATOM      7  F   UNL     1      44.665   9.217  11.577  0.00  0.00    +0.000 F 
ATOM      8  C   UNL     1      46.425   8.181  12.757  0.00  0.00    +0.000 A 
ATOM      9  C   UNL     1      47.000   7.023  13.282  0.00  0.00    +0.000 A 
ATOM     10  C   UNL     1      46.346   5.796  13.114  0.00  0.00    +0.000 A 
BRANCH   9  11
ATOM     11  S   UNL     1      48.601   7.080  14.054  0.00  0.00    +0.000 S 
BRANCH  11  12
ATOM     12  C   UNL     1      49.440   8.264  12.938  0.00  0.00    +0.000 C 
ATOM     13  C   UNL     1      49.769   7.591  11.579  0.00  0.00    +0.000 C 
ATOM     14  C   UNL     1      51.167   8.227  11.658  0.00  0.00    +0.000 C 
ATOM     15  C   UNL     1      50.964   8.363  13.181  0.00  0.00    +0.000 C 
ENDBRANCH  11  12
ENDBRANCH   9  11
ENDBRANCH   1   4
BRANCH   1  16
ATOM     16  C   UNL     1      43.723   4.285  10.956  0.00  0.00    +0.000 C 
BRANCH  16  17
ATOM     17  O   UNL     1      43.748   2.940  10.450  0.00  0.00    +0.000 OA
BRANCH  17  21
ATOM     18  C   UNL     1      46.501   2.593   7.404  0.00  0.00    +0.000 A 
ATOM     19  C   UNL     1      45.909   3.831   7.661  0.00  0.00    +0.000 A 
ATOM     20  C   UNL     1      44.973   3.939   8.692  0.00  0.00    +0.000 A 
ATOM     21  C   UNL     1      44.665   2.804   9.426  0.00  0.00    +0.000 A 
ATOM     22  N   UNL     1      45.214   1.592   9.190  0.00  0.00    +0.000 NA
ATOM     23  C   UNL     1      46.111   1.510   8.179  0.00  0.00    +0.000 A 
BRANCH  18  25
ATOM     24  N   UNL     1      47.505   3.224   5.283  0.00  0.00    +0.000 N 
ATOM     25  C   UNL     1      47.511   2.369   6.349  0.00  0.00    +0.000 C 
ATOM     26  O   UNL     1      48.349   1.483   6.446  0.00  0.00    +0.000 OA
ATOM     27  H   UNL     1      48.276   3.129   4.632  0.00  0.00    +0.000 HD
ATOM     28  H   UNL     1      47.010   4.104   5.292  0.00  0.00    +0.000 HD
ENDBRANCH  18  25
ENDBRANCH  17  21
ENDBRANCH  16  17
ENDBRANCH   1  16
TORSDOF 7
ENDMDL
MODEL 5
REMARK VINA RESULT:    -7.875      1.779      2.363
REMARK INTER + INTRA:         -12.159
REMARK INTER:                 -11.344
REMARK INTRA:                  -0.816
REMARK UNBOUND:                -1.062
REMARK  Name = 
REMARK  7 active torsions:
REMARK  status: ('A' for Active; 'I' for Inactive)
REMARK    1  A    between atoms: C_2  and  C_4
REMARK    2  A    between atoms: C_7  and  O_8
REMARK    3  A    between atoms: O_8  and  C_9
REMARK    4  A    between atoms: C_9  and  C_10
REMARK    5  A    between atoms: C_10  and  C_13
REMARK    6  A    between atoms: C_18  and  S_19
REMARK    7  A    between atoms: S_19  and  C_20
REMARK                            x       y       z     vdW  Elec       q    Type
REMARK                         _______ _______ _______ _____ _____    ______ ____
ROOT
ATOM      1  C   UNL     1      44.535   4.036  12.490  0.00  0.00    +0.000 C 
ATOM      2  F   UNL     1      43.451   4.119  13.315  0.00  0.00    +0.000 F 
ATOM      3  F   UNL     1      44.828   2.706  12.402  0.00  0.00    +0.000 F 
ENDROOT
BRANCH   1   4
ATOM      4  C   UNL     1      45.708   4.848  13.019  0.00  0.00    +0.000 A 
ATOM      5  C   UNL     1      46.320   4.510  14.230  0.00  0.00    +0.000 A 
ATOM      6  C   UNL     1      47.426   5.232  14.670  0.00  0.00    +0.000 A 
ATOM      7  F   UNL     1      47.999   4.908  15.837  0.00  0.00    +0.000 F 
ATOM      8  C   UNL     1      47.947   6.284  13.922  0.00  0.00    +0.000 A 
ATOM      9  C   UNL     1      47.350   6.631  12.709  0.00  0.00    +0.000 A 
ATOM     10  C   UNL     1      46.227   5.919  12.269  0.00  0.00    +0.000 A 
BRANCH   9  11
ATOM     11  S   UNL     1      47.933   8.034  11.784  0.00  0.00    +0.000 S 
BRANCH  11  12
ATOM     12  C   UNL     1      46.915   9.350  12.549  0.00  0.00    +0.000 C 
ATOM     13  C   UNL     1      45.416   8.949  12.546  0.00  0.00    +0.000 C 
ATOM     14  C   UNL     1      45.087  10.372  12.062  0.00  0.00    +0.000 C 
ATOM     15  C   UNL     1      46.543  10.486  11.568  0.00  0.00    +0.000 C 
ENDBRANCH  11  12
ENDBRANCH   9  11
ENDBRANCH   1   4
BRANCH   1  16
ATOM     16  C   UNL     1      44.148   4.557  11.100  0.00  0.00    +0.000 C 
BRANCH  16  17
ATOM     17  O   UNL     1      43.714   3.498  10.231  0.00  0.00    +0.000 OA
BRANCH  17  21
ATOM     18  C   UNL     1      46.606   2.650   7.422  0.00  0.00    +0.000 A 
ATOM     19  C   UNL     1      46.187   3.969   7.604  0.00  0.00    +0.000 A 
ATOM     20  C   UNL     1      45.202   4.248   8.554  0.00  0.00    +0.000 A 
ATOM     21  C   UNL     1      44.674   3.195   9.286  0.00  0.00    +0.000 A 
ATOM     22  N   UNL     1      45.054   1.908   9.121  0.00  0.00    +0.000 NA
ATOM     23  C   UNL     1      46.002   1.662   8.187  0.00  0.00    +0.000 A 
BRANCH  18  25
ATOM     24  N   UNL     1      47.693   2.913   5.265  0.00  0.00    +0.000 N 
ATOM     25  C   UNL     1      47.648   2.245   6.456  0.00  0.00    +0.000 C 
ATOM     26  O   UNL     1      48.468   1.378   6.727  0.00  0.00    +0.000 OA
ATOM     27  H   UNL     1      48.484   2.705   4.668  0.00  0.00    +0.000 HD
ATOM     28  H   UNL     1      47.213   3.788   5.111  0.00  0.00    +0.000 HD
ENDBRANCH  18  25
ENDBRANCH  17  21
ENDBRANCH  16  17
ENDBRANCH   1  16
TORSDOF 7
ENDMDL
MODEL 6
REMARK VINA RESULT:    -7.551      4.654      7.540
REMARK INTER + INTRA:         -11.703
REMARK INTER:                 -10.827
REMARK INTRA:                  -0.876
REMARK UNBOUND:                -1.062
REMARK  Name = 
REMARK  7 active torsions:
REMARK  status: ('A' for Active; 'I' for Inactive)
REMARK    1  A    between atoms: C_2  and  C_4
REMARK    2  A    between atoms: C_7  and  O_8
REMARK    3  A    between atoms: O_8  and  C_9
REMARK    4  A    between atoms: C_9  and  C_10
REMARK    5  A    between atoms: C_10  and  C_13
REMARK    6  A    between atoms: C_18  and  S_19
REMARK    7  A    between atoms: S_19  and  C_20
REMARK                            x       y       z     vdW  Elec       q    Type
REMARK                         _______ _______ _______ _____ _____    ______ ____
ROOT
ATOM      1  C   UNL     1      46.300   6.639  11.925  0.00  0.00    +0.000 C 
ATOM      2  F   UNL     1      45.568   7.778  11.752  0.00  0.00    +0.000 F 
ATOM      3  F   UNL     1      47.449   6.831  11.214  0.00  0.00    +0.000 F 
ENDROOT
BRANCH   1   4
ATOM      4  C   UNL     1      45.539   5.406  11.464  0.00  0.00    +0.000 A 
ATOM      5  C   UNL     1      44.878   4.589  12.387  0.00  0.00    +0.000 A 
ATOM      6  C   UNL     1      44.141   3.496  11.938  0.00  0.00    +0.000 A 
ATOM      7  F   UNL     1      43.520   2.713  12.832  0.00  0.00    +0.000 F 
ATOM      8  C   UNL     1      44.040   3.200  10.583  0.00  0.00    +0.000 A 
ATOM      9  C   UNL     1      44.690   4.006   9.649  0.00  0.00    +0.000 A 
ATOM     10  C   UNL     1      45.446   5.099  10.094  0.00  0.00    +0.000 A 
BRANCH   9  11
ATOM     11  S   UNL     1      44.660   3.591   7.919  0.00  0.00    +0.000 S 
BRANCH  11  12
ATOM     12  C   UNL     1      46.423   3.164   7.675  0.00  0.00    +0.000 C 
ATOM     13  C   UNL     1      46.757   3.076   6.163  0.00  0.00    +0.000 C 
ATOM     14  C   UNL     1      47.525   1.776   6.458  0.00  0.00    +0.000 C 
ATOM     15  C   UNL     1      46.703   1.645   7.757  0.00  0.00    +0.000 C 
ENDBRANCH  11  12
ENDBRANCH   9  11
ENDBRANCH   1   4
BRANCH   1  16
ATOM     16  C   UNL     1      46.650   6.489  13.411  0.00  0.00    +0.000 C 
BRANCH  16  17
ATOM     17  O   UNL     1      47.829   5.690  13.608  0.00  0.00    +0.000 OA
BRANCH  17  21
ATOM     18  C   UNL     1      48.278   4.583  17.551  0.00  0.00    +0.000 A 
ATOM     19  C   UNL     1      47.339   3.927  16.752  0.00  0.00    +0.000 A 
ATOM     20  C   UNL     1      47.190   4.311  15.418  0.00  0.00    +0.000 A 
ATOM     21  C   UNL     1      47.985   5.339  14.934  0.00  0.00    +0.000 A 
ATOM     22  N   UNL     1      48.891   5.999  15.689  0.00  0.00    +0.000 NA
ATOM     23  C   UNL     1      49.010   5.615  16.981  0.00  0.00    +0.000 A 
BRANCH  18  25
ATOM     24  N   UNL     1      48.188   2.994  19.386  0.00  0.00    +0.000 N 
ATOM     25  C   UNL     1      48.527   4.250  18.969  0.00  0.00    +0.000 C 
ATOM     26  O   UNL     1      49.060   5.048  19.728  0.00  0.00    +0.000 OA
ATOM     27  H   UNL     1      48.474   2.745  20.326  0.00  0.00    +0.000 HD
ATOM     28  H   UNL     1      47.992   2.238  18.745  0.00  0.00    +0.000 HD
ENDBRANCH  18  25
ENDBRANCH  17  21
ENDBRANCH  16  17
ENDBRANCH   1  16
TORSDOF 7
ENDMDL
MODEL 7
REMARK VINA RESULT:    -7.398      2.608      3.776
REMARK INTER + INTRA:         -11.488
REMARK INTER:                 -10.793
REMARK INTRA:                  -0.695
REMARK UNBOUND:                -1.062
REMARK  Name = 
REMARK  7 active torsions:
REMARK  status: ('A' for Active; 'I' for Inactive)
REMARK    1  A    between atoms: C_2  and  C_4
REMARK    2  A    between atoms: C_7  and  O_8
REMARK    3  A    between atoms: O_8  and  C_9
REMARK    4  A    between atoms: C_9  and  C_10
REMARK    5  A    between atoms: C_10  and  C_13
REMARK    6  A    between atoms: C_18  and  S_19
REMARK    7  A    between atoms: S_19  and  C_20
REMARK                            x       y       z     vdW  Elec       q    Type
REMARK                         _______ _______ _______ _____ _____    ______ ____
ROOT
ATOM      1  C   UNL     1      45.062   6.348  11.260  0.00  0.00    +0.000 C 
ATOM      2  F   UNL     1      45.512   6.611   9.998  0.00  0.00    +0.000 F 
ATOM      3  F   UNL     1      44.203   7.364  11.562  0.00  0.00    +0.000 F 
ENDROOT
BRANCH   1   4
ATOM      4  C   UNL     1      46.208   6.250  12.256  0.00  0.00    +0.000 A 
ATOM      5  C   UNL     1      47.312   7.103  12.158  0.00  0.00    +0.000 A 
ATOM      6  C   UNL     1      48.324   7.034  13.112  0.00  0.00    +0.000 A 
ATOM      7  F   UNL     1      49.383   7.849  13.004  0.00  0.00    +0.000 F 
ATOM      8  C   UNL     1      48.259   6.135  14.172  0.00  0.00    +0.000 A 
ATOM      9  C   UNL     1      47.162   5.280  14.285  0.00  0.00    +0.000 A 
ATOM     10  C   UNL     1      46.148   5.333  13.321  0.00  0.00    +0.000 A 
BRANCH   9  11
ATOM     11  S   UNL     1      47.103   4.053  15.572  0.00  0.00    +0.000 S 
BRANCH  11  12
ATOM     12  C   UNL     1      48.255   4.813  16.775  0.00  0.00    +0.000 C 
ATOM     13  C   UNL     1      49.155   3.730  17.425  0.00  0.00    +0.000 C 
ATOM     14  C   UNL     1      48.890   4.397  18.786  0.00  0.00    +0.000 C 
ATOM     15  C   UNL     1      47.627   5.034  18.171  0.00  0.00    +0.000 C 
ENDBRANCH  11  12
ENDBRANCH   9  11
ENDBRANCH   1   4
BRANCH   1  16
ATOM     16  C   UNL     1      44.289   5.023  11.250  0.00  0.00    +0.000 C 
BRANCH  16  17
ATOM     17  O   UNL     1      43.773   4.711   9.945  0.00  0.00    +0.000 OA
BRANCH  17  21
ATOM     18  C   UNL     1      46.183   1.997   7.996  0.00  0.00    +0.000 A 
ATOM     19  C   UNL     1      46.129   3.318   7.548  0.00  0.00    +0.000 A 
ATOM     20  C   UNL     1      45.306   4.231   8.211  0.00  0.00    +0.000 A 
ATOM     21  C   UNL     1      44.568   3.786   9.296  0.00  0.00    +0.000 A 
ATOM     22  N   UNL     1      44.592   2.511   9.742  0.00  0.00    +0.000 NA
ATOM     23  C   UNL     1      45.390   1.642   9.077  0.00  0.00    +0.000 A 
BRANCH  18  25
ATOM     24  N   UNL     1      46.680  -0.348   7.601  0.00  0.00    +0.000 N 
ATOM     25  C   UNL     1      47.028   0.954   7.378  0.00  0.00    +0.000 C 
ATOM     26  O   UNL     1      47.974   1.243   6.657  0.00  0.00    +0.000 OA
ATOM     27  H   UNL     1      47.197  -1.043   7.075  0.00  0.00    +0.000 HD
ATOM     28  H   UNL     1      45.778  -0.619   7.966  0.00  0.00    +0.000 HD
ENDBRANCH  18  25
ENDBRANCH  17  21
ENDBRANCH  16  17
ENDBRANCH   1  16
TORSDOF 7
ENDMDL
MODEL 8
REMARK VINA RESULT:    -7.206      2.184      2.575
REMARK INTER + INTRA:         -11.217
REMARK INTER:                 -10.462
REMARK INTRA:                  -0.755
REMARK UNBOUND:                -1.062
REMARK  Name = 
REMARK  7 active torsions:
REMARK  status: ('A' for Active; 'I' for Inactive)
REMARK    1  A    between atoms: C_2  and  C_4
REMARK    2  A    between atoms: C_7  and  O_8
REMARK    3  A    between atoms: O_8  and  C_9
REMARK    4  A    between atoms: C_9  and  C_10
REMARK    5  A    between atoms: C_10  and  C_13
REMARK    6  A    between atoms: C_18  and  S_19
REMARK    7  A    between atoms: S_19  and  C_20
REMARK                            x       y       z     vdW  Elec       q    Type
REMARK                         _______ _______ _______ _____ _____    ______ ____
ROOT
ATOM      1  C   UNL     1      44.971   6.213  11.423  0.00  0.00    +0.000 C 
ATOM      2  F   UNL     1      45.588   6.551  10.253  0.00  0.00    +0.000 F 
ATOM      3  F   UNL     1      44.069   7.209  11.662  0.00  0.00    +0.000 F 
ENDROOT
BRANCH   1   4
ATOM      4  C   UNL     1      45.969   6.058  12.560  0.00  0.00    +0.000 A 
ATOM      5  C   UNL     1      46.033   4.870  13.296  0.00  0.00    +0.000 A 
ATOM      6  C   UNL     1      46.991   4.729  14.296  0.00  0.00    +0.000 A 
ATOM      7  F   UNL     1      47.037   3.591  15.003  0.00  0.00    +0.000 F 
ATOM      8  C   UNL     1      47.897   5.746  14.579  0.00  0.00    +0.000 A 
ATOM      9  C   UNL     1      47.849   6.936  13.852  0.00  0.00    +0.000 A 
ATOM     10  C   UNL     1      46.878   7.091  12.854  0.00  0.00    +0.000 A 
BRANCH   9  11
ATOM     11  S   UNL     1      48.929   8.289  14.260  0.00  0.00    +0.000 S 
BRANCH  11  12
ATOM     12  C   UNL     1      49.580   7.689  15.863  0.00  0.00    +0.000 C 
ATOM     13  C   UNL     1      50.075   8.877  16.728  0.00  0.00    +0.000 C 
ATOM     14  C   UNL     1      51.332   8.052  17.055  0.00  0.00    +0.000 C 
ATOM     15  C   UNL     1      51.051   7.217  15.790  0.00  0.00    +0.000 C 
ENDBRANCH  11  12
ENDBRANCH   9  11
ENDBRANCH   1   4
BRANCH   1  16
ATOM     16  C   UNL     1      44.218   4.891  11.229  0.00  0.00    +0.000 C 
BRANCH  16  17
ATOM     17  O   UNL     1      43.800   4.705   9.867  0.00  0.00    +0.000 OA
BRANCH  17  21
ATOM     18  C   UNL     1      46.219   1.997   7.920  0.00  0.00    +0.000 A 
ATOM     19  C   UNL     1      46.296   3.352   7.592  0.00  0.00    +0.000 A 
ATOM     20  C   UNL     1      45.469   4.263   8.253  0.00  0.00    +0.000 A 
ATOM     21  C   UNL     1      44.596   3.783   9.216  0.00  0.00    +0.000 A 
ATOM     22  N   UNL     1      44.492   2.476   9.543  0.00  0.00    +0.000 NA
ATOM     23  C   UNL     1      45.297   1.611   8.882  0.00  0.00    +0.000 A 
BRANCH  18  25
ATOM     24  N   UNL     1      46.791  -0.346   7.630  0.00  0.00    +0.000 N 
ATOM     25  C   UNL     1      47.054   0.951   7.294  0.00  0.00    +0.000 C 
ATOM     26  O   UNL     1      47.916   1.230   6.472  0.00  0.00    +0.000 OA
ATOM     27  H   UNL     1      47.291  -1.053   7.103  0.00  0.00    +0.000 HD
ATOM     28  H   UNL     1      45.938  -0.629   8.092  0.00  0.00    +0.000 HD
ENDBRANCH  18  25
ENDBRANCH  17  21
ENDBRANCH  16  17
ENDBRANCH   1  16
TORSDOF 7
ENDMDL
MODEL 9
REMARK VINA RESULT:    -6.926      4.993      7.852
REMARK INTER + INTRA:         -10.822
REMARK INTER:                  -9.961
REMARK INTRA:                  -0.861
REMARK UNBOUND:                -1.062
REMARK  Name = 
REMARK  7 active torsions:
REMARK  status: ('A' for Active; 'I' for Inactive)
REMARK    1  A    between atoms: C_2  and  C_4
REMARK    2  A    between atoms: C_7  and  O_8
REMARK    3  A    between atoms: O_8  and  C_9
REMARK    4  A    between atoms: C_9  and  C_10
REMARK    5  A    between atoms: C_10  and  C_13
REMARK    6  A    between atoms: C_18  and  S_19
REMARK    7  A    between atoms: S_19  and  C_20
REMARK                            x       y       z     vdW  Elec       q    Type
REMARK                         _______ _______ _______ _____ _____    ______ ____
ROOT
ATOM      1  C   UNL     1      46.660   5.137  13.184  0.00  0.00    +0.000 C 
ATOM      2  F   UNL     1      46.391   6.140  14.070  0.00  0.00    +0.000 F 
ATOM      3  F   UNL     1      47.794   5.520  12.529  0.00  0.00    +0.000 F 
ENDROOT
BRANCH   1   4
ATOM      4  C   UNL     1      45.497   4.903  12.231  0.00  0.00    +0.000 A 
ATOM      5  C   UNL     1      44.380   5.745  12.248  0.00  0.00    +0.000 A 
ATOM      6  C   UNL     1      43.352   5.547  11.331  0.00  0.00    +0.000 A 
ATOM      7  F   UNL     1      42.281   6.351  11.363  0.00  0.00    +0.000 F 
ATOM      8  C   UNL     1      43.414   4.529  10.384  0.00  0.00    +0.000 A 
ATOM      9  C   UNL     1      44.523   3.683  10.351  0.00  0.00    +0.000 A 
ATOM     10  C   UNL     1      45.554   3.866  11.281  0.00  0.00    +0.000 A 
BRANCH   9  11
ATOM     11  S   UNL     1      44.580   2.312   9.218  0.00  0.00    +0.000 S 
BRANCH  11  12
ATOM     12  C   UNL     1      46.186   2.651   8.407  0.00  0.00    +0.000 C 
ATOM     13  C   UNL     1      45.968   3.345   7.037  0.00  0.00    +0.000 C 
ATOM     14  C   UNL     1      47.013   2.387   6.440  0.00  0.00    +0.000 C 
ATOM     15  C   UNL     1      46.748   1.440   7.628  0.00  0.00    +0.000 C 
ENDBRANCH  11  12
ENDBRANCH   9  11
ENDBRANCH   1   4
BRANCH   1  16
ATOM     16  C   UNL     1      46.942   3.845  13.960  0.00  0.00    +0.000 C 
BRANCH  16  17
ATOM     17  O   UNL     1      46.651   3.985  15.361  0.00  0.00    +0.000 OA
BRANCH  17  21
ATOM     18  C   UNL     1      50.064   3.872  17.666  0.00  0.00    +0.000 A 
ATOM     19  C   UNL     1      49.452   5.098  17.399  0.00  0.00    +0.000 A 
ATOM     20  C   UNL     1      48.298   5.128  16.613  0.00  0.00    +0.000 A 
ATOM     21  C   UNL     1      47.801   3.930  16.123  0.00  0.00    +0.000 A 
ATOM     22  N   UNL     1      48.382   2.732  16.356  0.00  0.00    +0.000 NA
ATOM     23  C   UNL     1      49.504   2.730  17.112  0.00  0.00    +0.000 A 
BRANCH  18  25
ATOM     24  N   UNL     1      52.051   2.617  18.283  0.00  0.00    +0.000 N 
ATOM     25  C   UNL     1      51.278   3.724  18.495  0.00  0.00    +0.000 C 
ATOM     26  O   UNL     1      51.605   4.579  19.307  0.00  0.00    +0.000 OA
ATOM     27  H   UNL     1      52.937   2.593  18.773  0.00  0.00    +0.000 HD
ATOM     28  H   UNL     1      51.958   2.034  17.463  0.00  0.00    +0.000 HD
ENDBRANCH  18  25
ENDBRANCH  17  21
ENDBRANCH  16  17
ENDBRANCH   1  16
TORSDOF 7
ENDMDL
