MODEL 1
REMARK VINA RESULT:    -7.066      0.000      0.000
REMARK INTER + INTRA:         -10.100
REMARK INTER:                  -9.338
REMARK INTRA:                  -0.761
REMARK UNBOUND:                -0.761
REMARK  Name = 
REMARK  6 active torsions:
REMARK  status: ('A' for Active; 'I' for Inactive)
REMARK    1  A    between atoms: N_1  and  C_2
REMARK    2  A    between atoms: C_2  and  C_3
REMARK    3  A    between atoms: C_3  and  O_4
REMARK    4  A    between atoms: O_4  and  C_5
REMARK    5  A    between atoms: C_8  and  C_9
REMARK    6  A    between atoms: C_9  and  N_10
REMARK                            x       y       z     vdW  Elec       q    Type
REMARK                         _______ _______ _______ _____ _____    ______ ____
ROOT
ATOM      1  C   UNL     1      48.160   6.430  13.314  0.00  0.00    +0.000 A 
ATOM      2  C   UNL     1      47.982   7.051  12.080  0.00  0.00    +0.000 A 
ATOM      3  C   UNL     1      46.801   6.843  11.351  0.00  0.00    +0.000 A 
ATOM      4  C   UNL     1      45.794   6.008  11.849  0.00  0.00    +0.000 A 
ATOM      5  C   UNL     1      45.991   5.374  13.076  0.00  0.00    +0.000 A 
ATOM      6  C   UNL     1      47.156   5.595  13.807  0.00  0.00    +0.000 A 
ENDROOT
BRANCH   1   7
ATOM      7  O   UNL     1      49.263   6.558  14.118  0.00  0.00    +0.000 OA
BRANCH   7   8
ATOM      8  C   UNL     1      49.048   7.111  15.419  0.00  0.00    +0.000 C 
BRANCH   8   9
ATOM      9  C   UNL     1      48.881   8.628  15.284  0.00  0.00    +0.000 C 
BRANCH   9  10
ATOM     10  N   UNL     1      47.511   9.059  15.563  0.00  0.00    +0.000 NA
ATOM     11  H   UNL     1      47.370   9.090  16.572  0.00  0.00    +0.000 HD
ATOM     12  H   UNL     1      46.853   8.364  15.208  0.00  0.00    +0.000 HD
ENDBRANCH   9  10
ENDBRANCH   8   9
ENDBRANCH   7   8
ENDBRANCH   1   7
BRANCH   4  13
ATOM     13  C   UNL     1      44.506   5.842  11.090  0.00  0.00    +0.000 C 
BRANCH  13  14
ATOM     14  N   UNL     1      44.302   4.494  10.565  0.00  0.00    +0.000 N 
ATOM     15  C   UNL     1      43.725   3.468  11.278  0.00  0.00    +0.000 A 
ATOM     16  C   UNL     1      43.901   2.301  10.572  0.00  0.00    +0.000 A 
ATOM     17  C   UNL     1      44.828   2.586   9.539  0.00  0.00    +0.000 A 
ATOM     18  C   UNL     1      45.621   1.780   8.700  0.00  0.00    +0.000 A 
ATOM     19  C   UNL     1      46.470   2.400   7.782  0.00  0.00    +0.000 A 
ATOM     20 CL   UNL     1      47.618   1.448   6.919  0.00  0.00    +0.000 Cl
ATOM     21  C   UNL     1      46.438   3.777   7.590  0.00  0.00    +0.000 A 
ATOM     22  C   UNL     1      45.652   4.595   8.408  0.00  0.00    +0.000 A 
ATOM     23  C   UNL     1      44.934   3.977   9.444  0.00  0.00    +0.000 A 
ENDBRANCH  13  14
ENDBRANCH   4  13
TORSDOF 6
ENDMDL
MODEL 2
REMARK VINA RESULT:    -7.045      1.603      1.737
REMARK INTER + INTRA:         -10.071
REMARK INTER:                  -9.594
REMARK INTRA:                  -0.477
REMARK UNBOUND:                -0.761
REMARK  Name = 
REMARK  6 active torsions:
REMARK  status: ('A' for Active; 'I' for Inactive)
REMARK    1  A    between atoms: N_1  and  C_2
REMARK    2  A    between atoms: C_2  and  C_3
REMARK    3  A    between atoms: C_3  and  O_4
REMARK    4  A    between atoms: O_4  and  C_5
REMARK    5  A    between atoms: C_8  and  C_9
REMARK    6  A    between atoms: C_9  and  N_10
REMARK                            x       y       z     vdW  Elec       q    Type
REMARK                         _______ _______ _______ _____ _____    ______ ____
ROOT
ATOM      1  C   UNL     1      47.464   5.568  14.123  0.00  0.00    +0.000 A 
ATOM      2  C   UNL     1      47.679   6.364  13.002  0.00  0.00    +0.000 A 
ATOM      3  C   UNL     1      46.766   6.341  11.936  0.00  0.00    +0.000 A 
ATOM      4  C   UNL     1      45.636   5.517  11.984  0.00  0.00    +0.000 A 
ATOM      5  C   UNL     1      45.440   4.708  13.103  0.00  0.00    +0.000 A 
ATOM      6  C   UNL     1      46.338   4.745  14.169  0.00  0.00    +0.000 A 
ENDROOT
BRANCH   1   7
ATOM      7  O   UNL     1      48.278   5.508  15.225  0.00  0.00    +0.000 OA
BRANCH   7   8
ATOM      8  C   UNL     1      47.866   4.636  16.281  0.00  0.00    +0.000 C 
BRANCH   8   9
ATOM      9  C   UNL     1      47.850   5.430  17.592  0.00  0.00    +0.000 C 
BRANCH   9  10
ATOM     10  N   UNL     1      46.676   5.122  18.408  0.00  0.00    +0.000 NA
ATOM     11  H   UNL     1      46.970   4.980  19.374  0.00  0.00    +0.000 HD
ATOM     12  H   UNL     1      46.268   4.238  18.105  0.00  0.00    +0.000 HD
ENDBRANCH   9  10
ENDBRANCH   8   9
ENDBRANCH   7   8
ENDBRANCH   1   7
BRANCH   4  13
ATOM     13  C   UNL     1      44.631   5.546  10.865  0.00  0.00    +0.000 C 
BRANCH  13  14
ATOM     14  N   UNL     1      44.498   4.274  10.160  0.00  0.00    +0.000 N 
ATOM     15  C   UNL     1      43.910   3.152  10.697  0.00  0.00    +0.000 A 
ATOM     16  C   UNL     1      44.162   2.091   9.860  0.00  0.00    +0.000 A 
ATOM     17  C   UNL     1      45.141   2.527   8.932  0.00  0.00    +0.000 A 
ATOM     18  C   UNL     1      46.006   1.854   8.049  0.00  0.00    +0.000 A 
ATOM     19  C   UNL     1      46.890   2.606   7.274  0.00  0.00    +0.000 A 
ATOM     20 CL   UNL     1      48.115   1.798   6.370  0.00  0.00    +0.000 Cl
ATOM     21  C   UNL     1      46.830   3.995   7.258  0.00  0.00    +0.000 A 
ATOM     22  C   UNL     1      45.972   4.683   8.123  0.00  0.00    +0.000 A 
ATOM     23  C   UNL     1      45.211   3.921   9.024  0.00  0.00    +0.000 A 
ENDBRANCH  13  14
ENDBRANCH   4  13
TORSDOF 6
ENDMDL
MODEL 3
REMARK VINA RESULT:    -6.634      3.390      6.941
REMARK INTER + INTRA:          -9.528
REMARK INTER:                  -8.912
REMARK INTRA:                  -0.616
REMARK UNBOUND:                -0.761
REMARK  Name = 
REMARK  6 active torsions:
REMARK  status: ('A' for Active; 'I' for Inactive)
REMARK    1  A    between atoms: N_1  and  C_2
REMARK    2  A    between atoms: C_2  and  C_3
REMARK    3  A    between atoms: C_3  and  O_4
REMARK    4  A    between atoms: O_4  and  C_5
REMARK    5  A    between atoms: C_8  and  C_9
REMARK    6  A    between atoms: C_9  and  N_10
REMARK                            x       y       z     vdW  Elec       q    Type
REMARK                         _______ _______ _______ _____ _____    ______ ____
ROOT
ATOM      1  C   UNL     1      45.728   2.768   8.170  0.00  0.00    +0.000 A 
ATOM      2  C   UNL     1      44.973   2.042   9.087  0.00  0.00    +0.000 A 
ATOM      3  C   UNL     1      44.231   2.709  10.075  0.00  0.00    +0.000 A 
ATOM      4  C   UNL     1      44.247   4.106  10.154  0.00  0.00    +0.000 A 
ATOM      5  C   UNL     1      45.024   4.823   9.244  0.00  0.00    +0.000 A 
ATOM      6  C   UNL     1      45.745   4.161   8.253  0.00  0.00    +0.000 A 
ENDROOT
BRANCH   1   7
ATOM      7  O   UNL     1      46.486   2.232   7.161  0.00  0.00    +0.000 OA
BRANCH   7   8
ATOM      8  C   UNL     1      46.465   2.919   5.908  0.00  0.00    +0.000 C 
BRANCH   8   9
ATOM      9  C   UNL     1      47.698   2.501   5.100  0.00  0.00    +0.000 C 
BRANCH   9  10
ATOM     10  N   UNL     1      48.626   1.691   5.890  0.00  0.00    +0.000 NA
ATOM     11  H   UNL     1      48.959   0.915   5.319  0.00  0.00    +0.000 HD
ATOM     12  H   UNL     1      48.132   1.271   6.676  0.00  0.00    +0.000 HD
ENDBRANCH   9  10
ENDBRANCH   8   9
ENDBRANCH   7   8
ENDBRANCH   1   7
BRANCH   4  13
ATOM     13  C   UNL     1      43.400   4.815  11.176  0.00  0.00    +0.000 C 
BRANCH  13  14
ATOM     14  N   UNL     1      43.990   6.057  11.669  0.00  0.00    +0.000 N 
ATOM     15  C   UNL     1      43.734   7.298  11.134  0.00  0.00    +0.000 A 
ATOM     16  C   UNL     1      44.619   8.195  11.683  0.00  0.00    +0.000 A 
ATOM     17  C   UNL     1      45.599   7.433  12.368  0.00  0.00    +0.000 A 
ATOM     18  C   UNL     1      46.885   7.727  12.859  0.00  0.00    +0.000 A 
ATOM     19  C   UNL     1      47.615   6.710  13.477  0.00  0.00    +0.000 A 
ATOM     20 CL   UNL     1      49.271   6.978  13.867  0.00  0.00    +0.000 Cl
ATOM     21  C   UNL     1      47.041   5.471  13.739  0.00  0.00    +0.000 A 
ATOM     22  C   UNL     1      45.760   5.162  13.267  0.00  0.00    +0.000 A 
ATOM     23  C   UNL     1      45.103   6.132  12.494  0.00  0.00    +0.000 A 
ENDBRANCH  13  14
ENDBRANCH   4  13
TORSDOF 6
ENDMDL
MODEL 4
REMARK VINA RESULT:    -6.357      3.416      6.891
REMARK INTER + INTRA:          -9.162
REMARK INTER:                  -8.674
REMARK INTRA:                  -0.487
REMARK UNBOUND:                -0.761
REMARK  Name = 
REMARK  6 active torsions:
REMARK  status: ('A' for Active; 'I' for Inactive)
REMARK    1  A    between atoms: N_1  and  C_2
REMARK    2  A    between atoms: C_2  and  C_3
REMARK    3  A    between atoms: C_3  and  O_4
REMARK    4  A    between atoms: O_4  and  C_5
REMARK    5  A    between atoms: C_8  and  C_9
REMARK    6  A    between atoms: C_9  and  N_10
REMARK                            x       y       z     vdW  Elec       q    Type
REMARK                         _______ _______ _______ _____ _____    ______ ____
ROOT
ATOM      1  C   UNL     1      45.250   3.508   8.987  0.00  0.00    +0.000 A 
ATOM      2  C   UNL     1      44.772   2.892  10.140  0.00  0.00    +0.000 A 
ATOM      3  C   UNL     1      44.662   3.620  11.335  0.00  0.00    +0.000 A 
ATOM      4  C   UNL     1      45.036   4.968  11.383  0.00  0.00    +0.000 A 
ATOM      5  C   UNL     1      45.533   5.571  10.228  0.00  0.00    +0.000 A 
ATOM      6  C   UNL     1      45.625   4.852   9.038  0.00  0.00    +0.000 A 
ENDROOT
BRANCH   1   7
ATOM      7  O   UNL     1      45.397   2.905   7.764  0.00  0.00    +0.000 OA
BRANCH   7   8
ATOM      8  C   UNL     1      46.644   3.106   7.094  0.00  0.00    +0.000 C 
BRANCH   8   9
ATOM      9  C   UNL     1      47.231   1.738   6.732  0.00  0.00    +0.000 C 
BRANCH   9  10
ATOM     10  N   UNL     1      48.455   1.855   5.941  0.00  0.00    +0.000 NA
ATOM     11  H   UNL     1      48.226   2.249   5.028  0.00  0.00    +0.000 HD
ATOM     12  H   UNL     1      48.837   0.927   5.758  0.00  0.00    +0.000 HD
ENDBRANCH   9  10
ENDBRANCH   8   9
ENDBRANCH   7   8
ENDBRANCH   1   7
BRANCH   4  13
ATOM     13  C   UNL     1      44.855   5.758  12.651  0.00  0.00    +0.000 C 
BRANCH  13  14
ATOM     14  N   UNL     1      45.476   7.080  12.614  0.00  0.00    +0.000 N 
ATOM     15  C   UNL     1      44.835   8.222  12.193  0.00  0.00    +0.000 A 
ATOM     16  C   UNL     1      45.771   9.221  12.072  0.00  0.00    +0.000 A 
ATOM     17  C   UNL     1      47.043   8.603  12.172  0.00  0.00    +0.000 A 
ATOM     18  C   UNL     1      48.348   9.014  11.839  0.00  0.00    +0.000 A 
ATOM     19  C   UNL     1      49.403   8.124  12.046  0.00  0.00    +0.000 A 
ATOM     20 CL   UNL     1      50.964   8.510  11.428  0.00  0.00    +0.000 Cl
ATOM     21  C   UNL     1      49.205   6.913  12.699  0.00  0.00    +0.000 A 
ATOM     22  C   UNL     1      47.916   6.490  13.045  0.00  0.00    +0.000 A 
ATOM     23  C   UNL     1      46.842   7.314  12.675  0.00  0.00    +0.000 A 
ENDBRANCH  13  14
ENDBRANCH   4  13
TORSDOF 6
ENDMDL
MODEL 5
REMARK VINA RESULT:    -5.035      5.039      7.128
REMARK INTER + INTRA:          -7.416
REMARK INTER:                  -6.785
REMARK INTRA:                  -0.631
REMARK UNBOUND:                -0.761
REMARK  Name = 
REMARK  6 active torsions:
REMARK  status: ('A' for Active; 'I' for Inactive)
REMARK    1  A    between atoms: N_1  and  C_2
REMARK    2  A    between atoms: C_2  and  C_3
REMARK    3  A    between atoms: C_3  and  O_4
REMARK    4  A    between atoms: O_4  and  C_5
REMARK    5  A    between atoms: C_8  and  C_9
REMARK    6  A    between atoms: C_9  and  N_10
REMARK                            x       y       z     vdW  Elec       q    Type
REMARK                         _______ _______ _______ _____ _____    ______ ____
ROOT
ATOM      1  C   UNL     1      51.069   2.126  17.470  0.00  0.00    +0.000 A 
ATOM      2  C   UNL     1      51.417   3.460  17.666  0.00  0.00    +0.000 A 
ATOM      3  C   UNL     1      50.478   4.476  17.427  0.00  0.00    +0.000 A 
ATOM      4  C   UNL     1      49.187   4.162  16.984  0.00  0.00    +0.000 A 
ATOM      5  C   UNL     1      48.856   2.824  16.771  0.00  0.00    +0.000 A 
ATOM      6  C   UNL     1      49.783   1.816  17.026  0.00  0.00    +0.000 A 
ENDROOT
BRANCH   1   7
ATOM      7  O   UNL     1      51.895   1.051  17.674  0.00  0.00    +0.000 OA
BRANCH   7   8
ATOM      8  C   UNL     1      53.258   1.338  17.996  0.00  0.00    +0.000 C 
BRANCH   8   9
ATOM      9  C   UNL     1      54.004   0.014  18.191  0.00  0.00    +0.000 C 
BRANCH   9  10
ATOM     10  N   UNL     1      53.132  -1.039  18.709  0.00  0.00    +0.000 NA
ATOM     11  H   UNL     1      52.275  -1.065  18.156  0.00  0.00    +0.000 HD
ATOM     12  H   UNL     1      52.845  -0.811  19.661  0.00  0.00    +0.000 HD
ENDBRANCH   9  10
ENDBRANCH   8   9
ENDBRANCH   7   8
ENDBRANCH   1   7
BRANCH   4  13
ATOM     13  C   UNL     1      48.168   5.252  16.792  0.00  0.00    +0.000 C 
BRANCH  13  14
ATOM     14  N   UNL     1      48.236   5.895  15.482  0.00  0.00    +0.000 N 
ATOM     15  C   UNL     1      48.760   7.149  15.264  0.00  0.00    +0.000 A 
ATOM     16  C   UNL     1      48.455   7.526  13.978  0.00  0.00    +0.000 A 
ATOM     17  C   UNL     1      47.505   6.592  13.494  0.00  0.00    +0.000 A 
ATOM     18  C   UNL     1      46.610   6.596  12.408  0.00  0.00    +0.000 A 
ATOM     19  C   UNL     1      45.771   5.495  12.226  0.00  0.00    +0.000 A 
ATOM     20 CL   UNL     1      44.509   5.580  11.057  0.00  0.00    +0.000 Cl
ATOM     21  C   UNL     1      45.906   4.352  13.007  0.00  0.00    +0.000 A 
ATOM     22  C   UNL     1      46.796   4.325  14.086  0.00  0.00    +0.000 A 
ATOM     23  C   UNL     1      47.510   5.500  14.368  0.00  0.00    +0.000 A 
ENDBRANCH  13  14
ENDBRANCH   4  13
TORSDOF 6
ENDMDL
MODEL 6
REMARK VINA RESULT:    -4.996      2.019      2.475
REMARK INTER + INTRA:          -7.364
REMARK INTER:                  -6.646
REMARK INTRA:                  -0.717
REMARK UNBOUND:                -0.761
REMARK  Name = 
REMARK  6 active torsions:
REMARK  status: ('A' for Active; 'I' for Inactive)
REMARK    1  A    between atoms: N_1  and  C_2
REMARK    2  A    between atoms: C_2  and  C_3
REMARK    3  A    between atoms: C_3  and  O_4
REMARK    4  A    between atoms: O_4  and  C_5
REMARK    5  A    between atoms: C_8  and  C_9
REMARK    6  A    between atoms: C_9  and  N_10
REMARK                            x       y       z     vdW  Elec       q    Type
REMARK                         _______ _______ _______ _____ _____    ______ ____
ROOT
ATOM      1  C   UNL     1      48.918   7.902  13.467  0.00  0.00    +0.000 A 
ATOM      2  C   UNL     1      48.760   7.009  12.411  0.00  0.00    +0.000 A 
ATOM      3  C   UNL     1      47.499   6.832  11.821  0.00  0.00    +0.000 A 
ATOM      4  C   UNL     1      46.387   7.542  12.289  0.00  0.00    +0.000 A 
ATOM      5  C   UNL     1      46.552   8.420  13.361  0.00  0.00    +0.000 A 
ATOM      6  C   UNL     1      47.808   8.608  13.935  0.00  0.00    +0.000 A 
ENDROOT
BRANCH   1   7
ATOM      7  O   UNL     1      50.095   8.164  14.119  0.00  0.00    +0.000 OA
BRANCH   7   8
ATOM      8  C   UNL     1      50.456   9.540  14.267  0.00  0.00    +0.000 C 
BRANCH   8   9
ATOM      9  C   UNL     1      51.899   9.721  13.785  0.00  0.00    +0.000 C 
BRANCH   9  10
ATOM     10  N   UNL     1      52.802   8.724  14.358  0.00  0.00    +0.000 NA
ATOM     11  H   UNL     1      52.560   7.804  13.989  0.00  0.00    +0.000 HD
ATOM     12  H   UNL     1      52.658   8.669  15.366  0.00  0.00    +0.000 HD
ENDBRANCH   9  10
ENDBRANCH   8   9
ENDBRANCH   7   8
ENDBRANCH   1   7
BRANCH   4  13
ATOM     13  C   UNL     1      45.054   7.393  11.610  0.00  0.00    +0.000 C 
BRANCH  13  14
ATOM     14  N   UNL     1      44.502   6.043  11.687  0.00  0.00    +0.000 N 
ATOM     15  C   UNL     1      44.108   5.437  12.858  0.00  0.00    +0.000 A 
ATOM     16  C   UNL     1      43.861   4.111  12.594  0.00  0.00    +0.000 A 
ATOM     17  C   UNL     1      44.365   3.852  11.295  0.00  0.00    +0.000 A 
ATOM     18  C   UNL     1      44.680   2.672  10.596  0.00  0.00    +0.000 A 
ATOM     19  C   UNL     1      45.198   2.777   9.303  0.00  0.00    +0.000 A 
ATOM     20 CL   UNL     1      45.813   1.368   8.525  0.00  0.00    +0.000 Cl
ATOM     21  C   UNL     1      45.270   4.005   8.655  0.00  0.00    +0.000 A 
ATOM     22  C   UNL     1      44.953   5.189   9.330  0.00  0.00    +0.000 A 
ATOM     23  C   UNL     1      44.601   5.089  10.685  0.00  0.00    +0.000 A 
ENDBRANCH  13  14
ENDBRANCH   4  13
TORSDOF 6
ENDMDL
MODEL 7
REMARK VINA RESULT:    -4.988      4.120      8.189
REMARK INTER + INTRA:          -7.353
REMARK INTER:                  -6.692
REMARK INTRA:                  -0.661
REMARK UNBOUND:                -0.761
REMARK  Name = 
REMARK  6 active torsions:
REMARK  status: ('A' for Active; 'I' for Inactive)
REMARK    1  A    between atoms: N_1  and  C_2
REMARK    2  A    between atoms: C_2  and  C_3
REMARK    3  A    between atoms: C_3  and  O_4
REMARK    4  A    between atoms: O_4  and  C_5
REMARK    5  A    between atoms: C_8  and  C_9
REMARK    6  A    between atoms: C_9  and  N_10
REMARK                            x       y       z     vdW  Elec       q    Type
REMARK                         _______ _______ _______ _____ _____    ______ ____
ROOT
ATOM      1  C   UNL     1      46.003   5.881  11.809  0.00  0.00    +0.000 A 
ATOM      2  C   UNL     1      46.308   5.107  12.925  0.00  0.00    +0.000 A 
ATOM      3  C   UNL     1      47.358   5.482  13.778  0.00  0.00    +0.000 A 
ATOM      4  C   UNL     1      48.113   6.631  13.513  0.00  0.00    +0.000 A 
ATOM      5  C   UNL     1      47.813   7.388  12.381  0.00  0.00    +0.000 A 
ATOM      6  C   UNL     1      46.759   7.024  11.545  0.00  0.00    +0.000 A 
ENDROOT
BRANCH   1   7
ATOM      7  O   UNL     1      45.001   5.621  10.909  0.00  0.00    +0.000 OA
BRANCH   7   8
ATOM      8  C   UNL     1      43.998   4.687  11.317  0.00  0.00    +0.000 C 
BRANCH   8   9
ATOM      9  C   UNL     1      42.782   5.467  11.827  0.00  0.00    +0.000 C 
BRANCH   9  10
ATOM     10  N   UNL     1      42.648   5.392  13.281  0.00  0.00    +0.000 NA
ATOM     11  H   UNL     1      43.577   5.347  13.699  0.00  0.00    +0.000 HD
ATOM     12  H   UNL     1      42.181   4.522  13.539  0.00  0.00    +0.000 HD
ENDBRANCH   9  10
ENDBRANCH   8   9
ENDBRANCH   7   8
ENDBRANCH   1   7
BRANCH   4  13
ATOM     13  C   UNL     1      49.195   7.060  14.466  0.00  0.00    +0.000 C 
BRANCH  13  14
ATOM     14  N   UNL     1      48.698   7.455  15.781  0.00  0.00    +0.000 N 
ATOM     15  C   UNL     1      48.502   8.760  16.172  0.00  0.00    +0.000 A 
ATOM     16  C   UNL     1      48.253   8.773  17.523  0.00  0.00    +0.000 A 
ATOM     17  C   UNL     1      48.562   7.476  18.007  0.00  0.00    +0.000 A 
ATOM     18  C   UNL     1      48.799   6.953  19.292  0.00  0.00    +0.000 A 
ATOM     19  C   UNL     1      49.112   5.599  19.417  0.00  0.00    +0.000 A 
ATOM     20 CL   UNL     1      49.640   4.992  20.940  0.00  0.00    +0.000 Cl
ATOM     21  C   UNL     1      49.052   4.743  18.322  0.00  0.00    +0.000 A 
ATOM     22  C   UNL     1      48.810   5.242  17.037  0.00  0.00    +0.000 A 
ATOM     23  C   UNL     1      48.670   6.632  16.897  0.00  0.00    +0.000 A 
ENDBRANCH  13  14
ENDBRANCH   4  13
TORSDOF 6
ENDMDL
MODEL 8
REMARK VINA RESULT:    -4.920      3.253      7.086
REMARK INTER + INTRA:          -7.263
REMARK INTER:                  -6.571
REMARK INTRA:                  -0.692
REMARK UNBOUND:                -0.761
REMARK  Name = 
REMARK  6 active torsions:
REMARK  status: ('A' for Active; 'I' for Inactive)
REMARK    1  A    between atoms: N_1  and  C_2
REMARK    2  A    between atoms: C_2  and  C_3
REMARK    3  A    between atoms: C_3  and  O_4
REMARK    4  A    between atoms: O_4  and  C_5
REMARK    5  A    between atoms: C_8  and  C_9
REMARK    6  A    between atoms: C_9  and  N_10
REMARK                            x       y       z     vdW  Elec       q    Type
REMARK                         _______ _______ _______ _____ _____    ______ ____
ROOT
ATOM      1  C   UNL     1      45.256   4.473  12.000  0.00  0.00    +0.000 A 
ATOM      2  C   UNL     1      44.911   5.633  11.314  0.00  0.00    +0.000 A 
ATOM      3  C   UNL     1      45.449   6.870  11.705  0.00  0.00    +0.000 A 
ATOM      4  C   UNL     1      46.328   6.952  12.791  0.00  0.00    +0.000 A 
ATOM      5  C   UNL     1      46.651   5.786  13.485  0.00  0.00    +0.000 A 
ATOM      6  C   UNL     1      46.131   4.557  13.084  0.00  0.00    +0.000 A 
ENDROOT
BRANCH   1   7
ATOM      7  O   UNL     1      44.803   3.212  11.710  0.00  0.00    +0.000 OA
BRANCH   7   8
ATOM      8  C   UNL     1      43.804   3.106  10.692  0.00  0.00    +0.000 C 
BRANCH   8   9
ATOM      9  C   UNL     1      44.458   2.557   9.420  0.00  0.00    +0.000 C 
BRANCH   9  10
ATOM     10  N   UNL     1      44.412   3.517   8.317  0.00  0.00    +0.000 NA
ATOM     11  H   UNL     1      44.493   4.461   8.694  0.00  0.00    +0.000 HD
ATOM     12  H   UNL     1      43.501   3.474   7.862  0.00  0.00    +0.000 HD
ENDBRANCH   9  10
ENDBRANCH   8   9
ENDBRANCH   7   8
ENDBRANCH   1   7
BRANCH   4  13
ATOM     13  C   UNL     1      46.948   8.271  13.163  0.00  0.00    +0.000 C 
BRANCH  13  14
ATOM     14  N   UNL     1      48.285   8.150  13.742  0.00  0.00    +0.000 N 
ATOM     15  C   UNL     1      48.595   8.478  15.041  0.00  0.00    +0.000 A 
ATOM     16  C   UNL     1      49.963   8.462  15.174  0.00  0.00    +0.000 A 
ATOM     17  C   UNL     1      50.499   8.377  13.865  0.00  0.00    +0.000 A 
ATOM     18  C   UNL     1      51.777   8.617  13.324  0.00  0.00    +0.000 A 
ATOM     19  C   UNL     1      51.963   8.461  11.950  0.00  0.00    +0.000 A 
ATOM     20 CL   UNL     1      53.442   8.978  11.235  0.00  0.00    +0.000 Cl
ATOM     21  C   UNL     1      50.956   7.942  11.142  0.00  0.00    +0.000 A 
ATOM     22  C   UNL     1      49.682   7.689  11.662  0.00  0.00    +0.000 A 
ATOM     23  C   UNL     1      49.454   8.015  13.009  0.00  0.00    +0.000 A 
ENDBRANCH  13  14
ENDBRANCH   4  13
TORSDOF 6
ENDMDL
MODEL 9
REMARK VINA RESULT:    -4.765      4.001      6.480
REMARK INTER + INTRA:          -7.059
REMARK INTER:                  -6.368
REMARK INTRA:                  -0.691
REMARK UNBOUND:                -0.761
REMARK  Name = 
REMARK  6 active torsions:
REMARK  status: ('A' for Active; 'I' for Inactive)
REMARK    1  A    between atoms: N_1  and  C_2
REMARK    2  A    between atoms: C_2  and  C_3
REMARK    3  A    between atoms: C_3  and  O_4
REMARK    4  A    between atoms: O_4  and  C_5
REMARK    5  A    between atoms: C_8  and  C_9
REMARK    6  A    between atoms: C_9  and  N_10
REMARK                            x       y       z     vdW  Elec       q    Type
REMARK                         _______ _______ _______ _____ _____    ______ ____
ROOT
ATOM      1  C   UNL     1      50.855   4.158  17.827  0.00  0.00    +0.000 A 
ATOM      2  C   UNL     1      49.469   4.094  17.716  0.00  0.00    +0.000 A 
ATOM      3  C   UNL     1      48.767   5.111  17.049  0.00  0.00    +0.000 A 
ATOM      4  C   UNL     1      49.449   6.201  16.497  0.00  0.00    +0.000 A 
ATOM      5  C   UNL     1      50.836   6.266  16.632  0.00  0.00    +0.000 A 
ATOM      6  C   UNL     1      51.533   5.247  17.277  0.00  0.00    +0.000 A 
ENDROOT
BRANCH   1   7
ATOM      7  O   UNL     1      51.648   3.226  18.446  0.00  0.00    +0.000 OA
BRANCH   7   8
ATOM      8  C   UNL     1      52.819   2.807  17.740  0.00  0.00    +0.000 C 
BRANCH   8   9
ATOM      9  C   UNL     1      52.912   1.279  17.812  0.00  0.00    +0.000 C 
BRANCH   9  10
ATOM     10  N   UNL     1      51.634   0.634  17.517  0.00  0.00    +0.000 NA
ATOM     11  H   UNL     1      51.808  -0.312  17.179  0.00  0.00    +0.000 HD
ATOM     12  H   UNL     1      51.169   1.125  16.754  0.00  0.00    +0.000 HD
ENDBRANCH   9  10
ENDBRANCH   8   9
ENDBRANCH   7   8
ENDBRANCH   1   7
BRANCH   4  13
ATOM     13  C   UNL     1      48.696   7.254  15.731  0.00  0.00    +0.000 C 
BRANCH  13  14
ATOM     14  N   UNL     1      48.668   7.024  14.288  0.00  0.00    +0.000 N 
ATOM     15  C   UNL     1      49.406   7.744  13.377  0.00  0.00    +0.000 A 
ATOM     16  C   UNL     1      48.966   7.422  12.116  0.00  0.00    +0.000 A 
ATOM     17  C   UNL     1      47.764   6.688  12.277  0.00  0.00    +0.000 A 
ATOM     18  C   UNL     1      46.712   6.348  11.406  0.00  0.00    +0.000 A 
ATOM     19  C   UNL     1      45.634   5.618  11.909  0.00  0.00    +0.000 A 
ATOM     20 CL   UNL     1      44.234   5.399  10.931  0.00  0.00    +0.000 Cl
ATOM     21  C   UNL     1      45.653   5.107  13.203  0.00  0.00    +0.000 A 
ATOM     22  C   UNL     1      46.694   5.427  14.082  0.00  0.00    +0.000 A 
ATOM     23  C   UNL     1      47.686   6.306  13.621  0.00  0.00    +0.000 A 
ENDBRANCH  13  14
ENDBRANCH   4  13
TORSDOF 6
ENDMDL
