MODEL 1
REMARK VINA RESULT:    -7.665      0.000      0.000
REMARK INTER + INTRA:          -9.367
REMARK INTER:                  -9.009
REMARK INTRA:                  -0.358
REMARK UNBOUND:                -0.358
REMARK  Name = 
REMARK  3 active torsions:
REMARK  status: ('A' for Active; 'I' for Inactive)
REMARK    1  A    between atoms: C_2  and  C_4
REMARK    2  A    between atoms: N_8  and  C_9
REMARK    3  A    between atoms: C_9  and  C_10
REMARK                            x       y       z     vdW  Elec       q    Type
REMARK                         _______ _______ _______ _____ _____    ______ ____
ROOT
ATOM      1  C   UNL     1      46.341   2.097   7.834  0.00  0.00    +0.000 A 
ATOM      2  C   UNL     1      46.401   3.401   7.355  0.00  0.00    +0.000 A 
ATOM      3  C   UNL     1      45.712   4.402   8.037  0.00  0.00    +0.000 A 
ATOM      4  C   UNL     1      44.996   4.092   9.195  0.00  0.00    +0.000 A 
ATOM      5  N   UNL     1      44.468   5.149   9.919  0.00  0.00    +0.000 N 
ATOM      6  N   UNL     1      44.909   2.827   9.648  0.00  0.00    +0.000 NA
ATOM      7  C   UNL     1      45.560   1.856   8.954  0.00  0.00    +0.000 A 
ATOM      8  H   UNL     1      43.884   5.762   9.364  0.00  0.00    +0.000 HD
ENDROOT
BRANCH   1  10
ATOM      9  N   UNL     1      46.751  -0.285   7.621  0.00  0.00    +0.000 N 
ATOM     10  C   UNL     1      47.080   0.980   7.214  0.00  0.00    +0.000 C 
ATOM     11  O   UNL     1      47.911   1.171   6.338  0.00  0.00    +0.000 OA
ATOM     12  H   UNL     1      47.174  -1.045   7.103  0.00  0.00    +0.000 HD
ATOM     13  H   UNL     1      45.903  -0.488   8.131  0.00  0.00    +0.000 HD
ENDBRANCH   1  10
BRANCH   5  14
ATOM     14  C   UNL     1      43.980   4.916  11.263  0.00  0.00    +0.000 C 
BRANCH  14  15
ATOM     15  C   UNL     1      45.175   5.032  12.178  0.00  0.00    +0.000 A 
ATOM     16  C   UNL     1      45.958   6.187  12.223  0.00  0.00    +0.000 A 
ATOM     17  C   UNL     1      47.091   6.185  13.024  0.00  0.00    +0.000 A 
ATOM     18  N   UNL     1      47.491   5.130  13.766  0.00  0.00    +0.000 NA
ATOM     19  C   UNL     1      46.725   4.021  13.702  0.00  0.00    +0.000 A 
ATOM     20  C   UNL     1      45.577   3.924  12.935  0.00  0.00    +0.000 A 
ENDBRANCH  14  15
ENDBRANCH   5  14
TORSDOF 3
ENDMDL
MODEL 2
REMARK VINA RESULT:    -7.523      2.554      6.160
REMARK INTER + INTRA:          -9.200
REMARK INTER:                  -8.804
REMARK INTRA:                  -0.396
REMARK UNBOUND:                -0.358
REMARK  Name = 
REMARK  3 active torsions:
REMARK  status: ('A' for Active; 'I' for Inactive)
REMARK    1  A    between atoms: C_2  and  C_4
REMARK    2  A    between atoms: N_8  and  C_9
REMARK    3  A    between atoms: C_9  and  C_10
REMARK                            x       y       z     vdW  Elec       q    Type
REMARK                         _______ _______ _______ _____ _____    ______ ____
ROOT
ATOM      1  C   UNL     1      46.437   5.557  12.730  0.00  0.00    +0.000 A 
ATOM      2  C   UNL     1      45.858   4.339  13.068  0.00  0.00    +0.000 A 
ATOM      3  C   UNL     1      45.154   3.633  12.094  0.00  0.00    +0.000 A 
ATOM      4  C   UNL     1      45.058   4.140  10.797  0.00  0.00    +0.000 A 
ATOM      5  N   UNL     1      44.488   3.323   9.834  0.00  0.00    +0.000 N 
ATOM      6  N   UNL     1      45.591   5.333  10.470  0.00  0.00    +0.000 NA
ATOM      7  C   UNL     1      46.247   6.025  11.439  0.00  0.00    +0.000 A 
ATOM      8  H   UNL     1      43.569   2.985  10.089  0.00  0.00    +0.000 HD
ENDROOT
BRANCH   1  10
ATOM      9  N   UNL     1      46.958   7.684  13.773  0.00  0.00    +0.000 N 
ATOM     10  C   UNL     1      47.247   6.350  13.674  0.00  0.00    +0.000 C 
ATOM     11  O   UNL     1      48.103   5.830  14.376  0.00  0.00    +0.000 OA
ATOM     12  H   UNL     1      47.433   8.191  14.510  0.00  0.00    +0.000 HD
ATOM     13  H   UNL     1      46.100   8.082  13.417  0.00  0.00    +0.000 HD
ENDBRANCH   1  10
BRANCH   5  14
ATOM     14  C   UNL     1      44.630   3.669   8.434  0.00  0.00    +0.000 C 
BRANCH  14  15
ATOM     15  C   UNL     1      45.797   2.867   7.911  0.00  0.00    +0.000 A 
ATOM     16  C   UNL     1      46.736   3.418   7.038  0.00  0.00    +0.000 A 
ATOM     17  C   UNL     1      47.730   2.593   6.531  0.00  0.00    +0.000 A 
ATOM     18  N   UNL     1      47.847   1.281   6.827  0.00  0.00    +0.000 NA
ATOM     19  C   UNL     1      46.924   0.765   7.665  0.00  0.00    +0.000 A 
ATOM     20  C   UNL     1      45.897   1.505   8.224  0.00  0.00    +0.000 A 
ENDBRANCH  14  15
ENDBRANCH   5  14
TORSDOF 3
ENDMDL
MODEL 3
REMARK VINA RESULT:    -6.625      2.790      6.279
REMARK INTER + INTRA:          -8.145
REMARK INTER:                  -7.841
REMARK INTRA:                  -0.304
REMARK UNBOUND:                -0.358
REMARK  Name = 
REMARK  3 active torsions:
REMARK  status: ('A' for Active; 'I' for Inactive)
REMARK    1  A    between atoms: C_2  and  C_4
REMARK    2  A    between atoms: N_8  and  C_9
REMARK    3  A    between atoms: C_9  and  C_10
REMARK                            x       y       z     vdW  Elec       q    Type
REMARK                         _______ _______ _______ _____ _____    ______ ____
ROOT
ATOM      1  C   UNL     1      45.080   6.380  11.910  0.00  0.00    +0.000 A 
ATOM      2  C   UNL     1      45.726   5.366  12.608  0.00  0.00    +0.000 A 
ATOM      3  C   UNL     1      45.611   4.055  12.153  0.00  0.00    +0.000 A 
ATOM      4  C   UNL     1      44.875   3.779  10.999  0.00  0.00    +0.000 A 
ATOM      5  N   UNL     1      44.930   2.486  10.503  0.00  0.00    +0.000 N 
ATOM      6  N   UNL     1      44.222   4.751  10.334  0.00  0.00    +0.000 NA
ATOM      7  C   UNL     1      44.318   6.021  10.809  0.00  0.00    +0.000 A 
ATOM      8  H   UNL     1      44.681   1.783  11.188  0.00  0.00    +0.000 HD
ENDROOT
BRANCH   1  10
ATOM      9  N   UNL     1      45.939   8.106  13.384  0.00  0.00    +0.000 N 
ATOM     10  C   UNL     1      45.186   7.805  12.281  0.00  0.00    +0.000 C 
ATOM     11  O   UNL     1      44.668   8.682  11.605  0.00  0.00    +0.000 OA
ATOM     12  H   UNL     1      46.107   9.090  13.555  0.00  0.00    +0.000 HD
ATOM     13  H   UNL     1      46.586   7.448  13.795  0.00  0.00    +0.000 HD
ENDBRANCH   1  10
BRANCH   5  14
ATOM     14  C   UNL     1      44.438   2.216   9.167  0.00  0.00    +0.000 C 
BRANCH  14  15
ATOM     15  C   UNL     1      45.647   2.187   8.264  0.00  0.00    +0.000 A 
ATOM     16  C   UNL     1      46.338   1.003   7.998  0.00  0.00    +0.000 A 
ATOM     17  C   UNL     1      47.492   1.072   7.230  0.00  0.00    +0.000 A 
ATOM     18  N   UNL     1      47.996   2.217   6.721  0.00  0.00    +0.000 NA
ATOM     19  C   UNL     1      47.318   3.350   6.998  0.00  0.00    +0.000 A 
ATOM     20  C   UNL     1      46.158   3.386   7.752  0.00  0.00    +0.000 A 
ENDBRANCH  14  15
ENDBRANCH   5  14
TORSDOF 3
ENDMDL
MODEL 4
REMARK VINA RESULT:    -5.994      3.466      5.584
REMARK INTER + INTRA:          -7.402
REMARK INTER:                  -7.110
REMARK INTRA:                  -0.292
REMARK UNBOUND:                -0.358
REMARK  Name = 
REMARK  3 active torsions:
REMARK  status: ('A' for Active; 'I' for Inactive)
REMARK    1  A    between atoms: C_2  and  C_4
REMARK    2  A    between atoms: N_8  and  C_9
REMARK    3  A    between atoms: C_9  and  C_10
REMARK                            x       y       z     vdW  Elec       q    Type
REMARK                         _______ _______ _______ _____ _____    ______ ____
ROOT
ATOM      1  C   UNL     1      45.455   5.047  11.623  0.00  0.00    +0.000 A 
ATOM      2  C   UNL     1      46.363   6.046  11.956  0.00  0.00    +0.000 A 
ATOM      3  C   UNL     1      46.904   6.065  13.240  0.00  0.00    +0.000 A 
ATOM      4  C   UNL     1      46.550   5.077  14.161  0.00  0.00    +0.000 A 
ATOM      5  N   UNL     1      47.239   5.050  15.363  0.00  0.00    +0.000 N 
ATOM      6  N   UNL     1      45.649   4.124  13.855  0.00  0.00    +0.000 NA
ATOM      7  C   UNL     1      45.106   4.138  12.609  0.00  0.00    +0.000 A 
ATOM      8  H   UNL     1      47.219   5.935  15.855  0.00  0.00    +0.000 HD
ENDROOT
BRANCH   1  10
ATOM      9  N   UNL     1      45.652   5.289   9.216  0.00  0.00    +0.000 N 
ATOM     10  C   UNL     1      44.871   4.911  10.274  0.00  0.00    +0.000 C 
ATOM     11  O   UNL     1      43.758   4.434  10.105  0.00  0.00    +0.000 OA
ATOM     12  H   UNL     1      45.290   5.076   8.295  0.00  0.00    +0.000 HD
ATOM     13  H   UNL     1      46.649   5.429   9.301  0.00  0.00    +0.000 HD
ENDBRANCH   1  10
BRANCH   5  14
ATOM     14  C   UNL     1      47.126   3.888  16.221  0.00  0.00    +0.000 C 
BRANCH  14  15
ATOM     15  C   UNL     1      48.502   3.644  16.793  0.00  0.00    +0.000 A 
ATOM     16  C   UNL     1      49.317   4.693  17.223  0.00  0.00    +0.000 A 
ATOM     17  C   UNL     1      50.602   4.396  17.653  0.00  0.00    +0.000 A 
ATOM     18  N   UNL     1      51.121   3.150  17.682  0.00  0.00    +0.000 NA
ATOM     19  C   UNL     1      50.320   2.152  17.255  0.00  0.00    +0.000 A 
ATOM     20  C   UNL     1      49.025   2.345  16.808  0.00  0.00    +0.000 A 
ENDBRANCH  14  15
ENDBRANCH   5  14
TORSDOF 3
ENDMDL
MODEL 5
REMARK VINA RESULT:    -5.977      3.175      4.944
REMARK INTER + INTRA:          -7.383
REMARK INTER:                  -7.123
REMARK INTRA:                  -0.261
REMARK UNBOUND:                -0.358
REMARK  Name = 
REMARK  3 active torsions:
REMARK  status: ('A' for Active; 'I' for Inactive)
REMARK    1  A    between atoms: C_2  and  C_4
REMARK    2  A    between atoms: N_8  and  C_9
REMARK    3  A    between atoms: C_9  and  C_10
REMARK                            x       y       z     vdW  Elec       q    Type
REMARK                         _______ _______ _______ _____ _____    ______ ____
ROOT
ATOM      1  C   UNL     1      44.953   4.042  10.999  0.00  0.00    +0.000 A 
ATOM      2  C   UNL     1      45.347   5.364  11.176  0.00  0.00    +0.000 A 
ATOM      3  C   UNL     1      45.904   5.745  12.395  0.00  0.00    +0.000 A 
ATOM      4  C   UNL     1      46.080   4.800  13.407  0.00  0.00    +0.000 A 
ATOM      5  N   UNL     1      46.785   5.197  14.533  0.00  0.00    +0.000 N 
ATOM      6  N   UNL     1      45.674   3.525  13.255  0.00  0.00    +0.000 NA
ATOM      7  C   UNL     1      45.103   3.176  12.072  0.00  0.00    +0.000 A 
ATOM      8  H   UNL     1      46.409   6.030  14.967  0.00  0.00    +0.000 HD
ENDROOT
BRANCH   1  10
ATOM      9  N   UNL     1      44.049   4.457   8.787  0.00  0.00    +0.000 N 
ATOM     10  C   UNL     1      44.405   3.531   9.729  0.00  0.00    +0.000 C 
ATOM     11  O   UNL     1      44.319   2.331   9.506  0.00  0.00    +0.000 OA
ATOM     12  H   UNL     1      43.792   4.094   7.877  0.00  0.00    +0.000 HD
ATOM     13  H   UNL     1      44.351   5.421   8.831  0.00  0.00    +0.000 HD
ENDBRANCH   1  10
BRANCH   5  14
ATOM     14  C   UNL     1      47.249   4.194  15.470  0.00  0.00    +0.000 C 
BRANCH  14  15
ATOM     15  C   UNL     1      47.886   4.943  16.616  0.00  0.00    +0.000 A 
ATOM     16  C   UNL     1      47.549   4.679  17.945  0.00  0.00    +0.000 A 
ATOM     17  C   UNL     1      48.111   5.470  18.937  0.00  0.00    +0.000 A 
ATOM     18  N   UNL     1      48.968   6.487  18.700  0.00  0.00    +0.000 NA
ATOM     19  C   UNL     1      49.274   6.730  17.409  0.00  0.00    +0.000 A 
ATOM     20  C   UNL     1      48.767   5.999  16.349  0.00  0.00    +0.000 A 
ENDBRANCH  14  15
ENDBRANCH   5  14
TORSDOF 3
ENDMDL
MODEL 6
REMARK VINA RESULT:    -5.901      3.076      6.501
REMARK INTER + INTRA:          -7.293
REMARK INTER:                  -7.256
REMARK INTRA:                  -0.037
REMARK UNBOUND:                -0.358
REMARK  Name = 
REMARK  3 active torsions:
REMARK  status: ('A' for Active; 'I' for Inactive)
REMARK    1  A    between atoms: C_2  and  C_4
REMARK    2  A    between atoms: N_8  and  C_9
REMARK    3  A    between atoms: C_9  and  C_10
REMARK                            x       y       z     vdW  Elec       q    Type
REMARK                         _______ _______ _______ _____ _____    ______ ____
ROOT
ATOM      1  C   UNL     1      46.736   7.794  12.877  0.00  0.00    +0.000 A 
ATOM      2  C   UNL     1      45.698   8.425  12.201  0.00  0.00    +0.000 A 
ATOM      3  C   UNL     1      44.839   7.656  11.417  0.00  0.00    +0.000 A 
ATOM      4  C   UNL     1      45.015   6.274  11.339  0.00  0.00    +0.000 A 
ATOM      5  N   UNL     1      44.038   5.544  10.680  0.00  0.00    +0.000 N 
ATOM      6  N   UNL     1      46.036   5.660  11.967  0.00  0.00    +0.000 NA
ATOM      7  C   UNL     1      46.884   6.427  12.702  0.00  0.00    +0.000 A 
ATOM      8  H   UNL     1      43.858   5.874   9.740  0.00  0.00    +0.000 HD
ENDROOT
BRANCH   1  10
ATOM      9  N   UNL     1      47.171   8.913  14.985  0.00  0.00    +0.000 N 
ATOM     10  C   UNL     1      47.663   8.512  13.773  0.00  0.00    +0.000 C 
ATOM     11  O   UNL     1      48.834   8.695  13.469  0.00  0.00    +0.000 OA
ATOM     12  H   UNL     1      47.846   9.292  15.639  0.00  0.00    +0.000 HD
ATOM     13  H   UNL     1      46.310   8.549  15.369  0.00  0.00    +0.000 HD
ENDBRANCH   1  10
BRANCH   5  14
ATOM     14  C   UNL     1      44.012   4.102  10.821  0.00  0.00    +0.000 C 
BRANCH  14  15
ATOM     15  C   UNL     1      44.758   3.543   9.634  0.00  0.00    +0.000 A 
ATOM     16  C   UNL     1      44.996   2.174   9.493  0.00  0.00    +0.000 A 
ATOM     17  C   UNL     1      45.766   1.746   8.420  0.00  0.00    +0.000 A 
ATOM     18  N   UNL     1      46.307   2.572   7.499  0.00  0.00    +0.000 NA
ATOM     19  C   UNL     1      46.073   3.891   7.659  0.00  0.00    +0.000 A 
ATOM     20  C   UNL     1      45.318   4.417   8.693  0.00  0.00    +0.000 A 
ENDBRANCH  14  15
ENDBRANCH   5  14
TORSDOF 3
ENDMDL
MODEL 7
REMARK VINA RESULT:    -5.730      4.593      8.127
REMARK INTER + INTRA:          -7.093
REMARK INTER:                  -6.867
REMARK INTRA:                  -0.226
REMARK UNBOUND:                -0.358
REMARK  Name = 
REMARK  3 active torsions:
REMARK  status: ('A' for Active; 'I' for Inactive)
REMARK    1  A    between atoms: C_2  and  C_4
REMARK    2  A    between atoms: N_8  and  C_9
REMARK    3  A    between atoms: C_9  and  C_10
REMARK                            x       y       z     vdW  Elec       q    Type
REMARK                         _______ _______ _______ _____ _____    ______ ____
ROOT
ATOM      1  C   UNL     1      49.425   4.330  17.768  0.00  0.00    +0.000 A 
ATOM      2  C   UNL     1      48.553   3.247  17.775  0.00  0.00    +0.000 A 
ATOM      3  C   UNL     1      47.527   3.201  16.833  0.00  0.00    +0.000 A 
ATOM      4  C   UNL     1      47.401   4.221  15.889  0.00  0.00    +0.000 A 
ATOM      5  N   UNL     1      46.468   4.043  14.880  0.00  0.00    +0.000 N 
ATOM      6  N   UNL     1      48.223   5.288  15.894  0.00  0.00    +0.000 NA
ATOM      7  C   UNL     1      49.199   5.334  16.839  0.00  0.00    +0.000 A 
ATOM      8  H   UNL     1      45.538   3.842  15.225  0.00  0.00    +0.000 HD
ENDROOT
BRANCH   1  10
ATOM      9  N   UNL     1      50.297   4.459  20.029  0.00  0.00    +0.000 N 
ATOM     10  C   UNL     1      50.573   4.442  18.688  0.00  0.00    +0.000 C 
ATOM     11  O   UNL     1      51.724   4.467  18.275  0.00  0.00    +0.000 OA
ATOM     12  H   UNL     1      51.096   4.411  20.650  0.00  0.00    +0.000 HD
ATOM     13  H   UNL     1      49.402   4.174  20.402  0.00  0.00    +0.000 HD
ENDBRANCH   1  10
BRANCH   5  14
ATOM     14  C   UNL     1      46.498   4.913  13.721  0.00  0.00    +0.000 C 
BRANCH  14  15
ATOM     15  C   UNL     1      45.260   4.597  12.917  0.00  0.00    +0.000 A 
ATOM     16  C   UNL     1      44.135   5.422  12.945  0.00  0.00    +0.000 A 
ATOM     17  C   UNL     1      43.004   5.019  12.248  0.00  0.00    +0.000 A 
ATOM     18  N   UNL     1      42.919   3.871  11.542  0.00  0.00    +0.000 NA
ATOM     19  C   UNL     1      44.015   3.084  11.536  0.00  0.00    +0.000 A 
ATOM     20  C   UNL     1      45.190   3.398  12.197  0.00  0.00    +0.000 A 
ENDBRANCH  14  15
ENDBRANCH   5  14
TORSDOF 3
ENDMDL
MODEL 8
REMARK VINA RESULT:    -5.564      4.158      7.410
REMARK INTER + INTRA:          -6.897
REMARK INTER:                  -6.612
REMARK INTRA:                  -0.285
REMARK UNBOUND:                -0.358
REMARK  Name = 
REMARK  3 active torsions:
REMARK  status: ('A' for Active; 'I' for Inactive)
REMARK    1  A    between atoms: C_2  and  C_4
REMARK    2  A    between atoms: N_8  and  C_9
REMARK    3  A    between atoms: C_9  and  C_10
REMARK                            x       y       z     vdW  Elec       q    Type
REMARK                         _______ _______ _______ _____ _____    ______ ____
ROOT
ATOM      1  C   UNL     1      48.490   4.424  17.103  0.00  0.00    +0.000 A 
ATOM      2  C   UNL     1      48.798   5.622  16.468  0.00  0.00    +0.000 A 
ATOM      3  C   UNL     1      48.119   5.959  15.300  0.00  0.00    +0.000 A 
ATOM      4  C   UNL     1      47.130   5.111  14.797  0.00  0.00    +0.000 A 
ATOM      5  N   UNL     1      46.378   5.573  13.729  0.00  0.00    +0.000 N 
ATOM      6  N   UNL     1      46.847   3.936  15.390  0.00  0.00    +0.000 NA
ATOM      7  C   UNL     1      47.541   3.605  16.512  0.00  0.00    +0.000 A 
ATOM      8  H   UNL     1      46.940   5.871  12.942  0.00  0.00    +0.000 HD
ENDROOT
BRANCH   1  10
ATOM      9  N   UNL     1      48.382   3.184  19.186  0.00  0.00    +0.000 N 
ATOM     10  C   UNL     1      49.115   4.005  18.373  0.00  0.00    +0.000 C 
ATOM     11  O   UNL     1      50.257   4.334  18.663  0.00  0.00    +0.000 OA
ATOM     12  H   UNL     1      48.866   2.804  19.991  0.00  0.00    +0.000 HD
ATOM     13  H   UNL     1      47.565   2.687  18.861  0.00  0.00    +0.000 HD
ENDBRANCH   1  10
BRANCH   5  14
ATOM     14  C   UNL     1      45.162   4.875  13.362  0.00  0.00    +0.000 C 
BRANCH  14  15
ATOM     15  C   UNL     1      45.247   4.621  11.876  0.00  0.00    +0.000 A 
ATOM     16  C   UNL     1      45.653   5.613  10.982  0.00  0.00    +0.000 A 
ATOM     17  C   UNL     1      45.620   5.331   9.624  0.00  0.00    +0.000 A 
ATOM     18  N   UNL     1      45.215   4.151   9.106  0.00  0.00    +0.000 NA
ATOM     19  C   UNL     1      44.819   3.209   9.986  0.00  0.00    +0.000 A 
ATOM     20  C   UNL     1      44.816   3.393  11.358  0.00  0.00    +0.000 A 
ENDBRANCH  14  15
ENDBRANCH   5  14
TORSDOF 3
ENDMDL
MODEL 9
REMARK VINA RESULT:    -4.954      3.906      6.849
REMARK INTER + INTRA:          -6.180
REMARK INTER:                  -5.867
REMARK INTRA:                  -0.313
REMARK UNBOUND:                -0.358
REMARK  Name = 
REMARK  3 active torsions:
REMARK  status: ('A' for Active; 'I' for Inactive)
REMARK    1  A    between atoms: C_2  and  C_4
REMARK    2  A    between atoms: N_8  and  C_9
REMARK    3  A    between atoms: C_9  and  C_10
REMARK                            x       y       z     vdW  Elec       q    Type
REMARK                         _______ _______ _______ _____ _____    ______ ____
ROOT
ATOM      1  C   UNL     1      49.716   7.793  13.588  0.00  0.00    +0.000 A 
ATOM      2  C   UNL     1      49.432   8.164  12.278  0.00  0.00    +0.000 A 
ATOM      3  C   UNL     1      48.241   7.733  11.698  0.00  0.00    +0.000 A 
ATOM      4  C   UNL     1      47.344   6.961  12.437  0.00  0.00    +0.000 A 
ATOM      5  N   UNL     1      46.108   6.699  11.867  0.00  0.00    +0.000 N 
ATOM      6  N   UNL     1      47.625   6.572  13.696  0.00  0.00    +0.000 NA
ATOM      7  C   UNL     1      48.805   6.973  14.237  0.00  0.00    +0.000 A 
ATOM      8  H   UNL     1      46.172   6.280  10.948  0.00  0.00    +0.000 HD
ENDROOT
BRANCH   1  10
ATOM      9  N   UNL     1      52.129   7.791  13.843  0.00  0.00    +0.000 N 
ATOM     10  C   UNL     1      50.923   8.244  14.307  0.00  0.00    +0.000 C 
ATOM     11  O   UNL     1      50.855   9.028  15.243  0.00  0.00    +0.000 OA
ATOM     12  H   UNL     1      52.952   8.203  14.264  0.00  0.00    +0.000 HD
ATOM     13  H   UNL     1      52.236   7.371  12.931  0.00  0.00    +0.000 HD
ENDBRANCH   1  10
BRANCH   5  14
ATOM     14  C   UNL     1      45.043   6.165  12.692  0.00  0.00    +0.000 C 
BRANCH  14  15
ATOM     15  C   UNL     1      44.506   4.955  11.967  0.00  0.00    +0.000 A 
ATOM     16  C   UNL     1      43.738   3.988  12.618  0.00  0.00    +0.000 A 
ATOM     17  C   UNL     1      43.356   2.860  11.906  0.00  0.00    +0.000 A 
ATOM     18  N   UNL     1      43.683   2.633  10.615  0.00  0.00    +0.000 NA
ATOM     19  C   UNL     1      44.433   3.576  10.008  0.00  0.00    +0.000 A 
ATOM     20  C   UNL     1      44.863   4.734  10.631  0.00  0.00    +0.000 A 
ENDBRANCH  14  15
ENDBRANCH   5  14
TORSDOF 3
ENDMDL
