MODEL 1
REMARK VINA RESULT:    -7.602      0.000      0.000
REMARK INTER + INTRA:          -9.599
REMARK INTER:                  -8.935
REMARK INTRA:                  -0.663
REMARK UNBOUND:                -0.663
REMARK  Name = 
REMARK  4 active torsions:
REMARK  status: ('A' for Active; 'I' for Inactive)
REMARK    1  A    between atoms: C_1  and  C_2
REMARK    2  A    between atoms: C_9  and  C_10
REMARK    3  A    between atoms: N_14  and  C_15
REMARK    4  A    between atoms: C_15  and  C_16
REMARK                            x       y       z     vdW  Elec       q    Type
REMARK                         _______ _______ _______ _____ _____    ______ ____
ROOT
ATOM      1  C   UNL     1      46.846   1.241   7.604  0.00  0.00    +0.000 C 
ATOM      2  C   UNL     1      45.971   2.301   8.154  0.00  0.00    +0.000 C 
ATOM      3  C   UNL     1      46.122   3.729   7.771  0.00  0.00    +0.000 C 
ATOM      4  N   UNL     1      45.664   4.779   8.384  0.00  0.00    +0.000 NA
ATOM      5  C   UNL     1      44.940   4.599   9.548  0.00  0.00    +0.000 C 
ATOM      6  C   UNL     1      44.481   3.196   9.796  0.00  0.00    +0.000 C 
ATOM      7  C   UNL     1      45.030   2.070   9.073  0.00  0.00    +0.000 C 
ATOM      8  C   UNL     1      43.746   2.906  10.883  0.00  0.00    +0.000 C 
ATOM      9  C   UNL     1      43.752   3.861  11.969  0.00  0.00    +0.000 C 
ATOM     10  C   UNL     1      43.783   5.157  11.617  0.00  0.00    +0.000 C 
ATOM     11  N   UNL     1      44.639   5.555  10.553  0.00  0.00    +0.000 N 
ENDROOT
BRANCH   9  12
ATOM     12  C   UNL     1      44.864   3.628  12.984  0.00  0.00    +0.000 C 
ATOM     13  N   UNL     1      45.670   2.562  12.711  0.00  0.00    +0.000 N 
ATOM     14  O   UNL     1      45.175   4.418  13.879  0.00  0.00    +0.000 OA
ATOM     15  H   UNL     1      45.534   1.964  11.910  0.00  0.00    +0.000 HD
ATOM     16  H   UNL     1      46.599   2.626  13.103  0.00  0.00    +0.000 HD
ENDBRANCH   9  12
BRANCH  11  17
ATOM     17  C   UNL     1      45.316   6.865  10.736  0.00  0.00    +0.000 C 
BRANCH  17  18
ATOM     18  C   UNL     1      46.306   7.114  11.865  0.00  0.00    +0.000 A 
ATOM     19  C   UNL     1      46.080   8.256  12.665  0.00  0.00    +0.000 A 
ATOM     20  C   UNL     1      46.907   8.591  13.731  0.00  0.00    +0.000 A 
ATOM     21  C   UNL     1      48.012   7.782  14.020  0.00  0.00    +0.000 A 
ATOM     22  C   UNL     1      48.254   6.650  13.241  0.00  0.00    +0.000 A 
ATOM     23  C   UNL     1      47.397   6.308  12.193  0.00  0.00    +0.000 A 
ENDBRANCH  17  18
ENDBRANCH  11  17
TORSDOF 3
ENDMDL
MODEL 2
REMARK VINA RESULT:    -6.169      2.080      2.856
REMARK INTER + INTRA:          -7.914
REMARK INTER:                  -7.439
REMARK INTRA:                  -0.475
REMARK UNBOUND:                -0.663
REMARK  Name = 
REMARK  4 active torsions:
REMARK  status: ('A' for Active; 'I' for Inactive)
REMARK    1  A    between atoms: C_1  and  C_2
REMARK    2  A    between atoms: C_9  and  C_10
REMARK    3  A    between atoms: N_14  and  C_15
REMARK    4  A    between atoms: C_15  and  C_16
REMARK                            x       y       z     vdW  Elec       q    Type
REMARK                         _______ _______ _______ _____ _____    ______ ____
ROOT
ATOM      1  C   UNL     1      46.253   2.289   7.879  0.00  0.00    +0.000 C 
ATOM      2  C   UNL     1      45.668   3.250   8.841  0.00  0.00    +0.000 C 
ATOM      3  C   UNL     1      45.554   4.701   8.540  0.00  0.00    +0.000 C 
ATOM      4  N   UNL     1      45.369   5.683   9.370  0.00  0.00    +0.000 NA
ATOM      5  C   UNL     1      45.260   5.395  10.717  0.00  0.00    +0.000 C 
ATOM      6  C   UNL     1      45.038   3.950  11.039  0.00  0.00    +0.000 C 
ATOM      7  C   UNL     1      45.259   2.905  10.064  0.00  0.00    +0.000 C 
ATOM      8  C   UNL     1      44.890   3.555  12.315  0.00  0.00    +0.000 C 
ATOM      9  C   UNL     1      45.338   4.460  13.351  0.00  0.00    +0.000 C 
ATOM     10  C   UNL     1      45.138   5.769  13.121  0.00  0.00    +0.000 C 
ATOM     11  N   UNL     1      45.398   6.279  11.818  0.00  0.00    +0.000 N 
ENDROOT
BRANCH   9  12
ATOM     12  C   UNL     1      46.798   4.274  13.739  0.00  0.00    +0.000 C 
ATOM     13  N   UNL     1      47.116   3.023  14.181  0.00  0.00    +0.000 N 
ATOM     14  O   UNL     1      47.697   5.087  13.506  0.00  0.00    +0.000 OA
ATOM     15  H   UNL     1      46.436   2.282  14.259  0.00  0.00    +0.000 HD
ATOM     16  H   UNL     1      48.085   2.765  14.055  0.00  0.00    +0.000 HD
ENDBRANCH   9  12
BRANCH  11  17
ATOM     17  C   UNL     1      46.014   7.630  11.777  0.00  0.00    +0.000 C 
BRANCH  17  18
ATOM     18  C   UNL     1      45.187   8.893  11.579  0.00  0.00    +0.000 A 
ATOM     19  C   UNL     1      45.812  10.117  11.905  0.00  0.00    +0.000 A 
ATOM     20  C   UNL     1      45.168  11.341  11.761  0.00  0.00    +0.000 A 
ATOM     21  C   UNL     1      43.850  11.369  11.292  0.00  0.00    +0.000 A 
ATOM     22  C   UNL     1      43.214  10.170  10.965  0.00  0.00    +0.000 A 
ATOM     23  C   UNL     1      43.883   8.951  11.085  0.00  0.00    +0.000 A 
ENDBRANCH  17  18
ENDBRANCH  11  17
TORSDOF 3
ENDMDL
MODEL 3
REMARK VINA RESULT:    -6.118      3.586      5.568
REMARK INTER + INTRA:          -7.855
REMARK INTER:                  -7.269
REMARK INTRA:                  -0.586
REMARK UNBOUND:                -0.663
REMARK  Name = 
REMARK  4 active torsions:
REMARK  status: ('A' for Active; 'I' for Inactive)
REMARK    1  A    between atoms: C_1  and  C_2
REMARK    2  A    between atoms: C_9  and  C_10
REMARK    3  A    between atoms: N_14  and  C_15
REMARK    4  A    between atoms: C_15  and  C_16
REMARK                            x       y       z     vdW  Elec       q    Type
REMARK                         _______ _______ _______ _____ _____    ______ ____
ROOT
ATOM      1  C   UNL     1      43.394   4.554  10.628  0.00  0.00    +0.000 C 
ATOM      2  C   UNL     1      44.684   4.641  11.349  0.00  0.00    +0.000 C 
ATOM      3  C   UNL     1      45.042   3.703  12.445  0.00  0.00    +0.000 C 
ATOM      4  N   UNL     1      45.959   3.841  13.355  0.00  0.00    +0.000 NA
ATOM      5  C   UNL     1      46.724   4.992  13.350  0.00  0.00    +0.000 C 
ATOM      6  C   UNL     1      46.635   5.804  12.095  0.00  0.00    +0.000 C 
ATOM      7  C   UNL     1      45.589   5.594  11.118  0.00  0.00    +0.000 C 
ATOM      8  C   UNL     1      47.356   6.930  11.965  0.00  0.00    +0.000 C 
ATOM      9  C   UNL     1      47.886   7.529  13.171  0.00  0.00    +0.000 C 
ATOM     10  C   UNL     1      48.307   6.675  14.119  0.00  0.00    +0.000 C 
ATOM     11  N   UNL     1      47.520   5.523  14.397  0.00  0.00    +0.000 N 
ENDROOT
BRANCH   9  12
ATOM     12  C   UNL     1      46.939   8.524  13.827  0.00  0.00    +0.000 C 
ATOM     13  N   UNL     1      47.397   9.064  14.994  0.00  0.00    +0.000 N 
ATOM     14  O   UNL     1      45.927   8.987  13.295  0.00  0.00    +0.000 OA
ATOM     15  H   UNL     1      48.287   8.814  15.399  0.00  0.00    +0.000 HD
ATOM     16  H   UNL     1      47.012   9.971  15.219  0.00  0.00    +0.000 HD
ENDBRANCH   9  12
BRANCH  11  17
ATOM     17  C   UNL     1      47.441   5.138  15.830  0.00  0.00    +0.000 C 
BRANCH  17  18
ATOM     18  C   UNL     1      48.552   4.362  16.523  0.00  0.00    +0.000 A 
ATOM     19  C   UNL     1      48.472   2.953  16.462  0.00  0.00    +0.000 A 
ATOM     20  C   UNL     1      49.428   2.130  17.048  0.00  0.00    +0.000 A 
ATOM     21  C   UNL     1      50.501   2.709  17.736  0.00  0.00    +0.000 A 
ATOM     22  C   UNL     1      50.597   4.099  17.809  0.00  0.00    +0.000 A 
ATOM     23  C   UNL     1      49.647   4.913  17.190  0.00  0.00    +0.000 A 
ENDBRANCH  17  18
ENDBRANCH  11  17
TORSDOF 3
ENDMDL
MODEL 4
REMARK VINA RESULT:    -6.079      3.007      5.028
REMARK INTER + INTRA:          -7.809
REMARK INTER:                  -7.235
REMARK INTRA:                  -0.574
REMARK UNBOUND:                -0.663
REMARK  Name = 
REMARK  4 active torsions:
REMARK  status: ('A' for Active; 'I' for Inactive)
REMARK    1  A    between atoms: C_1  and  C_2
REMARK    2  A    between atoms: C_9  and  C_10
REMARK    3  A    between atoms: N_14  and  C_15
REMARK    4  A    between atoms: C_15  and  C_16
REMARK                            x       y       z     vdW  Elec       q    Type
REMARK                         _______ _______ _______ _____ _____    ______ ____
ROOT
ATOM      1  C   UNL     1      47.164   3.999  17.347  0.00  0.00    +0.000 C 
ATOM      2  C   UNL     1      47.371   4.433  15.946  0.00  0.00    +0.000 C 
ATOM      3  C   UNL     1      48.272   5.560  15.592  0.00  0.00    +0.000 C 
ATOM      4  N   UNL     1      48.312   6.243  14.488  0.00  0.00    +0.000 NA
ATOM      5  C   UNL     1      47.419   5.921  13.482  0.00  0.00    +0.000 C 
ATOM      6  C   UNL     1      46.727   4.604  13.650  0.00  0.00    +0.000 C 
ATOM      7  C   UNL     1      46.727   3.893  14.910  0.00  0.00    +0.000 C 
ATOM      8  C   UNL     1      45.857   4.173  12.721  0.00  0.00    +0.000 C 
ATOM      9  C   UNL     1      45.324   5.152  11.798  0.00  0.00    +0.000 C 
ATOM     10  C   UNL     1      46.174   6.112  11.399  0.00  0.00    +0.000 C 
ATOM     11  N   UNL     1      47.038   6.703  12.362  0.00  0.00    +0.000 N 
ENDROOT
BRANCH   9  12
ATOM     12  C   UNL     1      44.054   5.831  12.293  0.00  0.00    +0.000 C 
ATOM     13  N   UNL     1      43.516   6.737  11.426  0.00  0.00    +0.000 N 
ATOM     14  O   UNL     1      43.415   5.486  13.291  0.00  0.00    +0.000 OA
ATOM     15  H   UNL     1      43.934   6.952  10.533  0.00  0.00    +0.000 HD
ATOM     16  H   UNL     1      42.522   6.883  11.532  0.00  0.00    +0.000 HD
ENDBRANCH   9  12
BRANCH  11  17
ATOM     17  C   UNL     1      47.259   8.164  12.206  0.00  0.00    +0.000 C 
BRANCH  17  18
ATOM     18  C   UNL     1      48.600   8.738  11.768  0.00  0.00    +0.000 A 
ATOM     19  C   UNL     1      48.621  10.109  11.430  0.00  0.00    +0.000 A 
ATOM     20  C   UNL     1      49.783  10.756  11.023  0.00  0.00    +0.000 A 
ATOM     21  C   UNL     1      50.974  10.026  10.929  0.00  0.00    +0.000 A 
ATOM     22  C   UNL     1      50.974   8.670  11.257  0.00  0.00    +0.000 A 
ATOM     23  C   UNL     1      49.807   8.042  11.694  0.00  0.00    +0.000 A 
ENDBRANCH  17  18
ENDBRANCH  11  17
TORSDOF 3
ENDMDL
MODEL 5
REMARK VINA RESULT:    -6.049      3.351      5.481
REMARK INTER + INTRA:          -7.774
REMARK INTER:                  -7.237
REMARK INTRA:                  -0.537
REMARK UNBOUND:                -0.663
REMARK  Name = 
REMARK  4 active torsions:
REMARK  status: ('A' for Active; 'I' for Inactive)
REMARK    1  A    between atoms: C_1  and  C_2
REMARK    2  A    between atoms: C_9  and  C_10
REMARK    3  A    between atoms: N_14  and  C_15
REMARK    4  A    between atoms: C_15  and  C_16
REMARK                            x       y       z     vdW  Elec       q    Type
REMARK                         _______ _______ _______ _____ _____    ______ ____
ROOT
ATOM      1  C   UNL     1      49.957   8.511  11.132  0.00  0.00    +0.000 C 
ATOM      2  C   UNL     1      48.973   7.887  12.046  0.00  0.00    +0.000 C 
ATOM      3  C   UNL     1      49.389   7.098  13.235  0.00  0.00    +0.000 C 
ATOM      4  N   UNL     1      48.686   6.252  13.925  0.00  0.00    +0.000 NA
ATOM      5  C   UNL     1      47.378   6.016  13.544  0.00  0.00    +0.000 C 
ATOM      6  C   UNL     1      46.813   7.010  12.577  0.00  0.00    +0.000 C 
ATOM      7  C   UNL     1      47.655   7.930  11.843  0.00  0.00    +0.000 C 
ATOM      8  C   UNL     1      45.542   6.898  12.156  0.00  0.00    +0.000 C 
ATOM      9  C   UNL     1      44.888   5.620  12.335  0.00  0.00    +0.000 C 
ATOM     10  C   UNL     1      45.187   4.956  13.464  0.00  0.00    +0.000 C 
ATOM     11  N   UNL     1      46.541   4.928  13.901  0.00  0.00    +0.000 N 
ENDROOT
BRANCH   9  12
ATOM     12  C   UNL     1      45.082   4.663  11.167  0.00  0.00    +0.000 C 
ATOM     13  N   UNL     1      45.283   5.268   9.961  0.00  0.00    +0.000 N 
ATOM     14  O   UNL     1      45.250   3.446  11.276  0.00  0.00    +0.000 OA
ATOM     15  H   UNL     1      45.289   6.271   9.847  0.00  0.00    +0.000 HD
ATOM     16  H   UNL     1      45.795   4.712   9.290  0.00  0.00    +0.000 HD
ENDBRANCH   9  12
BRANCH  11  17
ATOM     17  C   UNL     1      46.992   3.640  14.489  0.00  0.00    +0.000 C 
BRANCH  17  18
ATOM     18  C   UNL     1      47.592   3.553  15.885  0.00  0.00    +0.000 A 
ATOM     19  C   UNL     1      47.145   4.506  16.826  0.00  0.00    +0.000 A 
ATOM     20  C   UNL     1      47.609   4.529  18.137  0.00  0.00    +0.000 A 
ATOM     21  C   UNL     1      48.564   3.588  18.541  0.00  0.00    +0.000 A 
ATOM     22  C   UNL     1      49.020   2.639  17.626  0.00  0.00    +0.000 A 
ATOM     23  C   UNL     1      48.522   2.608  16.322  0.00  0.00    +0.000 A 
ENDBRANCH  17  18
ENDBRANCH  11  17
TORSDOF 3
ENDMDL
MODEL 6
REMARK VINA RESULT:    -5.730      3.476      6.645
REMARK INTER + INTRA:          -7.399
REMARK INTER:                  -6.840
REMARK INTRA:                  -0.559
REMARK UNBOUND:                -0.663
REMARK  Name = 
REMARK  4 active torsions:
REMARK  status: ('A' for Active; 'I' for Inactive)
REMARK    1  A    between atoms: C_1  and  C_2
REMARK    2  A    between atoms: C_9  and  C_10
REMARK    3  A    between atoms: N_14  and  C_15
REMARK    4  A    between atoms: C_15  and  C_16
REMARK                            x       y       z     vdW  Elec       q    Type
REMARK                         _______ _______ _______ _____ _____    ______ ____
ROOT
ATOM      1  C   UNL     1      49.934   2.535  17.659  0.00  0.00    +0.000 C 
ATOM      2  C   UNL     1      49.000   3.458  16.974  0.00  0.00    +0.000 C 
ATOM      3  C   UNL     1      47.935   2.970  16.059  0.00  0.00    +0.000 C 
ATOM      4  N   UNL     1      47.270   3.642  15.168  0.00  0.00    +0.000 NA
ATOM      5  C   UNL     1      47.554   4.986  15.008  0.00  0.00    +0.000 C 
ATOM      6  C   UNL     1      48.366   5.595  16.109  0.00  0.00    +0.000 C 
ATOM      7  C   UNL     1      49.079   4.787  17.074  0.00  0.00    +0.000 C 
ATOM      8  C   UNL     1      48.680   6.901  16.075  0.00  0.00    +0.000 C 
ATOM      9  C   UNL     1      48.568   7.584  14.805  0.00  0.00    +0.000 C 
ATOM     10  C   UNL     1      47.540   7.212  14.023  0.00  0.00    +0.000 C 
ATOM     11  N   UNL     1      47.231   5.828  13.913  0.00  0.00    +0.000 N 
ENDROOT
BRANCH   9  12
ATOM     12  C   UNL     1      49.836   7.526  13.964  0.00  0.00    +0.000 C 
ATOM     13  N   UNL     1      50.988   7.378  14.679  0.00  0.00    +0.000 N 
ATOM     14  O   UNL     1      49.860   7.419  12.735  0.00  0.00    +0.000 OA
ATOM     15  H   UNL     1      51.003   7.324  15.687  0.00  0.00    +0.000 HD
ATOM     16  H   UNL     1      51.747   6.946  14.170  0.00  0.00    +0.000 HD
ENDBRANCH   9  12
BRANCH  11  17
ATOM     17  C   UNL     1      46.814   5.375  12.561  0.00  0.00    +0.000 C 
BRANCH  17  18
ATOM     18  C   UNL     1      45.349   5.273  12.157  0.00  0.00    +0.000 A 
ATOM     19  C   UNL     1      44.406   5.220  13.207  0.00  0.00    +0.000 A 
ATOM     20  C   UNL     1      43.038   5.134  12.971  0.00  0.00    +0.000 A 
ATOM     21  C   UNL     1      42.573   5.083  11.652  0.00  0.00    +0.000 A 
ATOM     22  C   UNL     1      43.489   5.132  10.601  0.00  0.00    +0.000 A 
ATOM     23  C   UNL     1      44.857   5.250  10.852  0.00  0.00    +0.000 A 
ENDBRANCH  17  18
ENDBRANCH  11  17
TORSDOF 3
ENDMDL
MODEL 7
REMARK VINA RESULT:    -5.547      4.750      7.382
REMARK INTER + INTRA:          -7.183
REMARK INTER:                  -6.574
REMARK INTRA:                  -0.609
REMARK UNBOUND:                -0.663
REMARK  Name = 
REMARK  4 active torsions:
REMARK  status: ('A' for Active; 'I' for Inactive)
REMARK    1  A    between atoms: C_1  and  C_2
REMARK    2  A    between atoms: C_9  and  C_10
REMARK    3  A    between atoms: N_14  and  C_15
REMARK    4  A    between atoms: C_15  and  C_16
REMARK                            x       y       z     vdW  Elec       q    Type
REMARK                         _______ _______ _______ _____ _____    ______ ____
ROOT
ATOM      1  C   UNL     1      52.899   2.006  17.740  0.00  0.00    +0.000 C 
ATOM      2  C   UNL     1      51.444   2.248  17.607  0.00  0.00    +0.000 C 
ATOM      3  C   UNL     1      50.599   1.478  16.658  0.00  0.00    +0.000 C 
ATOM      4  N   UNL     1      49.417   1.778  16.208  0.00  0.00    +0.000 NA
ATOM      5  C   UNL     1      48.828   2.954  16.634  0.00  0.00    +0.000 C 
ATOM      6  C   UNL     1      49.478   3.591  17.823  0.00  0.00    +0.000 C 
ATOM      7  C   UNL     1      50.797   3.206  18.274  0.00  0.00    +0.000 C 
ATOM      8  C   UNL     1      48.976   4.724  18.342  0.00  0.00    +0.000 C 
ATOM      9  C   UNL     1      48.077   5.499  17.515  0.00  0.00    +0.000 C 
ATOM     10  C   UNL     1      47.240   4.797  16.734  0.00  0.00    +0.000 C 
ATOM     11  N   UNL     1      47.741   3.654  16.051  0.00  0.00    +0.000 N 
ENDROOT
BRANCH   9  12
ATOM     12  C   UNL     1      48.783   6.524  16.638  0.00  0.00    +0.000 C 
ATOM     13  N   UNL     1      48.326   7.803  16.775  0.00  0.00    +0.000 N 
ATOM     14  O   UNL     1      49.812   6.308  15.993  0.00  0.00    +0.000 OA
ATOM     15  H   UNL     1      47.571   8.050  17.397  0.00  0.00    +0.000 HD
ATOM     16  H   UNL     1      49.000   8.518  16.540  0.00  0.00    +0.000 HD
ENDBRANCH   9  12
BRANCH  11  17
ATOM     17  C   UNL     1      47.216   3.455  14.675  0.00  0.00    +0.000 C 
BRANCH  17  18
ATOM     18  C   UNL     1      46.750   4.617  13.810  0.00  0.00    +0.000 A 
ATOM     19  C   UNL     1      45.360   4.715  13.578  0.00  0.00    +0.000 A 
ATOM     20  C   UNL     1      44.805   5.735  12.812  0.00  0.00    +0.000 A 
ATOM     21  C   UNL     1      45.648   6.692  12.235  0.00  0.00    +0.000 A 
ATOM     22  C   UNL     1      47.024   6.612  12.451  0.00  0.00    +0.000 A 
ATOM     23  C   UNL     1      47.564   5.602  13.248  0.00  0.00    +0.000 A 
ENDBRANCH  17  18
ENDBRANCH  11  17
TORSDOF 3
ENDMDL
MODEL 8
REMARK VINA RESULT:    -5.355      5.427      7.671
REMARK INTER + INTRA:          -6.958
REMARK INTER:                  -6.164
REMARK INTRA:                  -0.793
REMARK UNBOUND:                -0.663
REMARK  Name = 
REMARK  4 active torsions:
REMARK  status: ('A' for Active; 'I' for Inactive)
REMARK    1  A    between atoms: C_1  and  C_2
REMARK    2  A    between atoms: C_9  and  C_10
REMARK    3  A    between atoms: N_14  and  C_15
REMARK    4  A    between atoms: C_15  and  C_16
REMARK                            x       y       z     vdW  Elec       q    Type
REMARK                         _______ _______ _______ _____ _____    ______ ____
ROOT
ATOM      1  C   UNL     1      47.332   5.842  12.689  0.00  0.00    +0.000 C 
ATOM      2  C   UNL     1      47.527   5.753  14.155  0.00  0.00    +0.000 C 
ATOM      3  C   UNL     1      48.165   6.845  14.935  0.00  0.00    +0.000 C 
ATOM      4  N   UNL     1      48.679   6.788  16.126  0.00  0.00    +0.000 NA
ATOM      5  C   UNL     1      48.660   5.578  16.795  0.00  0.00    +0.000 C 
ATOM      6  C   UNL     1      47.751   4.545  16.206  0.00  0.00    +0.000 C 
ATOM      7  C   UNL     1      47.207   4.674  14.871  0.00  0.00    +0.000 C 
ATOM      8  C   UNL     1      47.629   3.339  16.786  0.00  0.00    +0.000 C 
ATOM      9  C   UNL     1      48.660   2.939  17.720  0.00  0.00    +0.000 C 
ATOM     10  C   UNL     1      49.161   3.912  18.499  0.00  0.00    +0.000 C 
ATOM     11  N   UNL     1      49.434   5.181  17.916  0.00  0.00    +0.000 N 
ENDROOT
BRANCH   9  12
ATOM     12  C   UNL     1      49.829   2.215  17.068  0.00  0.00    +0.000 C 
ATOM     13  N   UNL     1      50.865   1.931  17.910  0.00  0.00    +0.000 N 
ATOM     14  O   UNL     1      49.811   1.728  15.935  0.00  0.00    +0.000 OA
ATOM     15  H   UNL     1      50.865   2.192  18.884  0.00  0.00    +0.000 HD
ATOM     16  H   UNL     1      51.430   1.141  17.631  0.00  0.00    +0.000 HD
ENDBRANCH   9  12
BRANCH  11  17
ATOM     17  C   UNL     1      50.664   5.854  18.406  0.00  0.00    +0.000 C 
BRANCH  17  18
ATOM     18  C   UNL     1      52.006   5.702  17.703  0.00  0.00    +0.000 A 
ATOM     19  C   UNL     1      52.265   6.591  16.636  0.00  0.00    +0.000 A 
ATOM     20  C   UNL     1      53.456   6.561  15.918  0.00  0.00    +0.000 A 
ATOM     21  C   UNL     1      54.430   5.611  16.249  0.00  0.00    +0.000 A 
ATOM     22  C   UNL     1      54.192   4.723  17.298  0.00  0.00    +0.000 A 
ATOM     23  C   UNL     1      53.005   4.785  18.030  0.00  0.00    +0.000 A 
ENDBRANCH  17  18
ENDBRANCH  11  17
TORSDOF 3
ENDMDL
MODEL 9
REMARK VINA RESULT:    -5.308      2.976      5.302
REMARK INTER + INTRA:          -6.903
REMARK INTER:                  -6.489
REMARK INTRA:                  -0.414
REMARK UNBOUND:                -0.663
REMARK  Name = 
REMARK  4 active torsions:
REMARK  status: ('A' for Active; 'I' for Inactive)
REMARK    1  A    between atoms: C_1  and  C_2
REMARK    2  A    between atoms: C_9  and  C_10
REMARK    3  A    between atoms: N_14  and  C_15
REMARK    4  A    between atoms: C_15  and  C_16
REMARK                            x       y       z     vdW  Elec       q    Type
REMARK                         _______ _______ _______ _____ _____    ______ ____
ROOT
ATOM      1  C   UNL     1      47.098   3.190  17.313  0.00  0.00    +0.000 C 
ATOM      2  C   UNL     1      47.481   3.970  16.114  0.00  0.00    +0.000 C 
ATOM      3  C   UNL     1      48.251   5.238  16.208  0.00  0.00    +0.000 C 
ATOM      4  N   UNL     1      48.381   6.168  15.311  0.00  0.00    +0.000 NA
ATOM      5  C   UNL     1      47.738   6.009  14.098  0.00  0.00    +0.000 C 
ATOM      6  C   UNL     1      47.233   4.625  13.828  0.00  0.00    +0.000 C 
ATOM      7  C   UNL     1      47.118   3.633  14.874  0.00  0.00    +0.000 C 
ATOM      8  C   UNL     1      46.615   4.344  12.668  0.00  0.00    +0.000 C 
ATOM      9  C   UNL     1      46.111   5.456  11.892  0.00  0.00    +0.000 C 
ATOM     10  C   UNL     1      46.864   6.569  11.895  0.00  0.00    +0.000 C 
ATOM     11  N   UNL     1      47.446   6.995  13.121  0.00  0.00    +0.000 N 
ENDROOT
BRANCH   9  12
ATOM     12  C   UNL     1      44.687   5.857  12.249  0.00  0.00    +0.000 C 
ATOM     13  N   UNL     1      43.875   6.096  11.178  0.00  0.00    +0.000 N 
ATOM     14  O   UNL     1      44.202   5.794  13.382  0.00  0.00    +0.000 OA
ATOM     15  H   UNL     1      44.195   6.027  10.224  0.00  0.00    +0.000 HD
ATOM     16  H   UNL     1      42.890   5.963  11.359  0.00  0.00    +0.000 HD
ENDBRANCH   9  12
BRANCH  11  17
ATOM     17  C   UNL     1      47.470   8.465  13.336  0.00  0.00    +0.000 C 
BRANCH  17  18
ATOM     18  C   UNL     1      46.549   9.410  12.576  0.00  0.00    +0.000 A 
ATOM     19  C   UNL     1      47.170  10.450  11.850  0.00  0.00    +0.000 A 
ATOM     20  C   UNL     1      46.442  11.374  11.108  0.00  0.00    +0.000 A 
ATOM     21  C   UNL     1      45.045  11.287  11.089  0.00  0.00    +0.000 A 
ATOM     22  C   UNL     1      44.412  10.268  11.801  0.00  0.00    +0.000 A 
ATOM     23  C   UNL     1      45.157   9.328  12.515  0.00  0.00    +0.000 A 
ENDBRANCH  17  18
ENDBRANCH  11  17
TORSDOF 3
ENDMDL
