MODEL 1
REMARK VINA RESULT:    -8.167      0.000      0.000
REMARK INTER + INTRA:         -12.487
REMARK INTER:                 -11.508
REMARK INTRA:                  -0.979
REMARK UNBOUND:                -0.979
REMARK  Name = 
REMARK  9 active torsions:
REMARK  status: ('A' for Active; 'I' for Inactive)
REMARK    1  A    between atoms: C_1  and  N_2
REMARK    2  A    between atoms: N_2  and  C_3
REMARK    3  A    between atoms: N_2  and  C_4
REMARK    4  A    between atoms: C_4  and  C_5
REMARK    5  A    between atoms: C_5  and  N_6
REMARK    6  A    between atoms: C_5  and  C_27
REMARK    7  A    between atoms: C_10  and  C_11
REMARK    8  A    between atoms: C_11  and  N_12
REMARK    9  A    between atoms: C_13  and  C_15
REMARK                            x       y       z     vdW  Elec       q    Type
REMARK                         _______ _______ _______ _____ _____    ______ ____
ROOT
ATOM      1  N   UNL     1      44.498   5.523  10.253  0.00  0.00    +0.000 N 
ATOM      2  C   UNL     1      45.332   6.333  11.005  0.00  0.00    +0.000 A 
ATOM      3  C   UNL     1      44.892   7.610  11.329  0.00  0.00    +0.000 A 
ATOM      4  C   UNL     1      45.604   8.386  12.246  0.00  0.00    +0.000 A 
ATOM      5  C   UNL     1      46.769   7.877  12.795  0.00  0.00    +0.000 A 
ATOM      6  N   UNL     1      47.224   6.664  12.419  0.00  0.00    +0.000 NA
ATOM      7  N   UNL     1      46.492   5.896  11.530  0.00  0.00    +0.000 NA
ATOM      8  H   UNL     1      44.118   5.951   9.419  0.00  0.00    +0.000 HD
ENDROOT
BRANCH   1   9
ATOM      9  C   UNL     1      44.578   4.055  10.211  0.00  0.00    +0.000 C 
BRANCH   9  10
ATOM     10  C   UNL     1      45.294   3.486   8.985  0.00  0.00    +0.000 A 
ATOM     11  C   UNL     1      45.862   4.314   8.018  0.00  0.00    +0.000 A 
ATOM     12  C   UNL     1      46.687   3.758   7.042  0.00  0.00    +0.000 A 
ATOM     13  C   UNL     1      46.914   2.390   7.039  0.00  0.00    +0.000 A 
ATOM     14  C   UNL     1      46.290   1.626   8.007  0.00  0.00    +0.000 A 
ATOM     15  N   UNL     1      45.492   2.138   8.971  0.00  0.00    +0.000 NA
ENDBRANCH   9  10
BRANCH   9  16
ATOM     16  C   UNL     1      45.094   3.349  11.505  0.00  0.00    +0.000 C 
BRANCH  16  18
ATOM     17  C   UNL     1      43.424   4.045  13.152  0.00  0.00    +0.000 C 
ATOM     18  N   UNL     1      44.091   2.919  12.506  0.00  0.00    +0.000 NA
ATOM     19  C   UNL     1      43.104   2.049  11.863  0.00  0.00    +0.000 C 
ENDBRANCH  16  18
ENDBRANCH   9  16
ENDBRANCH   1   9
BRANCH   5  20
ATOM     20  C   UNL     1      47.544   8.626  13.850  0.00  0.00    +0.000 C 
BRANCH  20  21
ATOM     21  N   UNL     1      47.839   7.825  15.023  0.00  0.00    +0.000 N 
ATOM     22  C   UNL     1      49.058   7.228  15.213  0.00  0.00    +0.000 C 
ATOM     23  O   UNL     1      49.971   7.352  14.400  0.00  0.00    +0.000 OA
ATOM     24  H   UNL     1      47.085   7.672  15.685  0.00  0.00    +0.000 HD
BRANCH  22  25
ATOM     25  C   UNL     1      49.242   6.458  16.451  0.00  0.00    +0.000 A 
ATOM     26  C   UNL     1      50.180   6.882  17.384  0.00  0.00    +0.000 A 
ATOM     27  S   UNL     1      50.295   5.876  18.755  0.00  0.00    +0.000 S 
ATOM     28  C   UNL     1      49.129   4.805  18.131  0.00  0.00    +0.000 A 
ATOM     29  N   UNL     1      48.791   3.674  18.806  0.00  0.00    +0.000 NA
ATOM     30  C   UNL     1      47.923   2.932  18.205  0.00  0.00    +0.000 A 
ATOM     31  N   UNL     1      47.351   3.227  16.995  0.00  0.00    +0.000 N 
ATOM     32  C   UNL     1      47.619   4.387  16.310  0.00  0.00    +0.000 A 
ATOM     33  O   UNL     1      47.018   4.670  15.275  0.00  0.00    +0.000 OA
ATOM     34  C   UNL     1      48.626   5.234  16.915  0.00  0.00    +0.000 A 
ATOM     35  H   UNL     1      46.659   2.616  16.589  0.00  0.00    +0.000 HD
ENDBRANCH  22  25
ENDBRANCH  20  21
ENDBRANCH   5  20
TORSDOF 7
ENDMDL
MODEL 2
REMARK VINA RESULT:    -7.385      3.026      8.036
REMARK INTER + INTRA:         -11.385
REMARK INTER:                 -10.156
REMARK INTRA:                  -1.229
REMARK UNBOUND:                -0.979
REMARK  Name = 
REMARK  9 active torsions:
REMARK  status: ('A' for Active; 'I' for Inactive)
REMARK    1  A    between atoms: C_1  and  N_2
REMARK    2  A    between atoms: N_2  and  C_3
REMARK    3  A    between atoms: N_2  and  C_4
REMARK    4  A    between atoms: C_4  and  C_5
REMARK    5  A    between atoms: C_5  and  N_6
REMARK    6  A    between atoms: C_5  and  C_27
REMARK    7  A    between atoms: C_10  and  C_11
REMARK    8  A    between atoms: C_11  and  N_12
REMARK    9  A    between atoms: C_13  and  C_15
REMARK                            x       y       z     vdW  Elec       q    Type
REMARK                         _______ _______ _______ _____ _____    ______ ____
ROOT
ATOM      1  N   UNL     1      50.773   6.449  16.927  0.00  0.00    +0.000 N 
ATOM      2  C   UNL     1      50.112   6.985  15.835  0.00  0.00    +0.000 A 
ATOM      3  C   UNL     1      50.865   7.624  14.859  0.00  0.00    +0.000 A 
ATOM      4  C   UNL     1      50.274   8.001  13.651  0.00  0.00    +0.000 A 
ATOM      5  C   UNL     1      48.923   7.762  13.460  0.00  0.00    +0.000 A 
ATOM      6  N   UNL     1      48.188   7.204  14.444  0.00  0.00    +0.000 NA
ATOM      7  N   UNL     1      48.794   6.810  15.625  0.00  0.00    +0.000 NA
ATOM      8  H   UNL     1      51.426   7.072  17.385  0.00  0.00    +0.000 HD
ENDROOT
BRANCH   1   9
ATOM      9  C   UNL     1      50.237   5.381  17.784  0.00  0.00    +0.000 C 
BRANCH   9  10
ATOM     10  C   UNL     1      50.869   4.005  17.567  0.00  0.00    +0.000 A 
ATOM     11  C   UNL     1      52.148   3.704  18.037  0.00  0.00    +0.000 A 
ATOM     12  C   UNL     1      52.591   2.383  18.009  0.00  0.00    +0.000 A 
ATOM     13  C   UNL     1      51.762   1.395  17.499  0.00  0.00    +0.000 A 
ATOM     14  C   UNL     1      50.523   1.772  17.017  0.00  0.00    +0.000 A 
ATOM     15  N   UNL     1      50.061   3.043  17.039  0.00  0.00    +0.000 NA
ENDBRANCH   9  10
BRANCH   9  16
ATOM     16  C   UNL     1      50.152   5.692  19.312  0.00  0.00    +0.000 C 
BRANCH  16  18
ATOM     17  C   UNL     1      47.730   5.832  18.992  0.00  0.00    +0.000 C 
ATOM     18  N   UNL     1      48.816   5.660  19.952  0.00  0.00    +0.000 NA
ATOM     19  C   UNL     1      48.654   4.398  20.676  0.00  0.00    +0.000 C 
ENDBRANCH  16  18
ENDBRANCH   9  16
ENDBRANCH   1   9
BRANCH   5  20
ATOM     20  C   UNL     1      48.238   8.070  12.153  0.00  0.00    +0.000 C 
BRANCH  20  21
ATOM     21  N   UNL     1      47.557   6.924  11.579  0.00  0.00    +0.000 N 
ATOM     22  C   UNL     1      46.200   6.900  11.388  0.00  0.00    +0.000 C 
ATOM     23  O   UNL     1      45.490   7.858  11.686  0.00  0.00    +0.000 OA
ATOM     24  H   UNL     1      48.119   6.106  11.367  0.00  0.00    +0.000 HD
BRANCH  22  25
ATOM     25  C   UNL     1      45.629   5.691  10.779  0.00  0.00    +0.000 A 
ATOM     26  C   UNL     1      45.718   5.515   9.403  0.00  0.00    +0.000 A 
ATOM     27  S   UNL     1      44.992   4.078   8.843  0.00  0.00    +0.000 S 
ATOM     28  C   UNL     1      44.487   3.660  10.413  0.00  0.00    +0.000 A 
ATOM     29  N   UNL     1      43.750   2.538  10.631  0.00  0.00    +0.000 NA
ATOM     30  C   UNL     1      43.402   2.358  11.860  0.00  0.00    +0.000 A 
ATOM     31  N   UNL     1      43.737   3.192  12.895  0.00  0.00    +0.000 N 
ATOM     32  C   UNL     1      44.528   4.302  12.728  0.00  0.00    +0.000 A 
ATOM     33  O   UNL     1      44.891   4.977  13.689  0.00  0.00    +0.000 OA
ATOM     34  C   UNL     1      44.906   4.580  11.358  0.00  0.00    +0.000 A 
ATOM     35  H   UNL     1      43.452   2.982  13.840  0.00  0.00    +0.000 HD
ENDBRANCH  22  25
ENDBRANCH  20  21
ENDBRANCH   5  20
TORSDOF 7
ENDMDL
MODEL 3
REMARK VINA RESULT:    -6.861      3.821      9.097
REMARK INTER + INTRA:         -10.647
REMARK INTER:                  -9.511
REMARK INTRA:                  -1.135
REMARK UNBOUND:                -0.979
REMARK  Name = 
REMARK  9 active torsions:
REMARK  status: ('A' for Active; 'I' for Inactive)
REMARK    1  A    between atoms: C_1  and  N_2
REMARK    2  A    between atoms: N_2  and  C_3
REMARK    3  A    between atoms: N_2  and  C_4
REMARK    4  A    between atoms: C_4  and  C_5
REMARK    5  A    between atoms: C_5  and  N_6
REMARK    6  A    between atoms: C_5  and  C_27
REMARK    7  A    between atoms: C_10  and  C_11
REMARK    8  A    between atoms: C_11  and  N_12
REMARK    9  A    between atoms: C_13  and  C_15
REMARK                            x       y       z     vdW  Elec       q    Type
REMARK                         _______ _______ _______ _____ _____    ______ ____
ROOT
ATOM      1  N   UNL     1      52.374   5.130  18.386  0.00  0.00    +0.000 N 
ATOM      2  C   UNL     1      51.126   4.602  18.101  0.00  0.00    +0.000 A 
ATOM      3  C   UNL     1      50.005   5.270  18.577  0.00  0.00    +0.000 A 
ATOM      4  C   UNL     1      48.730   4.893  18.150  0.00  0.00    +0.000 A 
ATOM      5  C   UNL     1      48.602   3.824  17.280  0.00  0.00    +0.000 A 
ATOM      6  N   UNL     1      49.693   3.139  16.880  0.00  0.00    +0.000 NA
ATOM      7  N   UNL     1      50.953   3.542  17.290  0.00  0.00    +0.000 NA
ATOM      8  H   UNL     1      52.532   5.366  19.358  0.00  0.00    +0.000 HD
ENDROOT
BRANCH   1   9
ATOM      9  C   UNL     1      53.595   4.847  17.616  0.00  0.00    +0.000 C 
BRANCH   9  10
ATOM     10  C   UNL     1      53.911   5.864  16.518  0.00  0.00    +0.000 A 
ATOM     11  C   UNL     1      54.958   5.668  15.618  0.00  0.00    +0.000 A 
ATOM     12  C   UNL     1      55.070   6.504  14.509  0.00  0.00    +0.000 A 
ATOM     13  C   UNL     1      54.150   7.527  14.329  0.00  0.00    +0.000 A 
ATOM     14  C   UNL     1      53.160   7.684  15.280  0.00  0.00    +0.000 A 
ATOM     15  N   UNL     1      53.020   6.883  16.361  0.00  0.00    +0.000 NA
ENDBRANCH   9  10
BRANCH   9  16
ATOM     16  C   UNL     1      54.883   4.538  18.443  0.00  0.00    +0.000 C 
BRANCH  16  18
ATOM     17  C   UNL     1      54.527   2.523  19.785  0.00  0.00    +0.000 C 
ATOM     18  N   UNL     1      55.242   3.117  18.660  0.00  0.00    +0.000 NA
ATOM     19  C   UNL     1      54.979   2.357  17.437  0.00  0.00    +0.000 C 
ENDBRANCH  16  18
ENDBRANCH   9  16
ENDBRANCH   1   9
BRANCH   5  20
ATOM     20  C   UNL     1      47.265   3.413  16.717  0.00  0.00    +0.000 C 
BRANCH  20  21
ATOM     21  N   UNL     1      46.728   4.364  15.761  0.00  0.00    +0.000 N 
ATOM     22  C   UNL     1      46.743   4.131  14.410  0.00  0.00    +0.000 C 
ATOM     23  O   UNL     1      47.204   3.093  13.940  0.00  0.00    +0.000 OA
ATOM     24  H   UNL     1      46.383   5.247  16.125  0.00  0.00    +0.000 HD
BRANCH  22  25
ATOM     25  C   UNL     1      46.151   5.161  13.545  0.00  0.00    +0.000 A 
ATOM     26  C   UNL     1      46.825   6.362  13.359  0.00  0.00    +0.000 A 
ATOM     27  S   UNL     1      46.005   7.464  12.350  0.00  0.00    +0.000 S 
ATOM     28  C   UNL     1      44.693   6.397  12.163  0.00  0.00    +0.000 A 
ATOM     29  N   UNL     1      43.601   6.758  11.438  0.00  0.00    +0.000 NA
ATOM     30  C   UNL     1      42.663   5.872  11.407  0.00  0.00    +0.000 A 
ATOM     31  N   UNL     1      42.727   4.648  12.022  0.00  0.00    +0.000 N 
ATOM     32  C   UNL     1      43.835   4.221  12.713  0.00  0.00    +0.000 A 
ATOM     33  O   UNL     1      43.901   3.083  13.172  0.00  0.00    +0.000 OA
ATOM     34  C   UNL     1      44.898   5.198  12.823  0.00  0.00    +0.000 A 
ATOM     35  H   UNL     1      41.968   3.989  11.939  0.00  0.00    +0.000 HD
ENDBRANCH  22  25
ENDBRANCH  20  21
ENDBRANCH   5  20
TORSDOF 7
ENDMDL
MODEL 4
REMARK VINA RESULT:    -6.629      3.036      5.686
REMARK INTER + INTRA:         -10.320
REMARK INTER:                  -9.074
REMARK INTRA:                  -1.246
REMARK UNBOUND:                -0.979
REMARK  Name = 
REMARK  9 active torsions:
REMARK  status: ('A' for Active; 'I' for Inactive)
REMARK    1  A    between atoms: C_1  and  N_2
REMARK    2  A    between atoms: N_2  and  C_3
REMARK    3  A    between atoms: N_2  and  C_4
REMARK    4  A    between atoms: C_4  and  C_5
REMARK    5  A    between atoms: C_5  and  N_6
REMARK    6  A    between atoms: C_5  and  C_27
REMARK    7  A    between atoms: C_10  and  C_11
REMARK    8  A    between atoms: C_11  and  N_12
REMARK    9  A    between atoms: C_13  and  C_15
REMARK                            x       y       z     vdW  Elec       q    Type
REMARK                         _______ _______ _______ _____ _____    ______ ____
ROOT
ATOM      1  N   UNL     1      47.218   3.256  14.416  0.00  0.00    +0.000 N 
ATOM      2  C   UNL     1      47.461   3.351  15.776  0.00  0.00    +0.000 A 
ATOM      3  C   UNL     1      48.592   2.728  16.287  0.00  0.00    +0.000 A 
ATOM      4  C   UNL     1      48.985   2.961  17.607  0.00  0.00    +0.000 A 
ATOM      5  C   UNL     1      48.211   3.789  18.403  0.00  0.00    +0.000 A 
ATOM      6  N   UNL     1      47.077   4.332  17.915  0.00  0.00    +0.000 NA
ATOM      7  N   UNL     1      46.715   4.114  16.596  0.00  0.00    +0.000 NA
ATOM      8  H   UNL     1      47.268   2.320  14.033  0.00  0.00    +0.000 HD
ENDROOT
BRANCH   1   9
ATOM      9  C   UNL     1      46.378   4.190  13.652  0.00  0.00    +0.000 C 
BRANCH   9  10
ATOM     10  C   UNL     1      47.116   5.408  13.095  0.00  0.00    +0.000 A 
ATOM     11  C   UNL     1      46.577   6.186  12.070  0.00  0.00    +0.000 A 
ATOM     12  C   UNL     1      47.177   7.402  11.748  0.00  0.00    +0.000 A 
ATOM     13  C   UNL     1      48.308   7.809  12.439  0.00  0.00    +0.000 A 
ATOM     14  C   UNL     1      48.808   6.971  13.418  0.00  0.00    +0.000 A 
ATOM     15  N   UNL     1      48.243   5.791  13.759  0.00  0.00    +0.000 NA
ENDBRANCH   9  10
BRANCH   9  16
ATOM     16  C   UNL     1      45.471   3.564  12.545  0.00  0.00    +0.000 C 
BRANCH  16  18
ATOM     17  C   UNL     1      43.361   4.618  13.195  0.00  0.00    +0.000 C 
ATOM     18  N   UNL     1      44.036   3.370  12.854  0.00  0.00    +0.000 NA
ATOM     19  C   UNL     1      43.375   2.734  11.712  0.00  0.00    +0.000 C 
ENDBRANCH  16  18
ENDBRANCH   9  16
ENDBRANCH   1   9
BRANCH   5  20
ATOM     20  C   UNL     1      48.619   4.148  19.809  0.00  0.00    +0.000 C 
BRANCH  20  21
ATOM     21  N   UNL     1      48.853   5.568  19.994  0.00  0.00    +0.000 N 
ATOM     22  C   UNL     1      50.044   6.162  19.667  0.00  0.00    +0.000 C 
ATOM     23  O   UNL     1      50.975   5.519  19.187  0.00  0.00    +0.000 OA
ATOM     24  H   UNL     1      48.113   6.109  20.431  0.00  0.00    +0.000 HD
BRANCH  22  25
ATOM     25  C   UNL     1      50.152   7.611  19.883  0.00  0.00    +0.000 A 
ATOM     26  C   UNL     1      51.347   8.142  20.352  0.00  0.00    +0.000 A 
ATOM     27  S   UNL     1      51.312   9.832  20.574  0.00  0.00    +0.000 S 
ATOM     28  C   UNL     1      49.681   9.913  20.099  0.00  0.00    +0.000 A 
ATOM     29  N   UNL     1      49.010  11.095  20.113  0.00  0.00    +0.000 NA
ATOM     30  C   UNL     1      47.770  11.011  19.766  0.00  0.00    +0.000 A 
ATOM     31  N   UNL     1      47.144   9.851  19.389  0.00  0.00    +0.000 N 
ATOM     32  C   UNL     1      47.800   8.647  19.303  0.00  0.00    +0.000 A 
ATOM     33  O   UNL     1      47.237   7.643  18.870  0.00  0.00    +0.000 OA
ATOM     34  C   UNL     1      49.183   8.675  19.731  0.00  0.00    +0.000 A 
ATOM     35  H   UNL     1      46.177   9.856  19.105  0.00  0.00    +0.000 HD
ENDBRANCH  22  25
ENDBRANCH  20  21
ENDBRANCH   5  20
TORSDOF 7
ENDMDL
MODEL 5
REMARK VINA RESULT:    -6.518      3.785      6.013
REMARK INTER + INTRA:         -10.164
REMARK INTER:                  -9.742
REMARK INTRA:                  -0.422
REMARK UNBOUND:                -0.979
REMARK  Name = 
REMARK  9 active torsions:
REMARK  status: ('A' for Active; 'I' for Inactive)
REMARK    1  A    between atoms: C_1  and  N_2
REMARK    2  A    between atoms: N_2  and  C_3
REMARK    3  A    between atoms: N_2  and  C_4
REMARK    4  A    between atoms: C_4  and  C_5
REMARK    5  A    between atoms: C_5  and  N_6
REMARK    6  A    between atoms: C_5  and  C_27
REMARK    7  A    between atoms: C_10  and  C_11
REMARK    8  A    between atoms: C_11  and  N_12
REMARK    9  A    between atoms: C_13  and  C_15
REMARK                            x       y       z     vdW  Elec       q    Type
REMARK                         _______ _______ _______ _____ _____    ______ ____
ROOT
ATOM      1  N   UNL     1      46.930   3.695  14.513  0.00  0.00    +0.000 N 
ATOM      2  C   UNL     1      47.483   3.975  15.751  0.00  0.00    +0.000 A 
ATOM      3  C   UNL     1      47.900   2.911  16.541  0.00  0.00    +0.000 A 
ATOM      4  C   UNL     1      48.641   3.146  17.701  0.00  0.00    +0.000 A 
ATOM      5  C   UNL     1      48.919   4.452  18.067  0.00  0.00    +0.000 A 
ATOM      6  N   UNL     1      48.449   5.479  17.329  0.00  0.00    +0.000 NA
ATOM      7  N   UNL     1      47.739   5.229  16.167  0.00  0.00    +0.000 NA
ATOM      8  H   UNL     1      46.201   2.994  14.514  0.00  0.00    +0.000 HD
ENDROOT
BRANCH   1   9
ATOM      9  C   UNL     1      46.867   4.647  13.394  0.00  0.00    +0.000 C 
BRANCH   9  10
ATOM     10  C   UNL     1      45.514   4.716  12.685  0.00  0.00    +0.000 A 
ATOM     11  C   UNL     1      45.374   5.302  11.427  0.00  0.00    +0.000 A 
ATOM     12  C   UNL     1      44.177   5.148  10.730  0.00  0.00    +0.000 A 
ATOM     13  C   UNL     1      43.140   4.430  11.307  0.00  0.00    +0.000 A 
ATOM     14  C   UNL     1      43.336   3.908  12.572  0.00  0.00    +0.000 A 
ATOM     15  N   UNL     1      44.488   4.034  13.268  0.00  0.00    +0.000 NA
ENDBRANCH   9  10
BRANCH   9  16
ATOM     16  C   UNL     1      47.393   6.090  13.678  0.00  0.00    +0.000 C 
BRANCH  16  18
ATOM     17  C   UNL     1      48.361   7.352  11.818  0.00  0.00    +0.000 C 
ATOM     18  N   UNL     1      48.631   6.524  12.988  0.00  0.00    +0.000 NA
ATOM     19  C   UNL     1      49.485   7.247  13.932  0.00  0.00    +0.000 C 
ENDBRANCH  16  18
ENDBRANCH   9  16
ENDBRANCH   1   9
BRANCH   5  20
ATOM     20  C   UNL     1      49.780   4.777  19.261  0.00  0.00    +0.000 C 
BRANCH  20  21
ATOM     21  N   UNL     1      50.962   3.941  19.360  0.00  0.00    +0.000 N 
ATOM     22  C   UNL     1      52.129   4.243  18.708  0.00  0.00    +0.000 C 
ATOM     23  O   UNL     1      52.236   5.250  18.010  0.00  0.00    +0.000 OA
ATOM     24  H   UNL     1      50.882   3.081  19.895  0.00  0.00    +0.000 HD
BRANCH  22  25
ATOM     25  C   UNL     1      53.263   3.330  18.903  0.00  0.00    +0.000 A 
ATOM     26  C   UNL     1      54.396   3.783  19.567  0.00  0.00    +0.000 A 
ATOM     27  S   UNL     1      55.634   2.618  19.695  0.00  0.00    +0.000 S 
ATOM     28  C   UNL     1      54.721   1.477  18.824  0.00  0.00    +0.000 A 
ATOM     29  N   UNL     1      55.235   0.253  18.531  0.00  0.00    +0.000 NA
ATOM     30  C   UNL     1      54.454  -0.502  17.834  0.00  0.00    +0.000 A 
ATOM     31  N   UNL     1      53.198  -0.148  17.416  0.00  0.00    +0.000 N 
ATOM     32  C   UNL     1      52.619   1.055  17.740  0.00  0.00    +0.000 A 
ATOM     33  O   UNL     1      51.455   1.306  17.433  0.00  0.00    +0.000 OA
ATOM     34  C   UNL     1      53.472   1.962  18.480  0.00  0.00    +0.000 A 
ATOM     35  H   UNL     1      52.627  -0.794  16.893  0.00  0.00    +0.000 HD
ENDBRANCH  22  25
ENDBRANCH  20  21
ENDBRANCH   5  20
TORSDOF 7
ENDMDL
MODEL 6
REMARK VINA RESULT:    -5.687      3.249      5.908
REMARK INTER + INTRA:          -8.993
REMARK INTER:                  -8.045
REMARK INTRA:                  -0.948
REMARK UNBOUND:                -0.979
REMARK  Name = 
REMARK  9 active torsions:
REMARK  status: ('A' for Active; 'I' for Inactive)
REMARK    1  A    between atoms: C_1  and  N_2
REMARK    2  A    between atoms: N_2  and  C_3
REMARK    3  A    between atoms: N_2  and  C_4
REMARK    4  A    between atoms: C_4  and  C_5
REMARK    5  A    between atoms: C_5  and  N_6
REMARK    6  A    between atoms: C_5  and  C_27
REMARK    7  A    between atoms: C_10  and  C_11
REMARK    8  A    between atoms: C_11  and  N_12
REMARK    9  A    between atoms: C_13  and  C_15
REMARK                            x       y       z     vdW  Elec       q    Type
REMARK                         _______ _______ _______ _____ _____    ______ ____
ROOT
ATOM      1  N   UNL     1      46.445   4.426  15.023  0.00  0.00    +0.000 N 
ATOM      2  C   UNL     1      47.459   4.391  15.964  0.00  0.00    +0.000 A 
ATOM      3  C   UNL     1      47.347   3.496  17.020  0.00  0.00    +0.000 A 
ATOM      4  C   UNL     1      48.428   3.282  17.877  0.00  0.00    +0.000 A 
ATOM      5  C   UNL     1      49.595   4.004  17.681  0.00  0.00    +0.000 A 
ATOM      6  N   UNL     1      49.666   4.922  16.695  0.00  0.00    +0.000 NA
ATOM      7  N   UNL     1      48.595   5.102  15.836  0.00  0.00    +0.000 NA
ATOM      8  H   UNL     1      45.508   4.492  15.400  0.00  0.00    +0.000 HD
ENDROOT
BRANCH   1   9
ATOM      9  C   UNL     1      46.596   4.941  13.654  0.00  0.00    +0.000 C 
BRANCH   9  10
ATOM     10  C   UNL     1      45.449   4.588  12.705  0.00  0.00    +0.000 A 
ATOM     11  C   UNL     1      45.461   4.976  11.365  0.00  0.00    +0.000 A 
ATOM     12  C   UNL     1      44.510   4.449  10.493  0.00  0.00    +0.000 A 
ATOM     13  C   UNL     1      43.558   3.563  10.976  0.00  0.00    +0.000 A 
ATOM     14  C   UNL     1      43.585   3.251  12.322  0.00  0.00    +0.000 A 
ATOM     15  N   UNL     1      44.501   3.739  13.190  0.00  0.00    +0.000 NA
ENDBRANCH   9  10
BRANCH   9  16
ATOM     16  C   UNL     1      46.955   6.455  13.515  0.00  0.00    +0.000 C 
BRANCH  16  18
ATOM     17  C   UNL     1      48.067   7.478  11.591  0.00  0.00    +0.000 C 
ATOM     18  N   UNL     1      48.243   6.805  12.874  0.00  0.00    +0.000 NA
ATOM     19  C   UNL     1      49.025   7.647  13.782  0.00  0.00    +0.000 C 
ENDBRANCH  16  18
ENDBRANCH   9  16
ENDBRANCH   1   9
BRANCH   5  20
ATOM     20  C   UNL     1      50.826   3.767  18.518  0.00  0.00    +0.000 C 
BRANCH  20  21
ATOM     21  N   UNL     1      51.299   4.961  19.193  0.00  0.00    +0.000 N 
ATOM     22  C   UNL     1      52.460   5.594  18.834  0.00  0.00    +0.000 C 
ATOM     23  O   UNL     1      53.158   5.185  17.909  0.00  0.00    +0.000 OA
ATOM     24  H   UNL     1      50.760   5.290  19.989  0.00  0.00    +0.000 HD
BRANCH  22  25
ATOM     25  C   UNL     1      52.822   6.806  19.582  0.00  0.00    +0.000 A 
ATOM     26  C   UNL     1      54.067   6.882  20.193  0.00  0.00    +0.000 A 
ATOM     27  S   UNL     1      54.333   8.337  21.041  0.00  0.00    +0.000 S 
ATOM     28  C   UNL     1      52.774   8.902  20.664  0.00  0.00    +0.000 A 
ATOM     29  N   UNL     1      52.333  10.097  21.139  0.00  0.00    +0.000 NA
ATOM     30  C   UNL     1      51.120  10.389  20.810  0.00  0.00    +0.000 A 
ATOM     31  N   UNL     1      50.312   9.599  20.034  0.00  0.00    +0.000 N 
ATOM     32  C   UNL     1      50.738   8.414  19.484  0.00  0.00    +0.000 A 
ATOM     33  O   UNL     1      50.023   7.775  18.714  0.00  0.00    +0.000 OA
ATOM     34  C   UNL     1      52.076   8.013  19.864  0.00  0.00    +0.000 A 
ATOM     35  H   UNL     1      49.379   9.896  19.792  0.00  0.00    +0.000 HD
ENDBRANCH  22  25
ENDBRANCH  20  21
ENDBRANCH   5  20
TORSDOF 7
ENDMDL
MODEL 7
REMARK VINA RESULT:    -5.518      3.411      5.961
REMARK INTER + INTRA:          -8.755
REMARK INTER:                  -7.697
REMARK INTRA:                  -1.057
REMARK UNBOUND:                -0.979
REMARK  Name = 
REMARK  9 active torsions:
REMARK  status: ('A' for Active; 'I' for Inactive)
REMARK    1  A    between atoms: C_1  and  N_2
REMARK    2  A    between atoms: N_2  and  C_3
REMARK    3  A    between atoms: N_2  and  C_4
REMARK    4  A    between atoms: C_4  and  C_5
REMARK    5  A    between atoms: C_5  and  N_6
REMARK    6  A    between atoms: C_5  and  C_27
REMARK    7  A    between atoms: C_10  and  C_11
REMARK    8  A    between atoms: C_11  and  N_12
REMARK    9  A    between atoms: C_13  and  C_15
REMARK                            x       y       z     vdW  Elec       q    Type
REMARK                         _______ _______ _______ _____ _____    ______ ____
ROOT
ATOM      1  N   UNL     1      46.429   4.751  14.820  0.00  0.00    +0.000 N 
ATOM      2  C   UNL     1      47.391   4.790  15.814  0.00  0.00    +0.000 A 
ATOM      3  C   UNL     1      47.118   4.156  17.020  0.00  0.00    +0.000 A 
ATOM      4  C   UNL     1      48.126   3.996  17.973  0.00  0.00    +0.000 A 
ATOM      5  C   UNL     1      49.385   4.511  17.713  0.00  0.00    +0.000 A 
ATOM      6  N   UNL     1      49.619   5.186  16.568  0.00  0.00    +0.000 NA
ATOM      7  N   UNL     1      48.617   5.312  15.621  0.00  0.00    +0.000 NA
ATOM      8  H   UNL     1      45.496   5.009  15.112  0.00  0.00    +0.000 HD
ENDROOT
BRANCH   1   9
ATOM      9  C   UNL     1      46.702   4.944  13.388  0.00  0.00    +0.000 C 
BRANCH   9  10
ATOM     10  C   UNL     1      45.570   4.515  12.454  0.00  0.00    +0.000 A 
ATOM     11  C   UNL     1      45.487   4.978  11.141  0.00  0.00    +0.000 A 
ATOM     12  C   UNL     1      44.571   4.394  10.268  0.00  0.00    +0.000 A 
ATOM     13  C   UNL     1      43.747   3.376  10.724  0.00  0.00    +0.000 A 
ATOM     14  C   UNL     1      43.860   2.992  12.046  0.00  0.00    +0.000 A 
ATOM     15  N   UNL     1      44.744   3.533  12.914  0.00  0.00    +0.000 NA
ENDBRANCH   9  10
BRANCH   9  16
ATOM     16  C   UNL     1      47.237   6.349  12.965  0.00  0.00    +0.000 C 
BRANCH  16  18
ATOM     17  C   UNL     1      47.725   8.473  14.079  0.00  0.00    +0.000 C 
ATOM     18  N   UNL     1      46.687   7.537  13.659  0.00  0.00    +0.000 NA
ATOM     19  C   UNL     1      45.726   8.210  12.783  0.00  0.00    +0.000 C 
ENDBRANCH  16  18
ENDBRANCH   9  16
ENDBRANCH   1   9
BRANCH   5  20
ATOM     20  C   UNL     1      50.539   4.306  18.661  0.00  0.00    +0.000 C 
BRANCH  20  21
ATOM     21  N   UNL     1      51.494   5.398  18.647  0.00  0.00    +0.000 N 
ATOM     22  C   UNL     1      52.838   5.197  18.823  0.00  0.00    +0.000 C 
ATOM     23  O   UNL     1      53.306   4.073  18.993  0.00  0.00    +0.000 OA
ATOM     24  H   UNL     1      51.124   6.339  18.554  0.00  0.00    +0.000 HD
BRANCH  22  25
ATOM     25  C   UNL     1      53.706   6.382  18.769  0.00  0.00    +0.000 A 
ATOM     26  C   UNL     1      54.467   6.719  19.882  0.00  0.00    +0.000 A 
ATOM     27  S   UNL     1      55.404   8.128  19.676  0.00  0.00    +0.000 S 
ATOM     28  C   UNL     1      54.791   8.369  18.108  0.00  0.00    +0.000 A 
ATOM     29  N   UNL     1      55.158   9.455  17.376  0.00  0.00    +0.000 NA
ATOM     30  C   UNL     1      54.592   9.537  16.219  0.00  0.00    +0.000 A 
ATOM     31  N   UNL     1      53.702   8.621  15.721  0.00  0.00    +0.000 N 
ATOM     32  C   UNL     1      53.351   7.481  16.402  0.00  0.00    +0.000 A 
ATOM     33  O   UNL     1      52.625   6.631  15.889  0.00  0.00    +0.000 OA
ATOM     34  C   UNL     1      53.919   7.364  17.728  0.00  0.00    +0.000 A 
ATOM     35  H   UNL     1      53.312   8.731  14.798  0.00  0.00    +0.000 HD
ENDBRANCH  22  25
ENDBRANCH  20  21
ENDBRANCH   5  20
TORSDOF 7
ENDMDL
