MODEL 1
REMARK VINA RESULT:    -8.086      0.000      0.000
REMARK INTER + INTRA:         -13.095
REMARK INTER:                 -11.868
REMARK INTRA:                  -1.227
REMARK UNBOUND:                -1.227
REMARK  Name = 
REMARK  9 active torsions:
REMARK  status: ('A' for Active; 'I' for Inactive)
REMARK    1  A    between atoms: C_1  and  O_2
REMARK    2  A    between atoms: O_2  and  C_3
REMARK    3  A    between atoms: C_10  and  C_11
REMARK    4  A    between atoms: N_13  and  C_14
REMARK    5  A    between atoms: C_14  and  C_15
REMARK    6  A    between atoms: C_18  and  C_19
REMARK    7  A    between atoms: C_19  and  O_20
REMARK    8  A    between atoms: O_20  and  C_21
REMARK    9  A    between atoms: C_21  and  C_22
REMARK                            x       y       z     vdW  Elec       q    Type
REMARK                         _______ _______ _______ _____ _____    ______ ____
ROOT
ATOM      1  C   UNL     1      47.914   7.060  13.191  0.00  0.00    +0.000 C 
ENDROOT
BRANCH   1   2
ATOM      2  C   UNL     1      46.889   6.103  12.633  0.00  0.00    +0.000 A 
ATOM      3  C   UNL     1      46.443   5.006  13.384  0.00  0.00    +0.000 A 
ATOM      4  C   UNL     1      45.490   4.122  12.862  0.00  0.00    +0.000 A 
ATOM      5  C   UNL     1      44.970   4.308  11.573  0.00  0.00    +0.000 A 
ATOM      6  C   UNL     1      45.436   5.391  10.815  0.00  0.00    +0.000 A 
ATOM      7  C   UNL     1      46.388   6.274  11.335  0.00  0.00    +0.000 A 
BRANCH   5   8
ATOM      8  C   UNL     1      43.950   3.352  11.002  0.00  0.00    +0.000 C 
BRANCH   8   9
ATOM      9  O   UNL     1      44.156   3.214   9.598  0.00  0.00    +0.000 OA
BRANCH   9  10
ATOM     10  C   UNL     1      44.785   1.972   9.275  0.00  0.00    +0.000 C 
BRANCH  10  11
ATOM     11  C   UNL     1      45.866   2.180   8.250  0.00  0.00    +0.000 A 
ATOM     12  C   UNL     1      46.048   3.396   7.588  0.00  0.00    +0.000 A 
ATOM     13  C   UNL     1      47.050   3.525   6.631  0.00  0.00    +0.000 A 
ATOM     14  C   UNL     1      47.835   2.419   6.352  0.00  0.00    +0.000 A 
ATOM     15  N   UNL     1      47.678   1.219   6.949  0.00  0.00    +0.000 NA
ATOM     16  C   UNL     1      46.699   1.128   7.879  0.00  0.00    +0.000 A 
ENDBRANCH  10  11
ENDBRANCH   9  10
ENDBRANCH   8   9
ENDBRANCH   5   8
ENDBRANCH   1   2
BRANCH   1  19
ATOM     17  C   UNL     1      49.014   7.010  15.399  0.00  0.00    +0.000 C 
ATOM     18  O   UNL     1      50.131   6.935  14.891  0.00  0.00    +0.000 OA
ATOM     19  N   UNL     1      47.883   7.068  14.632  0.00  0.00    +0.000 N 
ATOM     20  H   UNL     1      46.976   7.046  15.072  0.00  0.00    +0.000 HD
BRANCH  17  28
ATOM     21  C   UNL     1      48.820   4.576  17.831  0.00  0.00    +0.000 A 
ATOM     22  N   UNL     1      48.679   3.847  18.956  0.00  0.00    +0.000 NA
ATOM     23  C   UNL     1      48.462   4.495  20.102  0.00  0.00    +0.000 A 
ATOM     24  N   UNL     1      48.370   5.809  20.272  0.00  0.00    +0.000 NA
ATOM     25  C   UNL     1      48.520   6.500  19.129  0.00  0.00    +0.000 A 
ATOM     26  S   UNL     1      48.442   8.196  19.159  0.00  0.00    +0.000 S 
ATOM     27  C   UNL     1      48.690   8.288  17.481  0.00  0.00    +0.000 A 
ATOM     28  C   UNL     1      48.833   7.051  16.862  0.00  0.00    +0.000 A 
ATOM     29  C   UNL     1      48.747   5.981  17.857  0.00  0.00    +0.000 A 
BRANCH  21  31
ATOM     30  C   UNL     1      48.260   2.770  16.455  0.00  0.00    +0.000 C 
ATOM     31  O   UNL     1      49.099   3.904  16.660  0.00  0.00    +0.000 OA
ENDBRANCH  21  31
ENDBRANCH  17  28
ENDBRANCH   1  19
TORSDOF 8
ENDMDL
MODEL 2
REMARK VINA RESULT:    -7.652      1.641      2.861
REMARK INTER + INTRA:         -12.458
REMARK INTER:                 -11.103
REMARK INTRA:                  -1.355
REMARK UNBOUND:                -1.227
REMARK  Name = 
REMARK  9 active torsions:
REMARK  status: ('A' for Active; 'I' for Inactive)
REMARK    1  A    between atoms: C_1  and  O_2
REMARK    2  A    between atoms: O_2  and  C_3
REMARK    3  A    between atoms: C_10  and  C_11
REMARK    4  A    between atoms: N_13  and  C_14
REMARK    5  A    between atoms: C_14  and  C_15
REMARK    6  A    between atoms: C_18  and  C_19
REMARK    7  A    between atoms: C_19  and  O_20
REMARK    8  A    between atoms: O_20  and  C_21
REMARK    9  A    between atoms: C_21  and  C_22
REMARK                            x       y       z     vdW  Elec       q    Type
REMARK                         _______ _______ _______ _____ _____    ______ ____
ROOT
ATOM      1  C   UNL     1      48.283   6.614  13.692  0.00  0.00    +0.000 C 
ENDROOT
BRANCH   1   2
ATOM      2  C   UNL     1      47.127   5.976  12.961  0.00  0.00    +0.000 A 
ATOM      3  C   UNL     1      46.744   6.422  11.689  0.00  0.00    +0.000 A 
ATOM      4  C   UNL     1      45.671   5.825  11.014  0.00  0.00    +0.000 A 
ATOM      5  C   UNL     1      44.950   4.776  11.602  0.00  0.00    +0.000 A 
ATOM      6  C   UNL     1      45.319   4.348  12.884  0.00  0.00    +0.000 A 
ATOM      7  C   UNL     1      46.390   4.944  13.559  0.00  0.00    +0.000 A 
BRANCH   5   8
ATOM      8  C   UNL     1      43.786   4.136  10.883  0.00  0.00    +0.000 C 
BRANCH   8   9
ATOM      9  O   UNL     1      44.177   3.782   9.559  0.00  0.00    +0.000 OA
BRANCH   9  10
ATOM     10  C   UNL     1      44.777   2.485   9.512  0.00  0.00    +0.000 C 
BRANCH  10  11
ATOM     11  C   UNL     1      45.720   2.382   8.345  0.00  0.00    +0.000 A 
ATOM     12  C   UNL     1      45.952   3.447   7.472  0.00  0.00    +0.000 A 
ATOM     13  C   UNL     1      46.819   3.288   6.394  0.00  0.00    +0.000 A 
ATOM     14  C   UNL     1      47.418   2.053   6.213  0.00  0.00    +0.000 A 
ATOM     15  N   UNL     1      47.203   0.991   7.018  0.00  0.00    +0.000 NA
ATOM     16  C   UNL     1      46.361   1.179   8.060  0.00  0.00    +0.000 A 
ENDBRANCH  10  11
ENDBRANCH   9  10
ENDBRANCH   8   9
ENDBRANCH   5   8
ENDBRANCH   1   2
BRANCH   1  19
ATOM     17  C   UNL     1      48.844   6.449  16.090  0.00  0.00    +0.000 C 
ATOM     18  O   UNL     1      49.941   5.955  15.846  0.00  0.00    +0.000 OA
ATOM     19  N   UNL     1      47.976   6.792  15.090  0.00  0.00    +0.000 N 
ATOM     20  H   UNL     1      47.050   7.119  15.319  0.00  0.00    +0.000 HD
BRANCH  17  28
ATOM     21  C   UNL     1      47.890   9.300  17.775  0.00  0.00    +0.000 A 
ATOM     22  N   UNL     1      47.515  10.240  18.665  0.00  0.00    +0.000 NA
ATOM     23  C   UNL     1      47.274   9.857  19.920  0.00  0.00    +0.000 A 
ATOM     24  N   UNL     1      47.354   8.624  20.409  0.00  0.00    +0.000 NA
ATOM     25  C   UNL     1      47.727   7.716  19.490  0.00  0.00    +0.000 A 
ATOM     26  S   UNL     1      47.872   6.085  19.937  0.00  0.00    +0.000 S 
ATOM     27  C   UNL     1      48.345   5.644  18.366  0.00  0.00    +0.000 A 
ATOM     28  C   UNL     1      48.406   6.710  17.474  0.00  0.00    +0.000 A 
ATOM     29  C   UNL     1      48.018   7.950  18.149  0.00  0.00    +0.000 A 
BRANCH  21  31
ATOM     30  C   UNL     1      49.409  10.156  16.217  0.00  0.00    +0.000 C 
ATOM     31  O   UNL     1      48.085   9.693  16.467  0.00  0.00    +0.000 OA
ENDBRANCH  21  31
ENDBRANCH  17  28
ENDBRANCH   1  19
TORSDOF 8
ENDMDL
MODEL 3
REMARK VINA RESULT:    -7.396      1.685      3.217
REMARK INTER + INTRA:         -12.082
REMARK INTER:                 -10.741
REMARK INTRA:                  -1.340
REMARK UNBOUND:                -1.227
REMARK  Name = 
REMARK  9 active torsions:
REMARK  status: ('A' for Active; 'I' for Inactive)
REMARK    1  A    between atoms: C_1  and  O_2
REMARK    2  A    between atoms: O_2  and  C_3
REMARK    3  A    between atoms: C_10  and  C_11
REMARK    4  A    between atoms: N_13  and  C_14
REMARK    5  A    between atoms: C_14  and  C_15
REMARK    6  A    between atoms: C_18  and  C_19
REMARK    7  A    between atoms: C_19  and  O_20
REMARK    8  A    between atoms: O_20  and  C_21
REMARK    9  A    between atoms: C_21  and  C_22
REMARK                            x       y       z     vdW  Elec       q    Type
REMARK                         _______ _______ _______ _____ _____    ______ ____
ROOT
ATOM      1  C   UNL     1      47.331   4.005  14.846  0.00  0.00    +0.000 C 
ENDROOT
BRANCH   1   2
ATOM      2  C   UNL     1      46.409   4.244  13.675  0.00  0.00    +0.000 A 
ATOM      3  C   UNL     1      46.069   5.545  13.279  0.00  0.00    +0.000 A 
ATOM      4  C   UNL     1      45.215   5.762  12.190  0.00  0.00    +0.000 A 
ATOM      5  C   UNL     1      44.673   4.682  11.479  0.00  0.00    +0.000 A 
ATOM      6  C   UNL     1      44.995   3.381  11.892  0.00  0.00    +0.000 A 
ATOM      7  C   UNL     1      45.847   3.165  12.980  0.00  0.00    +0.000 A 
BRANCH   5   8
ATOM      8  C   UNL     1      43.744   4.909  10.310  0.00  0.00    +0.000 C 
BRANCH   8   9
ATOM      9  O   UNL     1      44.070   4.007   9.256  0.00  0.00    +0.000 OA
BRANCH   9  10
ATOM     10  C   UNL     1      45.208   4.450   8.514  0.00  0.00    +0.000 C 
BRANCH  10  11
ATOM     11  C   UNL     1      45.965   3.276   7.957  0.00  0.00    +0.000 A 
ATOM     12  C   UNL     1      46.778   3.377   6.825  0.00  0.00    +0.000 A 
ATOM     13  C   UNL     1      47.438   2.251   6.340  0.00  0.00    +0.000 A 
ATOM     14  C   UNL     1      47.249   1.047   6.997  0.00  0.00    +0.000 A 
ATOM     15  N   UNL     1      46.454   0.900   8.078  0.00  0.00    +0.000 NA
ATOM     16  C   UNL     1      45.831   2.014   8.529  0.00  0.00    +0.000 A 
ENDBRANCH  10  11
ENDBRANCH   9  10
ENDBRANCH   8   9
ENDBRANCH   5   8
ENDBRANCH   1   2
BRANCH   1  19
ATOM     17  C   UNL     1      48.542   5.369  16.508  0.00  0.00    +0.000 C 
ATOM     18  O   UNL     1      49.347   4.468  16.728  0.00  0.00    +0.000 OA
ATOM     19  N   UNL     1      47.525   5.215  15.606  0.00  0.00    +0.000 N 
ATOM     20  H   UNL     1      46.830   5.939  15.504  0.00  0.00    +0.000 HD
BRANCH  17  28
ATOM     21  C   UNL     1      48.801   8.622  15.398  0.00  0.00    +0.000 A 
ATOM     22  N   UNL     1      48.937   9.954  15.245  0.00  0.00    +0.000 NA
ATOM     23  C   UNL     1      49.033  10.706  16.343  0.00  0.00    +0.000 A 
ATOM     24  N   UNL     1      49.003  10.287  17.604  0.00  0.00    +0.000 NA
ATOM     25  C   UNL     1      48.862   8.955  17.713  0.00  0.00    +0.000 A 
ATOM     26  S   UNL     1      48.795   8.245  19.254  0.00  0.00    +0.000 S 
ATOM     27  C   UNL     1      48.637   6.691  18.586  0.00  0.00    +0.000 A 
ATOM     28  C   UNL     1      48.634   6.671  17.196  0.00  0.00    +0.000 A 
ATOM     29  C   UNL     1      48.753   8.034  16.675  0.00  0.00    +0.000 A 
BRANCH  21  31
ATOM     30  C   UNL     1      49.827   7.798  13.465  0.00  0.00    +0.000 C 
ATOM     31  O   UNL     1      48.646   7.856  14.261  0.00  0.00    +0.000 OA
ENDBRANCH  21  31
ENDBRANCH  17  28
ENDBRANCH   1  19
TORSDOF 8
ENDMDL
MODEL 4
REMARK VINA RESULT:    -7.133      2.215      3.310
REMARK INTER + INTRA:         -11.696
REMARK INTER:                 -10.501
REMARK INTRA:                  -1.195
REMARK UNBOUND:                -1.227
REMARK  Name = 
REMARK  9 active torsions:
REMARK  status: ('A' for Active; 'I' for Inactive)
REMARK    1  A    between atoms: C_1  and  O_2
REMARK    2  A    between atoms: O_2  and  C_3
REMARK    3  A    between atoms: C_10  and  C_11
REMARK    4  A    between atoms: N_13  and  C_14
REMARK    5  A    between atoms: C_14  and  C_15
REMARK    6  A    between atoms: C_18  and  C_19
REMARK    7  A    between atoms: C_19  and  O_20
REMARK    8  A    between atoms: O_20  and  C_21
REMARK    9  A    between atoms: C_21  and  C_22
REMARK                            x       y       z     vdW  Elec       q    Type
REMARK                         _______ _______ _______ _____ _____    ______ ____
ROOT
ATOM      1  C   UNL     1      47.517   4.954  14.745  0.00  0.00    +0.000 C 
ENDROOT
BRANCH   1   2
ATOM      2  C   UNL     1      46.452   4.800  13.687  0.00  0.00    +0.000 A 
ATOM      3  C   UNL     1      45.693   5.900  13.262  0.00  0.00    +0.000 A 
ATOM      4  C   UNL     1      44.707   5.752  12.279  0.00  0.00    +0.000 A 
ATOM      5  C   UNL     1      44.449   4.498  11.706  0.00  0.00    +0.000 A 
ATOM      6  C   UNL     1      45.191   3.395  12.150  0.00  0.00    +0.000 A 
ATOM      7  C   UNL     1      46.176   3.543  13.132  0.00  0.00    +0.000 A 
BRANCH   5   8
ATOM      8  C   UNL     1      43.380   4.331  10.652  0.00  0.00    +0.000 C 
BRANCH   8   9
ATOM      9  O   UNL     1      43.825   3.410   9.660  0.00  0.00    +0.000 OA
BRANCH   9  10
ATOM     10  C   UNL     1      44.608   4.053   8.653  0.00  0.00    +0.000 C 
BRANCH  10  11
ATOM     11  C   UNL     1      45.601   3.091   8.061  0.00  0.00    +0.000 A 
ATOM     12  C   UNL     1      46.415   3.426   6.977  0.00  0.00    +0.000 A 
ATOM     13  C   UNL     1      47.301   2.487   6.455  0.00  0.00    +0.000 A 
ATOM     14  C   UNL     1      47.333   1.227   7.028  0.00  0.00    +0.000 A 
ATOM     15  N   UNL     1      46.547   0.854   8.060  0.00  0.00    +0.000 NA
ATOM     16  C   UNL     1      45.702   1.791   8.549  0.00  0.00    +0.000 A 
ENDBRANCH  10  11
ENDBRANCH   9  10
ENDBRANCH   8   9
ENDBRANCH   5   8
ENDBRANCH   1   2
BRANCH   1  19
ATOM     17  C   UNL     1      48.693   7.075  14.292  0.00  0.00    +0.000 C 
ATOM     18  O   UNL     1      49.344   6.572  13.380  0.00  0.00    +0.000 OA
ATOM     19  N   UNL     1      47.786   6.346  15.009  0.00  0.00    +0.000 N 
ATOM     20  H   UNL     1      47.325   6.760  15.805  0.00  0.00    +0.000 HD
BRANCH  17  28
ATOM     21  C   UNL     1      48.662   8.766  17.295  0.00  0.00    +0.000 A 
ATOM     22  N   UNL     1      48.662   9.664  18.300  0.00  0.00    +0.000 NA
ATOM     23  C   UNL     1      48.804  10.954  17.992  0.00  0.00    +0.000 A 
ATOM     24  N   UNL     1      48.958  11.474  16.779  0.00  0.00    +0.000 NA
ATOM     25  C   UNL     1      48.958  10.547  15.805  0.00  0.00    +0.000 A 
ATOM     26  S   UNL     1      49.153  11.032  14.190  0.00  0.00    +0.000 S 
ATOM     27  C   UNL     1      49.037   9.428  13.642  0.00  0.00    +0.000 A 
ATOM     28  C   UNL     1      48.847   8.496  14.657  0.00  0.00    +0.000 A 
ATOM     29  C   UNL     1      48.817   9.171  15.956  0.00  0.00    +0.000 A 
BRANCH  21  31
ATOM     30  C   UNL     1      49.816   6.870  18.030  0.00  0.00    +0.000 C 
ATOM     31  O   UNL     1      48.570   7.430  17.624  0.00  0.00    +0.000 OA
ENDBRANCH  21  31
ENDBRANCH  17  28
ENDBRANCH   1  19
TORSDOF 8
ENDMDL
MODEL 5
REMARK VINA RESULT:    -7.132      1.840      2.180
REMARK INTER + INTRA:         -11.695
REMARK INTER:                 -10.665
REMARK INTRA:                  -1.030
REMARK UNBOUND:                -1.227
REMARK  Name = 
REMARK  9 active torsions:
REMARK  status: ('A' for Active; 'I' for Inactive)
REMARK    1  A    between atoms: C_1  and  O_2
REMARK    2  A    between atoms: O_2  and  C_3
REMARK    3  A    between atoms: C_10  and  C_11
REMARK    4  A    between atoms: N_13  and  C_14
REMARK    5  A    between atoms: C_14  and  C_15
REMARK    6  A    between atoms: C_18  and  C_19
REMARK    7  A    between atoms: C_19  and  O_20
REMARK    8  A    between atoms: O_20  and  C_21
REMARK    9  A    between atoms: C_21  and  C_22
REMARK                            x       y       z     vdW  Elec       q    Type
REMARK                         _______ _______ _______ _____ _____    ______ ____
ROOT
ATOM      1  C   UNL     1      47.211   8.314  13.658  0.00  0.00    +0.000 C 
ENDROOT
BRANCH   1   2
ATOM      2  C   UNL     1      46.425   7.319  12.838  0.00  0.00    +0.000 A 
ATOM      3  C   UNL     1      45.253   7.701  12.172  0.00  0.00    +0.000 A 
ATOM      4  C   UNL     1      44.528   6.775  11.411  0.00  0.00    +0.000 A 
ATOM      5  C   UNL     1      44.954   5.443  11.309  0.00  0.00    +0.000 A 
ATOM      6  C   UNL     1      46.113   5.057  11.996  0.00  0.00    +0.000 A 
ATOM      7  C   UNL     1      46.836   5.982  12.756  0.00  0.00    +0.000 A 
BRANCH   5   8
ATOM      8  C   UNL     1      44.171   4.438  10.498  0.00  0.00    +0.000 C 
BRANCH   8   9
ATOM      9  O   UNL     1      44.888   3.207  10.438  0.00  0.00    +0.000 OA
BRANCH   9  10
ATOM     10  C   UNL     1      44.499   2.422   9.309  0.00  0.00    +0.000 C 
BRANCH  10  11
ATOM     11  C   UNL     1      45.621   2.343   8.310  0.00  0.00    +0.000 A 
ATOM     12  C   UNL     1      45.987   3.425   7.506  0.00  0.00    +0.000 A 
ATOM     13  C   UNL     1      47.019   3.288   6.582  0.00  0.00    +0.000 A 
ATOM     14  C   UNL     1      47.647   2.058   6.478  0.00  0.00    +0.000 A 
ATOM     15  N   UNL     1      47.308   0.981   7.217  0.00  0.00    +0.000 NA
ATOM     16  C   UNL     1      46.306   1.147   8.111  0.00  0.00    +0.000 A 
ENDBRANCH  10  11
ENDBRANCH   9  10
ENDBRANCH   8   9
ENDBRANCH   5   8
ENDBRANCH   1   2
BRANCH   1  19
ATOM     17  C   UNL     1      48.844   8.002  15.482  0.00  0.00    +0.000 C 
ATOM     18  O   UNL     1      48.280   8.833  16.190  0.00  0.00    +0.000 OA
ATOM     19  N   UNL     1      48.384   7.699  14.230  0.00  0.00    +0.000 N 
ATOM     20  H   UNL     1      48.910   7.075  13.639  0.00  0.00    +0.000 HD
BRANCH  17  28
ATOM     21  C   UNL     1      49.304   5.078  17.247  0.00  0.00    +0.000 A 
ATOM     22  N   UNL     1      49.763   4.014  17.936  0.00  0.00    +0.000 NA
ATOM     23  C   UNL     1      51.081   3.893  18.101  0.00  0.00    +0.000 A 
ATOM     24  N   UNL     1      52.022   4.716  17.650  0.00  0.00    +0.000 NA
ATOM     25  C   UNL     1      51.525   5.760  16.966  0.00  0.00    +0.000 A 
ATOM     26  S   UNL     1      52.586   6.910  16.307  0.00  0.00    +0.000 S 
ATOM     27  C   UNL     1      51.294   7.816  15.677  0.00  0.00    +0.000 A 
ATOM     28  C   UNL     1      50.041   7.277  15.949  0.00  0.00    +0.000 A 
ATOM     29  C   UNL     1      50.184   6.034  16.708  0.00  0.00    +0.000 A 
BRANCH  21  31
ATOM     30  C   UNL     1      47.421   4.054  16.315  0.00  0.00    +0.000 C 
ATOM     31  O   UNL     1      47.945   5.168  17.033  0.00  0.00    +0.000 OA
ENDBRANCH  21  31
ENDBRANCH  17  28
ENDBRANCH   1  19
TORSDOF 8
ENDMDL
MODEL 6
REMARK VINA RESULT:    -6.890      2.430      3.235
REMARK INTER + INTRA:         -11.339
REMARK INTER:                 -10.086
REMARK INTRA:                  -1.254
REMARK UNBOUND:                -1.227
REMARK  Name = 
REMARK  9 active torsions:
REMARK  status: ('A' for Active; 'I' for Inactive)
REMARK    1  A    between atoms: C_1  and  O_2
REMARK    2  A    between atoms: O_2  and  C_3
REMARK    3  A    between atoms: C_10  and  C_11
REMARK    4  A    between atoms: N_13  and  C_14
REMARK    5  A    between atoms: C_14  and  C_15
REMARK    6  A    between atoms: C_18  and  C_19
REMARK    7  A    between atoms: C_19  and  O_20
REMARK    8  A    between atoms: O_20  and  C_21
REMARK    9  A    between atoms: C_21  and  C_22
REMARK                            x       y       z     vdW  Elec       q    Type
REMARK                         _______ _______ _______ _____ _____    ______ ____
ROOT
ATOM      1  C   UNL     1      46.406   8.335  12.906  0.00  0.00    +0.000 C 
ENDROOT
BRANCH   1   2
ATOM      2  C   UNL     1      45.793   7.037  12.438  0.00  0.00    +0.000 A 
ATOM      3  C   UNL     1      45.112   6.961  11.215  0.00  0.00    +0.000 A 
ATOM      4  C   UNL     1      44.546   5.754  10.785  0.00  0.00    +0.000 A 
ATOM      5  C   UNL     1      44.640   4.598  11.573  0.00  0.00    +0.000 A 
ATOM      6  C   UNL     1      45.300   4.682  12.806  0.00  0.00    +0.000 A 
ATOM      7  C   UNL     1      45.864   5.887  13.237  0.00  0.00    +0.000 A 
BRANCH   5   8
ATOM      8  C   UNL     1      44.023   3.296  11.118  0.00  0.00    +0.000 C 
BRANCH   8   9
ATOM      9  O   UNL     1      45.007   2.507  10.454  0.00  0.00    +0.000 OA
BRANCH   9  10
ATOM     10  C   UNL     1      44.614   2.185   9.118  0.00  0.00    +0.000 C 
BRANCH  10  11
ATOM     11  C   UNL     1      45.795   2.257   8.189  0.00  0.00    +0.000 A 
ATOM     12  C   UNL     1      46.144   3.427   7.510  0.00  0.00    +0.000 A 
ATOM     13  C   UNL     1      47.234   3.430   6.644  0.00  0.00    +0.000 A 
ATOM     14  C   UNL     1      47.936   2.250   6.471  0.00  0.00    +0.000 A 
ATOM     15  N   UNL     1      47.618   1.092   7.087  0.00  0.00    +0.000 NA
ATOM     16  C   UNL     1      46.558   1.123   7.927  0.00  0.00    +0.000 A 
ENDBRANCH  10  11
ENDBRANCH   9  10
ENDBRANCH   8   9
ENDBRANCH   5   8
ENDBRANCH   1   2
BRANCH   1  19
ATOM     17  C   UNL     1      48.638   9.200  13.504  0.00  0.00    +0.000 C 
ATOM     18  O   UNL     1      48.257  10.365  13.427  0.00  0.00    +0.000 OA
ATOM     19  N   UNL     1      47.793   8.154  13.257  0.00  0.00    +0.000 N 
ATOM     20  H   UNL     1      48.150   7.211  13.247  0.00  0.00    +0.000 HD
BRANCH  17  28
ATOM     21  C   UNL     1      50.019   6.931  15.699  0.00  0.00    +0.000 A 
ATOM     22  N   UNL     1      50.808   6.176  16.489  0.00  0.00    +0.000 NA
ATOM     23  C   UNL     1      52.126   6.369  16.430  0.00  0.00    +0.000 A 
ATOM     24  N   UNL     1      52.773   7.237  15.660  0.00  0.00    +0.000 NA
ATOM     25  C   UNL     1      51.953   7.967  14.885  0.00  0.00    +0.000 A 
ATOM     26  S   UNL     1      52.609   9.122  13.827  0.00  0.00    +0.000 S 
ATOM     27  C   UNL     1      51.064   9.570  13.278  0.00  0.00    +0.000 A 
ATOM     28  C   UNL     1      50.026   8.866  13.877  0.00  0.00    +0.000 A 
ATOM     29  C   UNL     1      50.564   7.893  14.829  0.00  0.00    +0.000 A 
BRANCH  21  31
ATOM     30  C   UNL     1      48.341   5.370  16.162  0.00  0.00    +0.000 C 
ATOM     31  O   UNL     1      48.661   6.688  15.725  0.00  0.00    +0.000 OA
ENDBRANCH  21  31
ENDBRANCH  17  28
ENDBRANCH   1  19
TORSDOF 8
ENDMDL
MODEL 7
REMARK VINA RESULT:    -6.584      4.285      9.343
REMARK INTER + INTRA:         -10.890
REMARK INTER:                  -9.654
REMARK INTRA:                  -1.236
REMARK UNBOUND:                -1.227
REMARK  Name = 
REMARK  9 active torsions:
REMARK  status: ('A' for Active; 'I' for Inactive)
REMARK    1  A    between atoms: C_1  and  O_2
REMARK    2  A    between atoms: O_2  and  C_3
REMARK    3  A    between atoms: C_10  and  C_11
REMARK    4  A    between atoms: N_13  and  C_14
REMARK    5  A    between atoms: C_14  and  C_15
REMARK    6  A    between atoms: C_18  and  C_19
REMARK    7  A    between atoms: C_19  and  O_20
REMARK    8  A    between atoms: O_20  and  C_21
REMARK    9  A    between atoms: C_21  and  C_22
REMARK                            x       y       z     vdW  Elec       q    Type
REMARK                         _______ _______ _______ _____ _____    ______ ____
ROOT
ATOM      1  C   UNL     1      47.536   3.510  16.740  0.00  0.00    +0.000 C 
ENDROOT
BRANCH   1   2
ATOM      2  C   UNL     1      48.958   3.749  17.189  0.00  0.00    +0.000 A 
ATOM      3  C   UNL     1      49.884   2.698  17.240  0.00  0.00    +0.000 A 
ATOM      4  C   UNL     1      51.202   2.926  17.656  0.00  0.00    +0.000 A 
ATOM      5  C   UNL     1      51.621   4.207  18.040  0.00  0.00    +0.000 A 
ATOM      6  C   UNL     1      50.687   5.252  18.012  0.00  0.00    +0.000 A 
ATOM      7  C   UNL     1      49.370   5.025  17.598  0.00  0.00    +0.000 A 
BRANCH   5   8
ATOM      8  C   UNL     1      53.038   4.456  18.499  0.00  0.00    +0.000 C 
BRANCH   8   9
ATOM      9  O   UNL     1      53.947   4.103  17.459  0.00  0.00    +0.000 OA
BRANCH   9  10
ATOM     10  C   UNL     1      55.107   3.444  17.971  0.00  0.00    +0.000 C 
BRANCH  10  11
ATOM     11  C   UNL     1      54.850   1.971  18.129  0.00  0.00    +0.000 A 
ATOM     12  C   UNL     1      54.447   1.161  17.064  0.00  0.00    +0.000 A 
ATOM     13  C   UNL     1      54.201  -0.193  17.273  0.00  0.00    +0.000 A 
ATOM     14  C   UNL     1      54.351  -0.696  18.555  0.00  0.00    +0.000 A 
ATOM     15  N   UNL     1      54.713   0.055  19.616  0.00  0.00    +0.000 NA
ATOM     16  C   UNL     1      54.952   1.366  19.379  0.00  0.00    +0.000 A 
ENDBRANCH  10  11
ENDBRANCH   9  10
ENDBRANCH   8   9
ENDBRANCH   5   8
ENDBRANCH   1   2
BRANCH   1  19
ATOM     17  C   UNL     1      46.951   4.307  14.479  0.00  0.00    +0.000 C 
ATOM     18  O   UNL     1      47.183   3.207  13.983  0.00  0.00    +0.000 OA
ATOM     19  N   UNL     1      47.107   4.533  15.819  0.00  0.00    +0.000 N 
ATOM     20  H   UNL     1      46.989   5.464  16.188  0.00  0.00    +0.000 HD
BRANCH  17  28
ATOM     21  C   UNL     1      44.072   4.895  12.680  0.00  0.00    +0.000 A 
ATOM     22  N   UNL     1      43.087   5.363  11.888  0.00  0.00    +0.000 NA
ATOM     23  C   UNL     1      43.256   6.553  11.310  0.00  0.00    +0.000 A 
ATOM     24  N   UNL     1      44.307   7.358  11.431  0.00  0.00    +0.000 NA
ATOM     25  C   UNL     1      45.264   6.858  12.231  0.00  0.00    +0.000 A 
ATOM     26  S   UNL     1      46.677   7.758  12.508  0.00  0.00    +0.000 S 
ATOM     27  C   UNL     1      47.313   6.545  13.512  0.00  0.00    +0.000 A 
ATOM     28  C   UNL     1      46.482   5.440  13.659  0.00  0.00    +0.000 A 
ATOM     29  C   UNL     1      45.246   5.639  12.902  0.00  0.00    +0.000 A 
BRANCH  21  31
ATOM     30  C   UNL     1      43.611   2.619  12.413  0.00  0.00    +0.000 C 
ATOM     31  O   UNL     1      43.867   3.690  13.318  0.00  0.00    +0.000 OA
ENDBRANCH  21  31
ENDBRANCH  17  28
ENDBRANCH   1  19
TORSDOF 8
ENDMDL
MODEL 8
REMARK VINA RESULT:    -6.504      3.804      4.932
REMARK INTER + INTRA:         -10.772
REMARK INTER:                  -9.809
REMARK INTRA:                  -0.963
REMARK UNBOUND:                -1.227
REMARK  Name = 
REMARK  9 active torsions:
REMARK  status: ('A' for Active; 'I' for Inactive)
REMARK    1  A    between atoms: C_1  and  O_2
REMARK    2  A    between atoms: O_2  and  C_3
REMARK    3  A    between atoms: C_10  and  C_11
REMARK    4  A    between atoms: N_13  and  C_14
REMARK    5  A    between atoms: C_14  and  C_15
REMARK    6  A    between atoms: C_18  and  C_19
REMARK    7  A    between atoms: C_19  and  O_20
REMARK    8  A    between atoms: O_20  and  C_21
REMARK    9  A    between atoms: C_21  and  C_22
REMARK                            x       y       z     vdW  Elec       q    Type
REMARK                         _______ _______ _______ _____ _____    ______ ____
ROOT
ATOM      1  C   UNL     1      46.435   8.086  13.286  0.00  0.00    +0.000 C 
ENDROOT
BRANCH   1   2
ATOM      2  C   UNL     1      45.789   6.881  12.648  0.00  0.00    +0.000 A 
ATOM      3  C   UNL     1      44.789   7.028  11.677  0.00  0.00    +0.000 A 
ATOM      4  C   UNL     1      44.194   5.905  11.086  0.00  0.00    +0.000 A 
ATOM      5  C   UNL     1      44.578   4.610  11.462  0.00  0.00    +0.000 A 
ATOM      6  C   UNL     1      45.561   4.465  12.451  0.00  0.00    +0.000 A 
ATOM      7  C   UNL     1      46.155   5.586  13.041  0.00  0.00    +0.000 A 
BRANCH   5   8
ATOM      8  C   UNL     1      43.933   3.397  10.835  0.00  0.00    +0.000 C 
BRANCH   8   9
ATOM      9  O   UNL     1      44.297   3.317   9.460  0.00  0.00    +0.000 OA
BRANCH   9  10
ATOM     10  C   UNL     1      44.852   2.042   9.132  0.00  0.00    +0.000 C 
BRANCH  10  11
ATOM     11  C   UNL     1      45.878   2.177   8.041  0.00  0.00    +0.000 A 
ATOM     12  C   UNL     1      45.930   3.287   7.194  0.00  0.00    +0.000 A 
ATOM     13  C   UNL     1      46.888   3.349   6.186  0.00  0.00    +0.000 A 
ATOM     14  C   UNL     1      47.759   2.283   6.044  0.00  0.00    +0.000 A 
ATOM     15  N   UNL     1      47.728   1.181   6.823  0.00  0.00    +0.000 NA
ATOM     16  C   UNL     1      46.790   1.154   7.798  0.00  0.00    +0.000 A 
ENDBRANCH  10  11
ENDBRANCH   9  10
ENDBRANCH   8   9
ENDBRANCH   5   8
ENDBRANCH   1   2
BRANCH   1  19
ATOM     17  C   UNL     1      48.891   7.867  13.382  0.00  0.00    +0.000 C 
ATOM     18  O   UNL     1      48.841   7.265  14.451  0.00  0.00    +0.000 OA
ATOM     19  N   UNL     1      47.757   8.306  12.755  0.00  0.00    +0.000 N 
ATOM     20  H   UNL     1      47.830   8.868  11.921  0.00  0.00    +0.000 HD
BRANCH  17  28
ATOM     21  C   UNL     1      51.757   9.524  14.339  0.00  0.00    +0.000 A 
ATOM     22  N   UNL     1      52.958  10.128  14.437  0.00  0.00    +0.000 NA
ATOM     23  C   UNL     1      53.770  10.089  13.380  0.00  0.00    +0.000 A 
ATOM     24  N   UNL     1      53.533   9.505  12.210  0.00  0.00    +0.000 NA
ATOM     25  C   UNL     1      52.328   8.911  12.154  0.00  0.00    +0.000 A 
ATOM     26  S   UNL     1      51.859   8.105  10.735  0.00  0.00    +0.000 S 
ATOM     27  C   UNL     1      50.358   7.685  11.410  0.00  0.00    +0.000 A 
ATOM     28  C   UNL     1      50.176   8.141  12.711  0.00  0.00    +0.000 A 
ATOM     29  C   UNL     1      51.367   8.863  13.159  0.00  0.00    +0.000 A 
BRANCH  21  31
ATOM     30  C   UNL     1      50.245  10.747  15.636  0.00  0.00    +0.000 C 
ATOM     31  O   UNL     1      50.945   9.519  15.454  0.00  0.00    +0.000 OA
ENDBRANCH  21  31
ENDBRANCH  17  28
ENDBRANCH   1  19
TORSDOF 8
ENDMDL
MODEL 9
REMARK VINA RESULT:    -6.486      2.723      4.017
REMARK INTER + INTRA:         -10.746
REMARK INTER:                  -9.704
REMARK INTRA:                  -1.042
REMARK UNBOUND:                -1.227
REMARK  Name = 
REMARK  9 active torsions:
REMARK  status: ('A' for Active; 'I' for Inactive)
REMARK    1  A    between atoms: C_1  and  O_2
REMARK    2  A    between atoms: O_2  and  C_3
REMARK    3  A    between atoms: C_10  and  C_11
REMARK    4  A    between atoms: N_13  and  C_14
REMARK    5  A    between atoms: C_14  and  C_15
REMARK    6  A    between atoms: C_18  and  C_19
REMARK    7  A    between atoms: C_19  and  O_20
REMARK    8  A    between atoms: O_20  and  C_21
REMARK    9  A    between atoms: C_21  and  C_22
REMARK                            x       y       z     vdW  Elec       q    Type
REMARK                         _______ _______ _______ _____ _____    ______ ____
ROOT
ATOM      1  C   UNL     1      47.649   5.365  14.709  0.00  0.00    +0.000 C 
ENDROOT
BRANCH   1   2
ATOM      2  C   UNL     1      46.550   5.083  13.713  0.00  0.00    +0.000 A 
ATOM      3  C   UNL     1      45.735   6.115  13.228  0.00  0.00    +0.000 A 
ATOM      4  C   UNL     1      44.718   5.848  12.302  0.00  0.00    +0.000 A 
ATOM      5  C   UNL     1      44.486   4.541  11.848  0.00  0.00    +0.000 A 
ATOM      6  C   UNL     1      45.287   3.508  12.353  0.00  0.00    +0.000 A 
ATOM      7  C   UNL     1      46.302   3.773  13.278  0.00  0.00    +0.000 A 
BRANCH   5   8
ATOM      8  C   UNL     1      43.385   4.247  10.858  0.00  0.00    +0.000 C 
BRANCH   8   9
ATOM      9  O   UNL     1      43.855   3.321   9.880  0.00  0.00    +0.000 OA
BRANCH   9  10
ATOM     10  C   UNL     1      44.538   3.980   8.813  0.00  0.00    +0.000 C 
BRANCH  10  11
ATOM     11  C   UNL     1      45.559   3.065   8.195  0.00  0.00    +0.000 A 
ATOM     12  C   UNL     1      46.421   3.482   7.177  0.00  0.00    +0.000 A 
ATOM     13  C   UNL     1      47.332   2.585   6.626  0.00  0.00    +0.000 A 
ATOM     14  C   UNL     1      47.341   1.284   7.102  0.00  0.00    +0.000 A 
ATOM     15  N   UNL     1      46.509   0.834   8.065  0.00  0.00    +0.000 NA
ATOM     16  C   UNL     1      45.640   1.731   8.585  0.00  0.00    +0.000 A 
ENDBRANCH  10  11
ENDBRANCH   9  10
ENDBRANCH   8   9
ENDBRANCH   5   8
ENDBRANCH   1   2
BRANCH   1  19
ATOM     17  C   UNL     1      48.796   7.443  15.382  0.00  0.00    +0.000 C 
ATOM     18  O   UNL     1      48.685   7.171  16.575  0.00  0.00    +0.000 OA
ATOM     19  N   UNL     1      48.309   6.612  14.411  0.00  0.00    +0.000 N 
ATOM     20  H   UNL     1      48.339   6.896  13.444  0.00  0.00    +0.000 HD
BRANCH  17  28
ATOM     21  C   UNL     1      52.102   8.389  15.161  0.00  0.00    +0.000 A 
ATOM     22  N   UNL     1      53.284   9.017  15.004  0.00  0.00    +0.000 NA
ATOM     23  C   UNL     1      53.274  10.276  14.565  0.00  0.00    +0.000 A 
ATOM     24  N   UNL     1      52.207  11.004  14.249  0.00  0.00    +0.000 NA
ATOM     25  C   UNL     1      51.050  10.341  14.414  0.00  0.00    +0.000 A 
ATOM     26  S   UNL     1      49.584  11.114  14.048  0.00  0.00    +0.000 S 
ATOM     27  C   UNL     1      48.689   9.740  14.496  0.00  0.00    +0.000 A 
ATOM     28  C   UNL     1      49.470   8.675  14.931  0.00  0.00    +0.000 A 
ATOM     29  C   UNL     1      50.888   9.034  14.865  0.00  0.00    +0.000 A 
BRANCH  21  31
ATOM     30  C   UNL     1      52.168   6.920  16.980  0.00  0.00    +0.000 C 
ATOM     31  O   UNL     1      52.123   7.069  15.563  0.00  0.00    +0.000 OA
ENDBRANCH  21  31
ENDBRANCH  17  28
ENDBRANCH   1  19
TORSDOF 8
ENDMDL
