MODEL 1
REMARK VINA RESULT:    -8.593      0.000      0.000
REMARK INTER + INTRA:         -11.984
REMARK INTER:                 -11.104
REMARK INTRA:                  -0.879
REMARK UNBOUND:                -0.879
REMARK  Name = 
REMARK  5 active torsions:
REMARK  status: ('A' for Active; 'I' for Inactive)
REMARK    1  A    between atoms: C_2  and  C_4
REMARK    2  A    between atoms: C_7  and  N_8
REMARK    3  A    between atoms: N_8  and  C_9
REMARK    4  A    between atoms: C_9  and  C_10
REMARK    5  A    between atoms: C_14  and  C_15
REMARK                            x       y       z     vdW  Elec       q    Type
REMARK                         _______ _______ _______ _____ _____    ______ ____
ROOT
ATOM      1  N   UNL     1      43.776   4.948   9.862  0.00  0.00    +0.000 N 
ATOM      2  H   UNL     1      42.975   5.260   9.316  0.00  0.00    +0.000 HD
ENDROOT
BRANCH   1   6
ATOM      3  C   UNL     1      46.344   2.263   7.841  0.00  0.00    +0.000 A 
ATOM      4  C   UNL     1      45.395   1.766   8.733  0.00  0.00    +0.000 A 
ATOM      5  C   UNL     1      44.528   2.644   9.394  0.00  0.00    +0.000 A 
ATOM      6  C   UNL     1      44.566   4.027   9.163  0.00  0.00    +0.000 A 
ATOM      7  C   UNL     1      45.542   4.509   8.280  0.00  0.00    +0.000 A 
ATOM      8  C   UNL     1      46.428   3.640   7.627  0.00  0.00    +0.000 A 
BRANCH   3  10
ATOM      9  N   UNL     1      48.366   1.939   6.520  0.00  0.00    +0.000 N 
ATOM     10  C   UNL     1      47.300   1.358   7.147  0.00  0.00    +0.000 C 
ATOM     11  O   UNL     1      47.155   0.143   7.157  0.00  0.00    +0.000 OA
ATOM     12  H   UNL     1      49.055   1.309   6.129  0.00  0.00    +0.000 HD
ATOM     13  H   UNL     1      48.644   2.894   6.690  0.00  0.00    +0.000 HD
ENDBRANCH   3  10
ENDBRANCH   1   6
BRANCH   1  14
ATOM     14  C   UNL     1      43.477   4.701  11.267  0.00  0.00    +0.000 C 
BRANCH  14  15
ATOM     15  C   UNL     1      44.682   4.921  12.138  0.00  0.00    +0.000 A 
ATOM     16  C   UNL     1      44.990   4.024  13.152  0.00  0.00    +0.000 A 
ATOM     17  N   UNL     1      46.093   4.110  13.923  0.00  0.00    +0.000 NA
ATOM     18  C   UNL     1      46.938   5.139  13.664  0.00  0.00    +0.000 A 
ATOM     19  C   UNL     1      46.758   6.102  12.668  0.00  0.00    +0.000 A 
ATOM     20  C   UNL     1      45.585   5.969  11.905  0.00  0.00    +0.000 A 
BRANCH  19  21
ATOM     21  C   UNL     1      47.743   7.177  12.426  0.00  0.00    +0.000 A 
ATOM     22  C   UNL     1      47.359   8.488  12.107  0.00  0.00    +0.000 A 
ATOM     23  C   UNL     1      48.316   9.479  11.886  0.00  0.00    +0.000 A 
ATOM     24  C   UNL     1      49.651   9.139  11.994  0.00  0.00    +0.000 A 
ATOM     25  N   UNL     1      50.079   7.897  12.294  0.00  0.00    +0.000 NA
ATOM     26  C   UNL     1      49.122   6.957  12.493  0.00  0.00    +0.000 A 
ENDBRANCH  19  21
ENDBRANCH  14  15
ENDBRANCH   1  14
TORSDOF 5
ENDMDL
MODEL 2
REMARK VINA RESULT:    -8.151      1.970      3.275
REMARK INTER + INTRA:         -11.413
REMARK INTER:                 -10.723
REMARK INTRA:                  -0.690
REMARK UNBOUND:                -0.879
REMARK  Name = 
REMARK  5 active torsions:
REMARK  status: ('A' for Active; 'I' for Inactive)
REMARK    1  A    between atoms: C_2  and  C_4
REMARK    2  A    between atoms: C_7  and  N_8
REMARK    3  A    between atoms: N_8  and  C_9
REMARK    4  A    between atoms: C_9  and  C_10
REMARK    5  A    between atoms: C_14  and  C_15
REMARK                            x       y       z     vdW  Elec       q    Type
REMARK                         _______ _______ _______ _____ _____    ______ ____
ROOT
ATOM      1  N   UNL     1      44.049   4.888  10.130  0.00  0.00    +0.000 N 
ATOM      2  H   UNL     1      43.121   5.073   9.752  0.00  0.00    +0.000 HD
ENDROOT
BRANCH   1   6
ATOM      3  C   UNL     1      46.449   2.318   7.778  0.00  0.00    +0.000 A 
ATOM      4  C   UNL     1      45.584   1.774   8.726  0.00  0.00    +0.000 A 
ATOM      5  C   UNL     1      44.772   2.614   9.498  0.00  0.00    +0.000 A 
ATOM      6  C   UNL     1      44.781   4.006   9.325  0.00  0.00    +0.000 A 
ATOM      7  C   UNL     1      45.673   4.535   8.382  0.00  0.00    +0.000 A 
ATOM      8  C   UNL     1      46.505   3.704   7.618  0.00  0.00    +0.000 A 
BRANCH   3  10
ATOM      9  N   UNL     1      48.443   2.046   6.405  0.00  0.00    +0.000 N 
ATOM     10  C   UNL     1      47.346   1.454   6.965  0.00  0.00    +0.000 C 
ATOM     11  O   UNL     1      47.128   0.258   6.823  0.00  0.00    +0.000 OA
ATOM     12  H   UNL     1      49.092   1.431   5.931  0.00  0.00    +0.000 HD
ATOM     13  H   UNL     1      48.780   2.953   6.692  0.00  0.00    +0.000 HD
ENDBRANCH   3  10
ENDBRANCH   1   6
BRANCH   1  14
ATOM     14  C   UNL     1      44.079   4.715  11.576  0.00  0.00    +0.000 C 
BRANCH  14  15
ATOM     15  C   UNL     1      45.318   5.311  12.182  0.00  0.00    +0.000 A 
ATOM     16  C   UNL     1      45.932   6.408  11.592  0.00  0.00    +0.000 A 
ATOM     17  N   UNL     1      46.998   7.045  12.115  0.00  0.00    +0.000 NA
ATOM     18  C   UNL     1      47.473   6.571  13.294  0.00  0.00    +0.000 A 
ATOM     19  C   UNL     1      46.945   5.487  14.001  0.00  0.00    +0.000 A 
ATOM     20  C   UNL     1      45.843   4.855  13.400  0.00  0.00    +0.000 A 
BRANCH  19  21
ATOM     21  C   UNL     1      47.500   5.048  15.298  0.00  0.00    +0.000 A 
ATOM     22  C   UNL     1      47.059   3.887  15.949  0.00  0.00    +0.000 A 
ATOM     23  C   UNL     1      47.607   3.502  17.173  0.00  0.00    +0.000 A 
ATOM     24  C   UNL     1      48.599   4.289  17.726  0.00  0.00    +0.000 A 
ATOM     25  N   UNL     1      49.060   5.415  17.149  0.00  0.00    +0.000 NA
ATOM     26  C   UNL     1      48.499   5.765  15.965  0.00  0.00    +0.000 A 
ENDBRANCH  19  21
ENDBRANCH  14  15
ENDBRANCH   1  14
TORSDOF 5
ENDMDL
MODEL 3
REMARK VINA RESULT:    -8.036      2.693      6.628
REMARK INTER + INTRA:         -11.264
REMARK INTER:                 -10.460
REMARK INTRA:                  -0.804
REMARK UNBOUND:                -0.879
REMARK  Name = 
REMARK  5 active torsions:
REMARK  status: ('A' for Active; 'I' for Inactive)
REMARK    1  A    between atoms: C_2  and  C_4
REMARK    2  A    between atoms: C_7  and  N_8
REMARK    3  A    between atoms: N_8  and  C_9
REMARK    4  A    between atoms: C_9  and  C_10
REMARK    5  A    between atoms: C_14  and  C_15
REMARK                            x       y       z     vdW  Elec       q    Type
REMARK                         _______ _______ _______ _____ _____    ______ ____
ROOT
ATOM      1  N   UNL     1      43.786   6.357  12.499  0.00  0.00    +0.000 N 
ATOM      2  H   UNL     1      43.139   7.006  12.945  0.00  0.00    +0.000 HD
ENDROOT
BRANCH   1   6
ATOM      3  C   UNL     1      47.859   6.896  13.505  0.00  0.00    +0.000 A 
ATOM      4  C   UNL     1      47.148   7.948  12.931  0.00  0.00    +0.000 A 
ATOM      5  C   UNL     1      45.795   7.788  12.610  0.00  0.00    +0.000 A 
ATOM      6  C   UNL     1      45.114   6.591  12.877  0.00  0.00    +0.000 A 
ATOM      7  C   UNL     1      45.852   5.537  13.435  0.00  0.00    +0.000 A 
ATOM      8  C   UNL     1      47.212   5.681  13.742  0.00  0.00    +0.000 A 
BRANCH   3  10
ATOM      9  N   UNL     1      50.111   7.575  12.870  0.00  0.00    +0.000 N 
ATOM     10  C   UNL     1      49.305   7.026  13.827  0.00  0.00    +0.000 C 
ATOM     11  O   UNL     1      49.753   6.682  14.914  0.00  0.00    +0.000 OA
ATOM     12  H   UNL     1      51.074   7.740  13.135  0.00  0.00    +0.000 HD
ATOM     13  H   UNL     1      49.749   8.080  12.076  0.00  0.00    +0.000 HD
ENDBRANCH   3  10
ENDBRANCH   1   6
BRANCH   1  14
ATOM     14  C   UNL     1      43.487   6.088  11.098  0.00  0.00    +0.000 C 
BRANCH  14  15
ATOM     15  C   UNL     1      43.814   4.670  10.723  0.00  0.00    +0.000 A 
ATOM     16  C   UNL     1      43.171   3.610  11.349  0.00  0.00    +0.000 A 
ATOM     17  N   UNL     1      43.352   2.317  11.015  0.00  0.00    +0.000 NA
ATOM     18  C   UNL     1      44.212   2.066   9.997  0.00  0.00    +0.000 A 
ATOM     19  C   UNL     1      44.914   3.035   9.274  0.00  0.00    +0.000 A 
ATOM     20  C   UNL     1      44.695   4.363   9.675  0.00  0.00    +0.000 A 
BRANCH  19  21
ATOM     21  C   UNL     1      45.813   2.683   8.155  0.00  0.00    +0.000 A 
ATOM     22  C   UNL     1      46.114   3.584   7.123  0.00  0.00    +0.000 A 
ATOM     23  C   UNL     1      46.967   3.218   6.081  0.00  0.00    +0.000 A 
ATOM     24  C   UNL     1      47.514   1.949   6.094  0.00  0.00    +0.000 A 
ATOM     25  N   UNL     1      47.258   1.041   7.056  0.00  0.00    +0.000 NA
ATOM     26  C   UNL     1      46.417   1.426   8.048  0.00  0.00    +0.000 A 
ENDBRANCH  19  21
ENDBRANCH  14  15
ENDBRANCH   1  14
TORSDOF 5
ENDMDL
MODEL 4
REMARK VINA RESULT:    -7.174      2.961      7.085
REMARK INTER + INTRA:         -10.150
REMARK INTER:                  -9.722
REMARK INTRA:                  -0.429
REMARK UNBOUND:                -0.879
REMARK  Name = 
REMARK  5 active torsions:
REMARK  status: ('A' for Active; 'I' for Inactive)
REMARK    1  A    between atoms: C_2  and  C_4
REMARK    2  A    between atoms: C_7  and  N_8
REMARK    3  A    between atoms: N_8  and  C_9
REMARK    4  A    between atoms: C_9  and  C_10
REMARK    5  A    between atoms: C_14  and  C_15
REMARK                            x       y       z     vdW  Elec       q    Type
REMARK                         _______ _______ _______ _____ _____    ______ ____
ROOT
ATOM      1  N   UNL     1      47.352   6.805  12.294  0.00  0.00    +0.000 N 
ATOM      2  H   UNL     1      47.934   6.352  11.591  0.00  0.00    +0.000 HD
ENDROOT
BRANCH   1   6
ATOM      3  C   UNL     1      47.536   4.592  15.895  0.00  0.00    +0.000 A 
ATOM      4  C   UNL     1      48.279   5.765  15.770  0.00  0.00    +0.000 A 
ATOM      5  C   UNL     1      48.212   6.516  14.590  0.00  0.00    +0.000 A 
ATOM      6  C   UNL     1      47.387   6.133  13.522  0.00  0.00    +0.000 A 
ATOM      7  C   UNL     1      46.665   4.939  13.658  0.00  0.00    +0.000 A 
ATOM      8  C   UNL     1      46.740   4.170  14.828  0.00  0.00    +0.000 A 
BRANCH   3  10
ATOM      9  N   UNL     1      48.716   3.907  17.913  0.00  0.00    +0.000 N 
ATOM     10  C   UNL     1      47.611   3.758  17.123  0.00  0.00    +0.000 C 
ATOM     11  O   UNL     1      46.710   2.988  17.431  0.00  0.00    +0.000 OA
ATOM     12  H   UNL     1      48.713   3.402  18.789  0.00  0.00    +0.000 HD
ATOM     13  H   UNL     1      49.350   4.687  17.822  0.00  0.00    +0.000 HD
ENDBRANCH   3  10
ENDBRANCH   1   6
BRANCH   1  14
ATOM     14  C   UNL     1      46.073   7.287  11.788  0.00  0.00    +0.000 C 
BRANCH  14  15
ATOM     15  C   UNL     1      45.299   6.195  11.106  0.00  0.00    +0.000 A 
ATOM     16  C   UNL     1      43.928   6.081  11.294  0.00  0.00    +0.000 A 
ATOM     17  N   UNL     1      43.154   5.179  10.658  0.00  0.00    +0.000 NA
ATOM     18  C   UNL     1      43.776   4.353   9.781  0.00  0.00    +0.000 A 
ATOM     19  C   UNL     1      45.142   4.368   9.487  0.00  0.00    +0.000 A 
ATOM     20  C   UNL     1      45.900   5.320  10.189  0.00  0.00    +0.000 A 
BRANCH  19  21
ATOM     21  C   UNL     1      45.742   3.453   8.493  0.00  0.00    +0.000 A 
ATOM     22  C   UNL     1      46.289   3.912   7.286  0.00  0.00    +0.000 A 
ATOM     23  C   UNL     1      46.848   3.020   6.370  0.00  0.00    +0.000 A 
ATOM     24  C   UNL     1      46.856   1.674   6.684  0.00  0.00    +0.000 A 
ATOM     25  N   UNL     1      46.342   1.176   7.825  0.00  0.00    +0.000 NA
ATOM     26  C   UNL     1      45.798   2.069   8.688  0.00  0.00    +0.000 A 
ENDBRANCH  19  21
ENDBRANCH  14  15
ENDBRANCH   1  14
TORSDOF 5
ENDMDL
MODEL 5
REMARK VINA RESULT:    -6.960      2.977      6.778
REMARK INTER + INTRA:          -9.873
REMARK INTER:                  -9.200
REMARK INTRA:                  -0.674
REMARK UNBOUND:                -0.879
REMARK  Name = 
REMARK  5 active torsions:
REMARK  status: ('A' for Active; 'I' for Inactive)
REMARK    1  A    between atoms: C_2  and  C_4
REMARK    2  A    between atoms: C_7  and  N_8
REMARK    3  A    between atoms: N_8  and  C_9
REMARK    4  A    between atoms: C_9  and  C_10
REMARK    5  A    between atoms: C_14  and  C_15
REMARK                            x       y       z     vdW  Elec       q    Type
REMARK                         _______ _______ _______ _____ _____    ______ ____
ROOT
ATOM      1  N   UNL     1      44.538   6.645  12.662  0.00  0.00    +0.000 N 
ATOM      2  H   UNL     1      43.942   6.634  11.836  0.00  0.00    +0.000 HD
ENDROOT
BRANCH   1   6
ATOM      3  C   UNL     1      47.880   9.156  12.013  0.00  0.00    +0.000 A 
ATOM      4  C   UNL     1      46.619   9.723  12.196  0.00  0.00    +0.000 A 
ATOM      5  C   UNL     1      45.509   8.903  12.429  0.00  0.00    +0.000 A 
ATOM      6  C   UNL     1      45.631   7.508  12.513  0.00  0.00    +0.000 A 
ATOM      7  C   UNL     1      46.902   6.956  12.305  0.00  0.00    +0.000 A 
ATOM      8  C   UNL     1      48.018   7.767  12.051  0.00  0.00    +0.000 A 
BRANCH   3  10
ATOM      9  N   UNL     1      50.266   9.357  11.566  0.00  0.00    +0.000 N 
ATOM     10  C   UNL     1      49.072  10.000  11.732  0.00  0.00    +0.000 C 
ATOM     11  O   UNL     1      48.987  11.217  11.628  0.00  0.00    +0.000 OA
ATOM     12  H   UNL     1      51.050   9.932  11.288  0.00  0.00    +0.000 HD
ATOM     13  H   UNL     1      50.333   8.362  11.409  0.00  0.00    +0.000 HD
ENDBRANCH   3  10
ENDBRANCH   1   6
BRANCH   1  14
ATOM     14  C   UNL     1      44.749   5.334  13.260  0.00  0.00    +0.000 C 
BRANCH  14  15
ATOM     15  C   UNL     1      44.481   4.227  12.280  0.00  0.00    +0.000 A 
ATOM     16  C   UNL     1      43.440   3.333  12.495  0.00  0.00    +0.000 A 
ATOM     17  N   UNL     1      43.089   2.364  11.625  0.00  0.00    +0.000 NA
ATOM     18  C   UNL     1      43.807   2.287  10.477  0.00  0.00    +0.000 A 
ATOM     19  C   UNL     1      44.867   3.128  10.129  0.00  0.00    +0.000 A 
ATOM     20  C   UNL     1      45.196   4.110  11.078  0.00  0.00    +0.000 A 
BRANCH  19  21
ATOM     21  C   UNL     1      45.582   3.000   8.842  0.00  0.00    +0.000 A 
ATOM     22  C   UNL     1      46.082   1.773   8.380  0.00  0.00    +0.000 A 
ATOM     23  C   UNL     1      46.752   1.689   7.159  0.00  0.00    +0.000 A 
ATOM     24  C   UNL     1      46.904   2.841   6.412  0.00  0.00    +0.000 A 
ATOM     25  N   UNL     1      46.449   4.046   6.805  0.00  0.00    +0.000 NA
ATOM     26  C   UNL     1      45.811   4.094   8.001  0.00  0.00    +0.000 A 
ENDBRANCH  19  21
ENDBRANCH  14  15
ENDBRANCH   1  14
TORSDOF 5
ENDMDL
MODEL 6
REMARK VINA RESULT:    -6.349      4.518      7.986
REMARK INTER + INTRA:          -9.084
REMARK INTER:                  -8.375
REMARK INTRA:                  -0.709
REMARK UNBOUND:                -0.879
REMARK  Name = 
REMARK  5 active torsions:
REMARK  status: ('A' for Active; 'I' for Inactive)
REMARK    1  A    between atoms: C_2  and  C_4
REMARK    2  A    between atoms: C_7  and  N_8
REMARK    3  A    between atoms: N_8  and  C_9
REMARK    4  A    between atoms: C_9  and  C_10
REMARK    5  A    between atoms: C_14  and  C_15
REMARK                            x       y       z     vdW  Elec       q    Type
REMARK                         _______ _______ _______ _____ _____    ______ ____
ROOT
ATOM      1  N   UNL     1      48.279   5.646  16.539  0.00  0.00    +0.000 N 
ATOM      2  H   UNL     1      47.662   5.905  17.307  0.00  0.00    +0.000 HD
ENDROOT
BRANCH   1   6
ATOM      3  C   UNL     1      51.026   2.559  17.442  0.00  0.00    +0.000 A 
ATOM      4  C   UNL     1      51.422   3.890  17.567  0.00  0.00    +0.000 A 
ATOM      5  C   UNL     1      50.516   4.920  17.288  0.00  0.00    +0.000 A 
ATOM      6  C   UNL     1      49.193   4.652  16.907  0.00  0.00    +0.000 A 
ATOM      7  C   UNL     1      48.820   3.308  16.766  0.00  0.00    +0.000 A 
ATOM      8  C   UNL     1      49.726   2.268  17.024  0.00  0.00    +0.000 A 
BRANCH   3  10
ATOM      9  N   UNL     1      51.443   0.256  18.117  0.00  0.00    +0.000 N 
ATOM     10  C   UNL     1      51.975   1.444  17.702  0.00  0.00    +0.000 C 
ATOM     11  O   UNL     1      53.180   1.573  17.527  0.00  0.00    +0.000 OA
ATOM     12  H   UNL     1      52.087  -0.519  18.203  0.00  0.00    +0.000 HD
ATOM     13  H   UNL     1      50.459   0.043  18.042  0.00  0.00    +0.000 HD
ENDBRANCH   3  10
ENDBRANCH   1   6
BRANCH   1  14
ATOM     14  C   UNL     1      48.745   6.776  15.745  0.00  0.00    +0.000 C 
BRANCH  14  15
ATOM     15  C   UNL     1      48.167   6.756  14.358  0.00  0.00    +0.000 A 
ATOM     16  C   UNL     1      48.754   7.496  13.340  0.00  0.00    +0.000 A 
ATOM     17  N   UNL     1      48.343   7.469  12.057  0.00  0.00    +0.000 NA
ATOM     18  C   UNL     1      47.296   6.655  11.770  0.00  0.00    +0.000 A 
ATOM     19  C   UNL     1      46.623   5.849  12.691  0.00  0.00    +0.000 A 
ATOM     20  C   UNL     1      47.088   5.928  14.015  0.00  0.00    +0.000 A 
BRANCH  19  21
ATOM     21  C   UNL     1      45.508   4.964  12.295  0.00  0.00    +0.000 A 
ATOM     22  C   UNL     1      45.079   4.848  10.964  0.00  0.00    +0.000 A 
ATOM     23  C   UNL     1      44.023   4.002  10.625  0.00  0.00    +0.000 A 
ATOM     24  C   UNL     1      43.415   3.274  11.630  0.00  0.00    +0.000 A 
ATOM     25  N   UNL     1      43.781   3.347  12.924  0.00  0.00    +0.000 NA
ATOM     26  C   UNL     1      44.804   4.186  13.221  0.00  0.00    +0.000 A 
ENDBRANCH  19  21
ENDBRANCH  14  15
ENDBRANCH   1  14
TORSDOF 5
ENDMDL
MODEL 7
REMARK VINA RESULT:    -6.244      3.145      7.279
REMARK INTER + INTRA:          -8.948
REMARK INTER:                  -8.320
REMARK INTRA:                  -0.628
REMARK UNBOUND:                -0.879
REMARK  Name = 
REMARK  5 active torsions:
REMARK  status: ('A' for Active; 'I' for Inactive)
REMARK    1  A    between atoms: C_2  and  C_4
REMARK    2  A    between atoms: C_7  and  N_8
REMARK    3  A    between atoms: N_8  and  C_9
REMARK    4  A    between atoms: C_9  and  C_10
REMARK    5  A    between atoms: C_14  and  C_15
REMARK                            x       y       z     vdW  Elec       q    Type
REMARK                         _______ _______ _______ _____ _____    ______ ____
ROOT
ATOM      1  N   UNL     1      46.688   6.269  13.590  0.00  0.00    +0.000 N 
ATOM      2  H   UNL     1      46.418   5.879  14.492  0.00  0.00    +0.000 HD
ENDROOT
BRANCH   1   6
ATOM      3  C   UNL     1      50.553   7.975  13.805  0.00  0.00    +0.000 A 
ATOM      4  C   UNL     1      49.859   7.994  12.596  0.00  0.00    +0.000 A 
ATOM      5  C   UNL     1      48.573   7.448  12.517  0.00  0.00    +0.000 A 
ATOM      6  C   UNL     1      47.938   6.899  13.641  0.00  0.00    +0.000 A 
ATOM      7  C   UNL     1      48.660   6.870  14.842  0.00  0.00    +0.000 A 
ATOM      8  C   UNL     1      49.957   7.396  14.927  0.00  0.00    +0.000 A 
BRANCH   3  10
ATOM      9  N   UNL     1      52.899   7.679  14.388  0.00  0.00    +0.000 N 
ATOM     10  C   UNL     1      51.933   8.519  13.912  0.00  0.00    +0.000 C 
ATOM     11  O   UNL     1      52.201   9.662  13.565  0.00  0.00    +0.000 OA
ATOM     12  H   UNL     1      53.848   8.030  14.372  0.00  0.00    +0.000 HD
ATOM     13  H   UNL     1      52.770   6.680  14.456  0.00  0.00    +0.000 HD
ENDBRANCH   3  10
ENDBRANCH   1   6
BRANCH   1  14
ATOM     14  C   UNL     1      45.599   6.916  12.871  0.00  0.00    +0.000 C 
BRANCH  14  15
ATOM     15  C   UNL     1      44.855   5.945  11.999  0.00  0.00    +0.000 A 
ATOM     16  C   UNL     1      43.471   5.855  12.066  0.00  0.00    +0.000 A 
ATOM     17  N   UNL     1      42.728   5.067  11.263  0.00  0.00    +0.000 NA
ATOM     18  C   UNL     1      43.399   4.337  10.338  0.00  0.00    +0.000 A 
ATOM     19  C   UNL     1      44.784   4.342  10.152  0.00  0.00    +0.000 A 
ATOM     20  C   UNL     1      45.506   5.172  11.025  0.00  0.00    +0.000 A 
BRANCH  19  21
ATOM     21  C   UNL     1      45.439   3.539   9.098  0.00  0.00    +0.000 A 
ATOM     22  C   UNL     1      46.057   4.126   7.984  0.00  0.00    +0.000 A 
ATOM     23  C   UNL     1      46.667   3.337   7.008  0.00  0.00    +0.000 A 
ATOM     24  C   UNL     1      46.653   1.965   7.168  0.00  0.00    +0.000 A 
ATOM     25  N   UNL     1      46.072   1.346   8.214  0.00  0.00    +0.000 NA
ATOM     26  C   UNL     1      45.480   2.142   9.139  0.00  0.00    +0.000 A 
ENDBRANCH  19  21
ENDBRANCH  14  15
ENDBRANCH   1  14
TORSDOF 5
ENDMDL
MODEL 8
REMARK VINA RESULT:    -6.082      2.945      5.502
REMARK INTER + INTRA:          -8.739
REMARK INTER:                  -8.025
REMARK INTRA:                  -0.714
REMARK UNBOUND:                -0.879
REMARK  Name = 
REMARK  5 active torsions:
REMARK  status: ('A' for Active; 'I' for Inactive)
REMARK    1  A    between atoms: C_2  and  C_4
REMARK    2  A    between atoms: C_7  and  N_8
REMARK    3  A    between atoms: N_8  and  C_9
REMARK    4  A    between atoms: C_9  and  C_10
REMARK    5  A    between atoms: C_14  and  C_15
REMARK                            x       y       z     vdW  Elec       q    Type
REMARK                         _______ _______ _______ _____ _____    ______ ____
ROOT
ATOM      1  N   UNL     1      46.324   7.893  12.392  0.00  0.00    +0.000 N 
ATOM      2  H   UNL     1      45.929   8.297  13.240  0.00  0.00    +0.000 HD
ENDROOT
BRANCH   1   6
ATOM      3  C   UNL     1      44.581   4.224  11.214  0.00  0.00    +0.000 A 
ATOM      4  C   UNL     1      44.455   4.652  12.535  0.00  0.00    +0.000 A 
ATOM      5  C   UNL     1      45.012   5.873  12.932  0.00  0.00    +0.000 A 
ATOM      6  C   UNL     1      45.681   6.706  12.023  0.00  0.00    +0.000 A 
ATOM      7  C   UNL     1      45.816   6.248  10.704  0.00  0.00    +0.000 A 
ATOM      8  C   UNL     1      45.278   5.017  10.301  0.00  0.00    +0.000 A 
BRANCH   3  10
ATOM      9  N   UNL     1      43.331   2.188  11.692  0.00  0.00    +0.000 N 
ATOM     10  C   UNL     1      44.027   2.917  10.770  0.00  0.00    +0.000 C 
ATOM     11  O   UNL     1      44.165   2.520   9.620  0.00  0.00    +0.000 OA
ATOM     12  H   UNL     1      42.884   1.345  11.354  0.00  0.00    +0.000 HD
ATOM     13  H   UNL     1      42.998   2.581  12.560  0.00  0.00    +0.000 HD
ENDBRANCH   3  10
ENDBRANCH   1   6
BRANCH   1  14
ATOM     14  C   UNL     1      47.778   7.961  12.324  0.00  0.00    +0.000 C 
BRANCH  14  15
ATOM     15  C   UNL     1      48.411   7.675  13.656  0.00  0.00    +0.000 A 
ATOM     16  C   UNL     1      49.225   8.620  14.266  0.00  0.00    +0.000 A 
ATOM     17  N   UNL     1      49.764   8.470  15.492  0.00  0.00    +0.000 NA
ATOM     18  C   UNL     1      49.469   7.322  16.151  0.00  0.00    +0.000 A 
ATOM     19  C   UNL     1      48.655   6.296  15.662  0.00  0.00    +0.000 A 
ATOM     20  C   UNL     1      48.131   6.502  14.375  0.00  0.00    +0.000 A 
BRANCH  19  21
ATOM     21  C   UNL     1      48.354   5.086  16.455  0.00  0.00    +0.000 A 
ATOM     22  C   UNL     1      49.255   4.560  17.393  0.00  0.00    +0.000 A 
ATOM     23  C   UNL     1      48.938   3.415  18.125  0.00  0.00    +0.000 A 
ATOM     24  C   UNL     1      47.712   2.815  17.908  0.00  0.00    +0.000 A 
ATOM     25  N   UNL     1      46.810   3.272  17.019  0.00  0.00    +0.000 NA
ATOM     26  C   UNL     1      47.154   4.381  16.318  0.00  0.00    +0.000 A 
ENDBRANCH  19  21
ENDBRANCH  14  15
ENDBRANCH   1  14
TORSDOF 5
ENDMDL
MODEL 9
REMARK VINA RESULT:    -5.954      4.977      6.796
REMARK INTER + INTRA:          -8.574
REMARK INTER:                  -8.069
REMARK INTRA:                  -0.504
REMARK UNBOUND:                -0.879
REMARK  Name = 
REMARK  5 active torsions:
REMARK  status: ('A' for Active; 'I' for Inactive)
REMARK    1  A    between atoms: C_2  and  C_4
REMARK    2  A    between atoms: C_7  and  N_8
REMARK    3  A    between atoms: N_8  and  C_9
REMARK    4  A    between atoms: C_9  and  C_10
REMARK    5  A    between atoms: C_14  and  C_15
REMARK                            x       y       z     vdW  Elec       q    Type
REMARK                         _______ _______ _______ _____ _____    ______ ____
ROOT
ATOM      1  N   UNL     1      47.098   5.460  14.925  0.00  0.00    +0.000 N 
ATOM      2  H   UNL     1      46.726   6.303  15.360  0.00  0.00    +0.000 HD
ENDROOT
BRANCH   1   6
ATOM      3  C   UNL     1      45.657   5.051  10.969  0.00  0.00    +0.000 A 
ATOM      4  C   UNL     1      46.353   6.203  11.332  0.00  0.00    +0.000 A 
ATOM      5  C   UNL     1      46.850   6.342  12.633  0.00  0.00    +0.000 A 
ATOM      6  C   UNL     1      46.692   5.330  13.592  0.00  0.00    +0.000 A 
ATOM      7  C   UNL     1      45.971   4.189  13.214  0.00  0.00    +0.000 A 
ATOM      8  C   UNL     1      45.452   4.048  11.919  0.00  0.00    +0.000 A 
BRANCH   3  10
ATOM      9  N   UNL     1      43.763   4.578   9.512  0.00  0.00    +0.000 N 
ATOM     10  C   UNL     1      45.090   4.888   9.604  0.00  0.00    +0.000 C 
ATOM     11  O   UNL     1      45.775   5.050   8.602  0.00  0.00    +0.000 OA
ATOM     12  H   UNL     1      43.370   4.559   8.580  0.00  0.00    +0.000 HD
ATOM     13  H   UNL     1      43.126   4.672  10.289  0.00  0.00    +0.000 HD
ENDBRANCH   3  10
ENDBRANCH   1   6
BRANCH   1  14
ATOM     14  C   UNL     1      47.077   4.286  15.788  0.00  0.00    +0.000 C 
BRANCH  14  15
ATOM     15  C   UNL     1      48.106   4.381  16.879  0.00  0.00    +0.000 A 
ATOM     16  C   UNL     1      47.856   5.133  18.019  0.00  0.00    +0.000 A 
ATOM     17  N   UNL     1      48.694   5.204  19.073  0.00  0.00    +0.000 NA
ATOM     18  C   UNL     1      49.838   4.479  18.991  0.00  0.00    +0.000 A 
ATOM     19  C   UNL     1      50.207   3.671  17.912  0.00  0.00    +0.000 A 
ATOM     20  C   UNL     1      49.301   3.647  16.838  0.00  0.00    +0.000 A 
BRANCH  19  21
ATOM     21  C   UNL     1      51.459   2.886  17.911  0.00  0.00    +0.000 A 
ATOM     22  C   UNL     1      51.516   1.566  17.441  0.00  0.00    +0.000 A 
ATOM     23  C   UNL     1      52.715   0.853  17.453  0.00  0.00    +0.000 A 
ATOM     24  C   UNL     1      53.848   1.482  17.934  0.00  0.00    +0.000 A 
ATOM     25  N   UNL     1      53.853   2.745  18.401  0.00  0.00    +0.000 NA
ATOM     26  C   UNL     1      52.669   3.405  18.383  0.00  0.00    +0.000 A 
ENDBRANCH  19  21
ENDBRANCH  14  15
ENDBRANCH   1  14
TORSDOF 5
ENDMDL
