MODEL 1
REMARK VINA RESULT:    -7.662      0.000      0.000
REMARK INTER + INTRA:         -10.745
REMARK INTER:                 -10.126
REMARK INTRA:                  -0.619
REMARK UNBOUND:                -0.619
REMARK  Name = 
REMARK  8 active torsions:
REMARK  status: ('A' for Active; 'I' for Inactive)
REMARK    1  A    between atoms: C_1  and  C_2
REMARK    2  A    between atoms: C_2  and  C_3
REMARK    3  A    between atoms: C_2  and  C_4
REMARK    4  A    between atoms: C_2  and  C_16
REMARK    5  A    between atoms: C_4  and  N_5
REMARK    6  A    between atoms: N_5  and  C_6
REMARK    7  A    between atoms: C_9  and  C_10
REMARK    8  A    between atoms: C_14  and  N_15
REMARK                            x       y       z     vdW  Elec       q    Type
REMARK                         _______ _______ _______ _____ _____    ______ ____
ROOT
ATOM      1  C   UNL     1      45.106   4.119   9.089  0.00  0.00    +0.000 A 
ATOM      2  N   UNL     1      45.899   4.396   8.024  0.00  0.00    +0.000 NA
ATOM      3  C   UNL     1      46.518   3.343   7.437  0.00  0.00    +0.000 A 
ATOM      4  C   UNL     1      46.355   2.047   7.884  0.00  0.00    +0.000 A 
ATOM      5  N   UNL     1      45.557   1.729   8.943  0.00  0.00    +0.000 NA
ATOM      6  C   UNL     1      44.946   2.779   9.539  0.00  0.00    +0.000 A 
ENDROOT
BRANCH   4   7
ATOM      7  C   UNL     1      47.104   0.941   7.224  0.00  0.00    +0.000 C 
ATOM      8  N   UNL     1      46.800  -0.325   7.649  0.00  0.00    +0.000 N 
ATOM      9  O   UNL     1      47.945   1.146   6.364  0.00  0.00    +0.000 OA
ATOM     10  H   UNL     1      46.107  -0.471   8.374  0.00  0.00    +0.000 HD
ATOM     11  H   UNL     1      47.286  -1.113   7.240  0.00  0.00    +0.000 HD
ENDBRANCH   4   7
BRANCH   6  12
ATOM     12  N   UNL     1      44.170   2.437  10.651  0.00  0.00    +0.000 N 
ATOM     13  H   UNL     1      44.774   2.454  11.465  0.00  0.00    +0.000 HD
ATOM     14  H   UNL     1      43.392   3.078  10.732  0.00  0.00    +0.000 HD
ENDBRANCH   6  12
BRANCH   1  15
ATOM     15  N   UNL     1      44.643   5.258   9.706  0.00  0.00    +0.000 N 
ATOM     16  H   UNL     1      43.870   4.940  10.290  0.00  0.00    +0.000 HD
BRANCH  15  17
ATOM     17  C   UNL     1      45.467   6.276  10.345  0.00  0.00    +0.000 C 
BRANCH  17  19
ATOM     18  C   UNL     1      44.494   8.236  11.632  0.00  0.00    +0.000 C 
ATOM     19  C   UNL     1      44.782   6.718  11.689  0.00  0.00    +0.000 C 
ATOM     20  C   UNL     1      43.406   6.006  11.767  0.00  0.00    +0.000 C 
BRANCH  19  21
ATOM     21  C   UNL     1      45.675   6.348  12.940  0.00  0.00    +0.000 C 
ATOM     22  C   UNL     1      47.097   6.953  12.903  0.00  0.00    +0.000 C 
ATOM     23  C   UNL     1      47.937   6.496  14.089  0.00  0.00    +0.000 C 
ATOM     24  O   UNL     1      47.988   5.073  14.154  0.00  0.00    +0.000 OA
ATOM     25  C   UNL     1      46.698   4.510  14.367  0.00  0.00    +0.000 C 
ATOM     26  C   UNL     1      45.774   4.829  13.198  0.00  0.00    +0.000 C 
ENDBRANCH  19  21
ENDBRANCH  17  19
ENDBRANCH  15  17
ENDBRANCH   1  15
TORSDOF 6
ENDMDL
MODEL 2
REMARK VINA RESULT:    -6.955      1.453      2.528
REMARK INTER + INTRA:          -9.810
REMARK INTER:                  -9.264
REMARK INTRA:                  -0.545
REMARK UNBOUND:                -0.619
REMARK  Name = 
REMARK  8 active torsions:
REMARK  status: ('A' for Active; 'I' for Inactive)
REMARK    1  A    between atoms: C_1  and  C_2
REMARK    2  A    between atoms: C_2  and  C_3
REMARK    3  A    between atoms: C_2  and  C_4
REMARK    4  A    between atoms: C_2  and  C_16
REMARK    5  A    between atoms: C_4  and  N_5
REMARK    6  A    between atoms: N_5  and  C_6
REMARK    7  A    between atoms: C_9  and  C_10
REMARK    8  A    between atoms: C_14  and  N_15
REMARK                            x       y       z     vdW  Elec       q    Type
REMARK                         _______ _______ _______ _____ _____    ______ ____
ROOT
ATOM      1  C   UNL     1      44.895   3.032   9.362  0.00  0.00    +0.000 A 
ATOM      2  N   UNL     1      45.140   1.747   9.005  0.00  0.00    +0.000 NA
ATOM      3  C   UNL     1      46.042   1.555   8.012  0.00  0.00    +0.000 A 
ATOM      4  C   UNL     1      46.691   2.604   7.390  0.00  0.00    +0.000 A 
ATOM      5  N   UNL     1      46.477   3.907   7.730  0.00  0.00    +0.000 NA
ATOM      6  C   UNL     1      45.569   4.103   8.714  0.00  0.00    +0.000 A 
ENDROOT
BRANCH   4   7
ATOM      7  C   UNL     1      47.634   2.325   6.270  0.00  0.00    +0.000 C 
ATOM      8  N   UNL     1      47.581   3.194   5.212  0.00  0.00    +0.000 N 
ATOM      9  O   UNL     1      48.402   1.377   6.285  0.00  0.00    +0.000 OA
ATOM     10  H   UNL     1      46.926   3.968   5.215  0.00  0.00    +0.000 HD
ATOM     11  H   UNL     1      48.193   3.046   4.421  0.00  0.00    +0.000 HD
ENDBRANCH   4   7
BRANCH   6  12
ATOM     12  N   UNL     1      45.331   5.448   9.015  0.00  0.00    +0.000 N 
ATOM     13  H   UNL     1      44.949   5.886   8.186  0.00  0.00    +0.000 HD
ATOM     14  H   UNL     1      44.708   5.512   9.810  0.00  0.00    +0.000 HD
ENDBRANCH   6  12
BRANCH   1  15
ATOM     15  N   UNL     1      43.863   3.135  10.268  0.00  0.00    +0.000 N 
ATOM     16  H   UNL     1      43.148   2.498   9.919  0.00  0.00    +0.000 HD
BRANCH  15  17
ATOM     17  C   UNL     1      43.998   3.113  11.718  0.00  0.00    +0.000 C 
BRANCH  17  19
ATOM     18  C   UNL     1      42.792   5.320  11.375  0.00  0.00    +0.000 C 
ATOM     19  C   UNL     1      43.807   4.572  12.270  0.00  0.00    +0.000 C 
ATOM     20  C   UNL     1      43.161   4.458  13.676  0.00  0.00    +0.000 C 
BRANCH  19  21
ATOM     21  C   UNL     1      45.184   5.345  12.348  0.00  0.00    +0.000 C 
ATOM     22  C   UNL     1      46.108   4.876  13.495  0.00  0.00    +0.000 C 
ATOM     23  C   UNL     1      47.381   5.711  13.573  0.00  0.00    +0.000 C 
ATOM     24  O   UNL     1      47.071   7.095  13.700  0.00  0.00    +0.000 OA
ATOM     25  C   UNL     1      46.369   7.583  12.561  0.00  0.00    +0.000 C 
ATOM     26  C   UNL     1      45.025   6.879  12.417  0.00  0.00    +0.000 C 
ENDBRANCH  19  21
ENDBRANCH  17  19
ENDBRANCH  15  17
ENDBRANCH   1  15
TORSDOF 6
ENDMDL
MODEL 3
REMARK VINA RESULT:    -6.746      1.398      2.015
REMARK INTER + INTRA:          -9.534
REMARK INTER:                  -9.175
REMARK INTRA:                  -0.359
REMARK UNBOUND:                -0.619
REMARK  Name = 
REMARK  8 active torsions:
REMARK  status: ('A' for Active; 'I' for Inactive)
REMARK    1  A    between atoms: C_1  and  C_2
REMARK    2  A    between atoms: C_2  and  C_3
REMARK    3  A    between atoms: C_2  and  C_4
REMARK    4  A    between atoms: C_2  and  C_16
REMARK    5  A    between atoms: C_4  and  N_5
REMARK    6  A    between atoms: N_5  and  C_6
REMARK    7  A    between atoms: C_9  and  C_10
REMARK    8  A    between atoms: C_14  and  N_15
REMARK                            x       y       z     vdW  Elec       q    Type
REMARK                         _______ _______ _______ _____ _____    ______ ____
ROOT
ATOM      1  C   UNL     1      45.025   4.002   9.325  0.00  0.00    +0.000 A 
ATOM      2  N   UNL     1      45.840   4.372   8.306  0.00  0.00    +0.000 NA
ATOM      3  C   UNL     1      46.468   3.374   7.638  0.00  0.00    +0.000 A 
ATOM      4  C   UNL     1      46.293   2.043   7.963  0.00  0.00    +0.000 A 
ATOM      5  N   UNL     1      45.473   1.633   8.973  0.00  0.00    +0.000 NA
ATOM      6  C   UNL     1      44.853   2.628   9.649  0.00  0.00    +0.000 A 
ENDROOT
BRANCH   4   7
ATOM      7  C   UNL     1      47.053   0.998   7.221  0.00  0.00    +0.000 C 
ATOM      8  N   UNL     1      46.777  -0.299   7.562  0.00  0.00    +0.000 N 
ATOM      9  O   UNL     1      47.879   1.276   6.367  0.00  0.00    +0.000 OA
ATOM     10  H   UNL     1      46.096  -0.507   8.283  0.00  0.00    +0.000 HD
ATOM     11  H   UNL     1      47.271  -1.048   7.096  0.00  0.00    +0.000 HD
ENDBRANCH   4   7
BRANCH   6  12
ATOM     12  N   UNL     1      44.053   2.189  10.709  0.00  0.00    +0.000 N 
ATOM     13  H   UNL     1      44.608   1.555  11.271  0.00  0.00    +0.000 HD
ATOM     14  H   UNL     1      43.722   2.987  11.237  0.00  0.00    +0.000 HD
ENDBRANCH   6  12
BRANCH   1  15
ATOM     15  N   UNL     1      44.551   5.082  10.034  0.00  0.00    +0.000 N 
ATOM     16  H   UNL     1      43.949   4.678  10.750  0.00  0.00    +0.000 HD
BRANCH  15  17
ATOM     17  C   UNL     1      45.351   6.201  10.516  0.00  0.00    +0.000 C 
BRANCH  17  19
ATOM     18  C   UNL     1      44.003   6.233  12.667  0.00  0.00    +0.000 C 
ATOM     19  C   UNL     1      45.431   6.132  12.084  0.00  0.00    +0.000 C 
ATOM     20  C   UNL     1      45.969   4.727  12.462  0.00  0.00    +0.000 C 
BRANCH  19  21
ATOM     21  C   UNL     1      46.370   7.265  12.664  0.00  0.00    +0.000 C 
ATOM     22  C   UNL     1      46.047   8.683  12.143  0.00  0.00    +0.000 C 
ATOM     23  C   UNL     1      47.034   9.718  12.669  0.00  0.00    +0.000 C 
ATOM     24  O   UNL     1      48.372   9.349  12.348  0.00  0.00    +0.000 OA
ATOM     25  C   UNL     1      48.743   8.123  12.972  0.00  0.00    +0.000 C 
ATOM     26  C   UNL     1      47.875   6.979  12.463  0.00  0.00    +0.000 C 
ENDBRANCH  19  21
ENDBRANCH  17  19
ENDBRANCH  15  17
ENDBRANCH   1  15
TORSDOF 6
ENDMDL
MODEL 4
REMARK VINA RESULT:    -6.364      3.545      7.092
REMARK INTER + INTRA:          -9.029
REMARK INTER:                  -8.513
REMARK INTRA:                  -0.516
REMARK UNBOUND:                -0.619
REMARK  Name = 
REMARK  8 active torsions:
REMARK  status: ('A' for Active; 'I' for Inactive)
REMARK    1  A    between atoms: C_1  and  C_2
REMARK    2  A    between atoms: C_2  and  C_3
REMARK    3  A    between atoms: C_2  and  C_4
REMARK    4  A    between atoms: C_2  and  C_16
REMARK    5  A    between atoms: C_4  and  N_5
REMARK    6  A    between atoms: N_5  and  C_6
REMARK    7  A    between atoms: C_9  and  C_10
REMARK    8  A    between atoms: C_14  and  N_15
REMARK                            x       y       z     vdW  Elec       q    Type
REMARK                         _______ _______ _______ _____ _____    ______ ____
ROOT
ATOM      1  C   UNL     1      46.863   5.046  14.004  0.00  0.00    +0.000 A 
ATOM      2  N   UNL     1      46.488   4.030  14.820  0.00  0.00    +0.000 NA
ATOM      3  C   UNL     1      47.122   3.946  16.015  0.00  0.00    +0.000 A 
ATOM      4  C   UNL     1      48.097   4.845  16.399  0.00  0.00    +0.000 A 
ATOM      5  N   UNL     1      48.492   5.885  15.610  0.00  0.00    +0.000 NA
ATOM      6  C   UNL     1      47.869   5.965  14.411  0.00  0.00    +0.000 A 
ENDROOT
BRANCH   4   7
ATOM      7  C   UNL     1      48.789   4.666  17.706  0.00  0.00    +0.000 C 
ATOM      8  N   UNL     1      48.012   4.211  18.739  0.00  0.00    +0.000 N 
ATOM      9  O   UNL     1      49.974   4.917  17.856  0.00  0.00    +0.000 OA
ATOM     10  H   UNL     1      47.027   4.021  18.595  0.00  0.00    +0.000 HD
ATOM     11  H   UNL     1      48.430   4.080  19.650  0.00  0.00    +0.000 HD
ENDBRANCH   4   7
BRANCH   6  12
ATOM     12  N   UNL     1      48.321   7.010  13.599  0.00  0.00    +0.000 N 
ATOM     13  H   UNL     1      47.703   7.800  13.742  0.00  0.00    +0.000 HD
ATOM     14  H   UNL     1      49.284   7.224  13.826  0.00  0.00    +0.000 HD
ENDBRANCH   6  12
BRANCH   1  15
ATOM     15  N   UNL     1      46.277   4.962  12.761  0.00  0.00    +0.000 N 
ATOM     16  H   UNL     1      46.935   4.423  12.200  0.00  0.00    +0.000 HD
BRANCH  15  17
ATOM     17  C   UNL     1      44.883   4.627  12.498  0.00  0.00    +0.000 C 
BRANCH  17  19
ATOM     18  C   UNL     1      42.987   5.899  11.390  0.00  0.00    +0.000 C 
ATOM     19  C   UNL     1      44.422   5.360  11.187  0.00  0.00    +0.000 C 
ATOM     20  C   UNL     1      45.339   6.596  10.995  0.00  0.00    +0.000 C 
BRANCH  19  21
ATOM     21  C   UNL     1      44.504   4.403   9.931  0.00  0.00    +0.000 C 
ATOM     22  C   UNL     1      44.560   2.899  10.284  0.00  0.00    +0.000 C 
ATOM     23  C   UNL     1      44.723   2.032   9.042  0.00  0.00    +0.000 C 
ATOM     24  O   UNL     1      45.872   2.425   8.298  0.00  0.00    +0.000 OA
ATOM     25  C   UNL     1      45.753   3.759   7.813  0.00  0.00    +0.000 C 
ATOM     26  C   UNL     1      45.665   4.744   8.972  0.00  0.00    +0.000 C 
ENDBRANCH  19  21
ENDBRANCH  17  19
ENDBRANCH  15  17
ENDBRANCH   1  15
TORSDOF 6
ENDMDL
MODEL 5
REMARK VINA RESULT:    -6.284      3.992      5.987
REMARK INTER + INTRA:          -8.924
REMARK INTER:                  -8.497
REMARK INTRA:                  -0.427
REMARK UNBOUND:                -0.619
REMARK  Name = 
REMARK  8 active torsions:
REMARK  status: ('A' for Active; 'I' for Inactive)
REMARK    1  A    between atoms: C_1  and  C_2
REMARK    2  A    between atoms: C_2  and  C_3
REMARK    3  A    between atoms: C_2  and  C_4
REMARK    4  A    between atoms: C_2  and  C_16
REMARK    5  A    between atoms: C_4  and  N_5
REMARK    6  A    between atoms: N_5  and  C_6
REMARK    7  A    between atoms: C_9  and  C_10
REMARK    8  A    between atoms: C_14  and  N_15
REMARK                            x       y       z     vdW  Elec       q    Type
REMARK                         _______ _______ _______ _____ _____    ______ ____
ROOT
ATOM      1  C   UNL     1      46.489   4.911  13.865  0.00  0.00    +0.000 A 
ATOM      2  N   UNL     1      46.339   3.591  13.598  0.00  0.00    +0.000 NA
ATOM      3  C   UNL     1      45.578   3.271  12.523  0.00  0.00    +0.000 A 
ATOM      4  C   UNL     1      44.983   4.230  11.727  0.00  0.00    +0.000 A 
ATOM      5  N   UNL     1      45.120   5.567  11.959  0.00  0.00    +0.000 NA
ATOM      6  C   UNL     1      45.871   5.889  13.038  0.00  0.00    +0.000 A 
ENDROOT
BRANCH   4   7
ATOM      7  C   UNL     1      44.117   3.810  10.590  0.00  0.00    +0.000 C 
ATOM      8  N   UNL     1      44.110   4.642   9.503  0.00  0.00    +0.000 N 
ATOM      9  O   UNL     1      43.446   2.791  10.625  0.00  0.00    +0.000 OA
ATOM     10  H   UNL     1      44.666   5.490   9.501  0.00  0.00    +0.000 HD
ATOM     11  H   UNL     1      43.532   4.409   8.706  0.00  0.00    +0.000 HD
ENDBRANCH   4   7
BRANCH   6  12
ATOM     12  N   UNL     1      45.961   7.263  13.285  0.00  0.00    +0.000 N 
ATOM     13  H   UNL     1      45.680   7.423  14.245  0.00  0.00    +0.000 HD
ATOM     14  H   UNL     1      46.904   7.580  13.099  0.00  0.00    +0.000 HD
ENDBRANCH   6  12
BRANCH   1  15
ATOM     15  N   UNL     1      47.149   5.133  15.053  0.00  0.00    +0.000 N 
ATOM     16  H   UNL     1      46.667   5.926  15.473  0.00  0.00    +0.000 HD
BRANCH  15  17
ATOM     17  C   UNL     1      47.530   4.111  16.019  0.00  0.00    +0.000 C 
BRANCH  17  19
ATOM     18  C   UNL     1      48.917   6.133  16.675  0.00  0.00    +0.000 C 
ATOM     19  C   UNL     1      48.349   4.786  17.179  0.00  0.00    +0.000 C 
ATOM     20  C   UNL     1      47.353   5.121  18.319  0.00  0.00    +0.000 C 
BRANCH  19  21
ATOM     21  C   UNL     1      49.499   3.835  17.702  0.00  0.00    +0.000 C 
ATOM     22  C   UNL     1      50.892   4.502  17.763  0.00  0.00    +0.000 C 
ATOM     23  C   UNL     1      51.972   3.517  18.193  0.00  0.00    +0.000 C 
ATOM     24  O   UNL     1      51.988   2.379  17.336  0.00  0.00    +0.000 OA
ATOM     25  C   UNL     1      50.766   1.652  17.406  0.00  0.00    +0.000 C 
ATOM     26  C   UNL     1      49.604   2.508  16.918  0.00  0.00    +0.000 C 
ENDBRANCH  19  21
ENDBRANCH  17  19
ENDBRANCH  15  17
ENDBRANCH   1  15
TORSDOF 6
ENDMDL
MODEL 6
REMARK VINA RESULT:    -6.193      3.308      6.386
REMARK INTER + INTRA:          -8.804
REMARK INTER:                  -8.170
REMARK INTRA:                  -0.634
REMARK UNBOUND:                -0.619
REMARK  Name = 
REMARK  8 active torsions:
REMARK  status: ('A' for Active; 'I' for Inactive)
REMARK    1  A    between atoms: C_1  and  C_2
REMARK    2  A    between atoms: C_2  and  C_3
REMARK    3  A    between atoms: C_2  and  C_4
REMARK    4  A    between atoms: C_2  and  C_16
REMARK    5  A    between atoms: C_4  and  N_5
REMARK    6  A    between atoms: N_5  and  C_6
REMARK    7  A    between atoms: C_9  and  C_10
REMARK    8  A    between atoms: C_14  and  N_15
REMARK                            x       y       z     vdW  Elec       q    Type
REMARK                         _______ _______ _______ _____ _____    ______ ____
ROOT
ATOM      1  C   UNL     1      46.675   5.976  12.804  0.00  0.00    +0.000 A 
ATOM      2  N   UNL     1      46.995   6.698  11.702  0.00  0.00    +0.000 NA
ATOM      3  C   UNL     1      48.176   7.362  11.733  0.00  0.00    +0.000 A 
ATOM      4  C   UNL     1      49.024   7.310  12.821  0.00  0.00    +0.000 A 
ATOM      5  N   UNL     1      48.741   6.586  13.941  0.00  0.00    +0.000 NA
ATOM      6  C   UNL     1      47.557   5.931  13.918  0.00  0.00    +0.000 A 
ENDROOT
BRANCH   4   7
ATOM      7  C   UNL     1      50.285   8.104  12.810  0.00  0.00    +0.000 C 
ATOM      8  N   UNL     1      51.220   7.757  13.748  0.00  0.00    +0.000 N 
ATOM      9  O   UNL     1      50.474   9.016  12.021  0.00  0.00    +0.000 OA
ATOM     10  H   UNL     1      51.037   7.004  14.402  0.00  0.00    +0.000 HD
ATOM     11  H   UNL     1      52.091   8.269  13.791  0.00  0.00    +0.000 HD
ENDBRANCH   4   7
BRANCH   6  12
ATOM     12  N   UNL     1      47.265   5.232  15.094  0.00  0.00    +0.000 N 
ATOM     13  H   UNL     1      47.942   4.484  15.184  0.00  0.00    +0.000 HD
ATOM     14  H   UNL     1      47.284   5.869  15.881  0.00  0.00    +0.000 HD
ENDBRANCH   6  12
BRANCH   1  15
ATOM     15  N   UNL     1      45.399   5.462  12.741  0.00  0.00    +0.000 N 
ATOM     16  H   UNL     1      44.919   6.046  12.057  0.00  0.00    +0.000 HD
BRANCH  15  17
ATOM     17  C   UNL     1      45.054   4.050  12.639  0.00  0.00    +0.000 C 
BRANCH  17  19
ATOM     18  C   UNL     1      43.257   2.660  11.506  0.00  0.00    +0.000 C 
ATOM     19  C   UNL     1      44.266   3.813  11.299  0.00  0.00    +0.000 C 
ATOM     20  C   UNL     1      43.432   5.090  11.016  0.00  0.00    +0.000 C 
BRANCH  19  21
ATOM     21  C   UNL     1      45.249   3.510  10.098  0.00  0.00    +0.000 C 
ATOM     22  C   UNL     1      45.319   4.633   9.039  0.00  0.00    +0.000 C 
ATOM     23  C   UNL     1      46.214   4.250   7.867  0.00  0.00    +0.000 C 
ATOM     24  O   UNL     1      45.786   3.023   7.283  0.00  0.00    +0.000 OA
ATOM     25  C   UNL     1      45.886   1.940   8.203  0.00  0.00    +0.000 C 
ATOM     26  C   UNL     1      44.965   2.164   9.396  0.00  0.00    +0.000 C 
ENDBRANCH  19  21
ENDBRANCH  17  19
ENDBRANCH  15  17
ENDBRANCH   1  15
TORSDOF 6
ENDMDL
MODEL 7
REMARK VINA RESULT:    -5.951      3.324      5.059
REMARK INTER + INTRA:          -8.484
REMARK INTER:                  -7.808
REMARK INTRA:                  -0.676
REMARK UNBOUND:                -0.619
REMARK  Name = 
REMARK  8 active torsions:
REMARK  status: ('A' for Active; 'I' for Inactive)
REMARK    1  A    between atoms: C_1  and  C_2
REMARK    2  A    between atoms: C_2  and  C_3
REMARK    3  A    between atoms: C_2  and  C_4
REMARK    4  A    between atoms: C_2  and  C_16
REMARK    5  A    between atoms: C_4  and  N_5
REMARK    6  A    between atoms: N_5  and  C_6
REMARK    7  A    between atoms: C_9  and  C_10
REMARK    8  A    between atoms: C_14  and  N_15
REMARK                            x       y       z     vdW  Elec       q    Type
REMARK                         _______ _______ _______ _____ _____    ______ ____
ROOT
ATOM      1  C   UNL     1      46.719   5.532  12.760  0.00  0.00    +0.000 A 
ATOM      2  N   UNL     1      46.178   5.844  11.557  0.00  0.00    +0.000 NA
ATOM      3  C   UNL     1      45.276   4.968  11.051  0.00  0.00    +0.000 A 
ATOM      4  C   UNL     1      44.912   3.815  11.718  0.00  0.00    +0.000 A 
ATOM      5  N   UNL     1      45.427   3.474  12.933  0.00  0.00    +0.000 NA
ATOM      6  C   UNL     1      46.336   4.341  13.436  0.00  0.00    +0.000 A 
ENDROOT
BRANCH   4   7
ATOM      7  C   UNL     1      43.952   2.869  11.082  0.00  0.00    +0.000 C 
ATOM      8  N   UNL     1      44.384   2.257   9.936  0.00  0.00    +0.000 N 
ATOM      9  O   UNL     1      42.843   2.657  11.546  0.00  0.00    +0.000 OA
ATOM     10  H   UNL     1      45.304   2.458   9.562  0.00  0.00    +0.000 HD
ATOM     11  H   UNL     1      43.768   1.612   9.458  0.00  0.00    +0.000 HD
ENDBRANCH   4   7
BRANCH   6  12
ATOM     12  N   UNL     1      46.886   3.950  14.661  0.00  0.00    +0.000 N 
ATOM     13  H   UNL     1      47.818   3.596  14.482  0.00  0.00    +0.000 HD
ATOM     14  H   UNL     1      46.885   4.736  15.300  0.00  0.00    +0.000 HD
ENDBRANCH   6  12
BRANCH   1  15
ATOM     15  N   UNL     1      47.727   6.397  13.120  0.00  0.00    +0.000 N 
ATOM     16  H   UNL     1      48.330   6.448  12.300  0.00  0.00    +0.000 HD
BRANCH  15  17
ATOM     17  C   UNL     1      47.550   7.681  13.786  0.00  0.00    +0.000 C 
BRANCH  17  19
ATOM     18  C   UNL     1      48.759   9.907  13.622  0.00  0.00    +0.000 C 
ATOM     19  C   UNL     1      48.003   8.828  12.812  0.00  0.00    +0.000 C 
ATOM     20  C   UNL     1      49.027   8.220  11.818  0.00  0.00    +0.000 C 
BRANCH  19  21
ATOM     21  C   UNL     1      46.772   9.448  12.037  0.00  0.00    +0.000 C 
ATOM     22  C   UNL     1      46.908  10.957  11.735  0.00  0.00    +0.000 C 
ATOM     23  C   UNL     1      45.659  11.515  11.064  0.00  0.00    +0.000 C 
ATOM     24  O   UNL     1      44.502  11.254  11.853  0.00  0.00    +0.000 OA
ATOM     25  C   UNL     1      44.264   9.857  11.991  0.00  0.00    +0.000 C 
ATOM     26  C   UNL     1      45.416   9.187  12.729  0.00  0.00    +0.000 C 
ENDBRANCH  19  21
ENDBRANCH  17  19
ENDBRANCH  15  17
ENDBRANCH   1  15
TORSDOF 6
ENDMDL
MODEL 8
REMARK VINA RESULT:    -5.891      3.105      4.541
REMARK INTER + INTRA:          -8.405
REMARK INTER:                  -7.769
REMARK INTRA:                  -0.636
REMARK UNBOUND:                -0.619
REMARK  Name = 
REMARK  8 active torsions:
REMARK  status: ('A' for Active; 'I' for Inactive)
REMARK    1  A    between atoms: C_1  and  C_2
REMARK    2  A    between atoms: C_2  and  C_3
REMARK    3  A    between atoms: C_2  and  C_4
REMARK    4  A    between atoms: C_2  and  C_16
REMARK    5  A    between atoms: C_4  and  N_5
REMARK    6  A    between atoms: N_5  and  C_6
REMARK    7  A    between atoms: C_9  and  C_10
REMARK    8  A    between atoms: C_14  and  N_15
REMARK                            x       y       z     vdW  Elec       q    Type
REMARK                         _______ _______ _______ _____ _____    ______ ____
ROOT
ATOM      1  C   UNL     1      44.981   6.612  12.422  0.00  0.00    +0.000 A 
ATOM      2  N   UNL     1      45.682   5.534  12.853  0.00  0.00    +0.000 NA
ATOM      3  C   UNL     1      45.281   4.324  12.392  0.00  0.00    +0.000 A 
ATOM      4  C   UNL     1      44.219   4.181  11.521  0.00  0.00    +0.000 A 
ATOM      5  N   UNL     1      43.499   5.242  11.058  0.00  0.00    +0.000 NA
ATOM      6  C   UNL     1      43.889   6.450  11.526  0.00  0.00    +0.000 A 
ENDROOT
BRANCH   4   7
ATOM      7  C   UNL     1      43.799   2.818  11.091  0.00  0.00    +0.000 C 
ATOM      8  N   UNL     1      44.453   2.304  10.004  0.00  0.00    +0.000 N 
ATOM      9  O   UNL     1      42.918   2.196  11.665  0.00  0.00    +0.000 OA
ATOM     10  H   UNL     1      45.173   2.843   9.535  0.00  0.00    +0.000 HD
ATOM     11  H   UNL     1      44.201   1.385   9.664  0.00  0.00    +0.000 HD
ENDBRANCH   4   7
BRANCH   6  12
ATOM     12  N   UNL     1      43.109   7.520  11.074  0.00  0.00    +0.000 N 
ATOM     13  H   UNL     1      42.145   7.207  11.047  0.00  0.00    +0.000 HD
ATOM     14  H   UNL     1      43.241   8.317  11.684  0.00  0.00    +0.000 HD
ENDBRANCH   6  12
BRANCH   1  15
ATOM     15  N   UNL     1      45.363   7.772  13.056  0.00  0.00    +0.000 N 
ATOM     16  H   UNL     1      45.778   7.463  13.934  0.00  0.00    +0.000 HD
BRANCH  15  17
ATOM     17  C   UNL     1      46.076   8.884  12.441  0.00  0.00    +0.000 C 
BRANCH  17  19
ATOM     18  C   UNL     1      48.310   7.880  11.774  0.00  0.00    +0.000 C 
ATOM     19  C   UNL     1      47.600   8.780  12.811  0.00  0.00    +0.000 C 
ATOM     20  C   UNL     1      48.213  10.197  12.665  0.00  0.00    +0.000 C 
BRANCH  19  21
ATOM     21  C   UNL     1      47.801   8.233  14.281  0.00  0.00    +0.000 C 
ATOM     22  C   UNL     1      48.337   9.284  15.279  0.00  0.00    +0.000 C 
ATOM     23  C   UNL     1      48.590   8.680  16.655  0.00  0.00    +0.000 C 
ATOM     24  O   UNL     1      49.472   7.565  16.563  0.00  0.00    +0.000 OA
ATOM     25  C   UNL     1      48.910   6.512  15.787  0.00  0.00    +0.000 C 
ATOM     26  C   UNL     1      48.683   6.967  14.351  0.00  0.00    +0.000 C 
ENDBRANCH  19  21
ENDBRANCH  17  19
ENDBRANCH  15  17
ENDBRANCH   1  15
TORSDOF 6
ENDMDL
MODEL 9
REMARK VINA RESULT:    -5.746      3.623      5.903
REMARK INTER + INTRA:          -8.212
REMARK INTER:                  -7.757
REMARK INTRA:                  -0.455
REMARK UNBOUND:                -0.619
REMARK  Name = 
REMARK  8 active torsions:
REMARK  status: ('A' for Active; 'I' for Inactive)
REMARK    1  A    between atoms: C_1  and  C_2
REMARK    2  A    between atoms: C_2  and  C_3
REMARK    3  A    between atoms: C_2  and  C_4
REMARK    4  A    between atoms: C_2  and  C_16
REMARK    5  A    between atoms: C_4  and  N_5
REMARK    6  A    between atoms: N_5  and  C_6
REMARK    7  A    between atoms: C_9  and  C_10
REMARK    8  A    between atoms: C_14  and  N_15
REMARK                            x       y       z     vdW  Elec       q    Type
REMARK                         _______ _______ _______ _____ _____    ______ ____
ROOT
ATOM      1  C   UNL     1      46.582   4.846  13.949  0.00  0.00    +0.000 A 
ATOM      2  N   UNL     1      46.338   3.543  13.664  0.00  0.00    +0.000 NA
ATOM      3  C   UNL     1      45.632   3.290  12.535  0.00  0.00    +0.000 A 
ATOM      4  C   UNL     1      45.183   4.298  11.704  0.00  0.00    +0.000 A 
ATOM      5  N   UNL     1      45.419   5.617  11.953  0.00  0.00    +0.000 NA
ATOM      6  C   UNL     1      46.114   5.873  13.085  0.00  0.00    +0.000 A 
ENDROOT
BRANCH   4   7
ATOM      7  C   UNL     1      44.369   3.954  10.504  0.00  0.00    +0.000 C 
ATOM      8  N   UNL     1      43.659   4.983   9.947  0.00  0.00    +0.000 N 
ATOM      9  O   UNL     1      44.327   2.822  10.048  0.00  0.00    +0.000 OA
ATOM     10  H   UNL     1      43.699   5.913  10.350  0.00  0.00    +0.000 HD
ATOM     11  H   UNL     1      43.082   4.803   9.136  0.00  0.00    +0.000 HD
ENDBRANCH   4   7
BRANCH   6  12
ATOM     12  N   UNL     1      46.306   7.234  13.346  0.00  0.00    +0.000 N 
ATOM     13  H   UNL     1      45.509   7.561  13.880  0.00  0.00    +0.000 HD
ATOM     14  H   UNL     1      47.181   7.366  13.835  0.00  0.00    +0.000 HD
ENDBRANCH   6  12
BRANCH   1  15
ATOM     15  N   UNL     1      47.171   5.009  15.183  0.00  0.00    +0.000 N 
ATOM     16  H   UNL     1      46.842   5.917  15.508  0.00  0.00    +0.000 HD
BRANCH  15  17
ATOM     17  C   UNL     1      47.233   4.006  16.237  0.00  0.00    +0.000 C 
BRANCH  17  19
ATOM     18  C   UNL     1      47.116   5.273  18.433  0.00  0.00    +0.000 C 
ATOM     19  C   UNL     1      48.072   4.577  17.437  0.00  0.00    +0.000 C 
ATOM     20  C   UNL     1      48.695   3.371  18.187  0.00  0.00    +0.000 C 
BRANCH  19  21
ATOM     21  C   UNL     1      49.199   5.566  16.934  0.00  0.00    +0.000 C 
ATOM     22  C   UNL     1      50.635   5.123  17.292  0.00  0.00    +0.000 C 
ATOM     23  C   UNL     1      51.670   6.153  16.857  0.00  0.00    +0.000 C 
ATOM     24  O   UNL     1      51.376   7.432  17.413  0.00  0.00    +0.000 OA
ATOM     25  C   UNL     1      50.127   7.932  16.947  0.00  0.00    +0.000 C 
ATOM     26  C   UNL     1      48.986   7.025  17.392  0.00  0.00    +0.000 C 
ENDBRANCH  19  21
ENDBRANCH  17  19
ENDBRANCH  15  17
ENDBRANCH   1  15
TORSDOF 6
ENDMDL
