MODEL 1
REMARK VINA RESULT:    -6.778      0.000      0.000
REMARK INTER + INTRA:          -8.944
REMARK INTER:                  -8.363
REMARK INTRA:                  -0.581
REMARK UNBOUND:                -0.581
REMARK  Name = 
REMARK  7 active torsions:
REMARK  status: ('A' for Active; 'I' for Inactive)
REMARK    1  A    between atoms: C_1  and  C_2
REMARK    2  A    between atoms: C_2  and  C_3
REMARK    3  A    between atoms: C_2  and  C_4
REMARK    4  A    between atoms: C_2  and  C_5
REMARK    5  A    between atoms: C_9  and  C_10
REMARK    6  A    between atoms: N_16  and  C_17
REMARK    7  A    between atoms: C_17  and  C_18
REMARK                            x       y       z     vdW  Elec       q    Type
REMARK                         _______ _______ _______ _____ _____    ______ ____
ROOT
ATOM      1  C   UNL     1      44.527   4.009  11.091  0.00  0.00    +0.000 A 
ATOM      2  N   UNL     1      44.803   2.819  10.565  0.00  0.00    +0.000 NA
ATOM      3  C   UNL     1      45.485   3.043   9.401  0.00  0.00    +0.000 A 
ATOM      4  C   UNL     1      46.003   2.159   8.444  0.00  0.00    +0.000 A 
ATOM      5  C   UNL     1      46.664   2.724   7.345  0.00  0.00    +0.000 A 
ATOM      6  C   UNL     1      46.772   4.116   7.273  0.00  0.00    +0.000 A 
ATOM      7  N   UNL     1      46.279   5.007   8.175  0.00  0.00    +0.000 NA
ATOM      8  C   UNL     1      45.654   4.400   9.202  0.00  0.00    +0.000 A 
ATOM      9  N   UNL     1      45.010   5.008  10.255  0.00  0.00    +0.000 N 
ENDROOT
BRANCH   5  10
ATOM     10  C   UNL     1      47.256   1.935   6.238  0.00  0.00    +0.000 C 
ATOM     11  N   UNL     1      47.978   2.584   5.276  0.00  0.00    +0.000 N 
ATOM     12  O   UNL     1      47.110   0.719   6.178  0.00  0.00    +0.000 OA
ATOM     13  H   UNL     1      48.170   3.572   5.257  0.00  0.00    +0.000 HD
ATOM     14  H   UNL     1      48.382   2.012   4.544  0.00  0.00    +0.000 HD
ENDBRANCH   5  10
BRANCH   1  16
ATOM     15  C   UNL     1      44.898   4.570  13.500  0.00  0.00    +0.000 C 
ATOM     16  C   UNL     1      43.847   4.159  12.454  0.00  0.00    +0.000 C 
ATOM     17  C   UNL     1      43.260   2.788  12.874  0.00  0.00    +0.000 C 
ATOM     18  C   UNL     1      42.676   5.150  12.487  0.00  0.00    +0.000 C 
ENDBRANCH   1  16
BRANCH   9  19
ATOM     19  C   UNL     1      44.941   6.456  10.373  0.00  0.00    +0.000 C 
BRANCH  19  20
ATOM     20  C   UNL     1      45.801   7.018  11.478  0.00  0.00    +0.000 A 
ATOM     21  C   UNL     1      47.144   6.653  11.589  0.00  0.00    +0.000 A 
ATOM     22  C   UNL     1      47.917   7.242  12.574  0.00  0.00    +0.000 A 
ATOM     23  N   UNL     1      47.428   8.159  13.431  0.00  0.00    +0.000 NA
ATOM     24  N   UNL     1      46.129   8.533  13.329  0.00  0.00    +0.000 NA
ATOM     25  C   UNL     1      45.349   7.983  12.371  0.00  0.00    +0.000 A 
ENDBRANCH  19  20
ENDBRANCH   9  19
TORSDOF 4
ENDMDL
MODEL 2
REMARK VINA RESULT:    -6.334      4.451      6.854
REMARK INTER + INTRA:          -8.396
REMARK INTER:                  -7.766
REMARK INTRA:                  -0.630
REMARK UNBOUND:                -0.581
REMARK  Name = 
REMARK  7 active torsions:
REMARK  status: ('A' for Active; 'I' for Inactive)
REMARK    1  A    between atoms: C_1  and  C_2
REMARK    2  A    between atoms: C_2  and  C_3
REMARK    3  A    between atoms: C_2  and  C_4
REMARK    4  A    between atoms: C_2  and  C_5
REMARK    5  A    between atoms: C_9  and  C_10
REMARK    6  A    between atoms: N_16  and  C_17
REMARK    7  A    between atoms: C_17  and  C_18
REMARK                            x       y       z     vdW  Elec       q    Type
REMARK                         _______ _______ _______ _____ _____    ______ ____
ROOT
ATOM      1  C   UNL     1      48.623   6.730  15.107  0.00  0.00    +0.000 A 
ATOM      2  N   UNL     1      48.366   7.109  13.858  0.00  0.00    +0.000 NA
ATOM      3  C   UNL     1      47.387   6.281  13.382  0.00  0.00    +0.000 A 
ATOM      4  C   UNL     1      46.752   6.218  12.134  0.00  0.00    +0.000 A 
ATOM      5  C   UNL     1      45.770   5.233  11.966  0.00  0.00    +0.000 A 
ATOM      6  C   UNL     1      45.482   4.387  13.042  0.00  0.00    +0.000 A 
ATOM      7  N   UNL     1      46.079   4.410  14.264  0.00  0.00    +0.000 NA
ATOM      8  C   UNL     1      47.014   5.376  14.356  0.00  0.00    +0.000 A 
ATOM      9  N   UNL     1      47.828   5.639  15.434  0.00  0.00    +0.000 N 
ENDROOT
BRANCH   5  10
ATOM     10  C   UNL     1      45.013   5.021  10.709  0.00  0.00    +0.000 C 
ATOM     11  N   UNL     1      45.575   5.410   9.526  0.00  0.00    +0.000 N 
ATOM     12  O   UNL     1      43.902   4.502  10.718  0.00  0.00    +0.000 OA
ATOM     13  H   UNL     1      46.489   5.820   9.420  0.00  0.00    +0.000 HD
ATOM     14  H   UNL     1      45.037   5.236   8.685  0.00  0.00    +0.000 HD
ENDBRANCH   5  10
BRANCH   1  16
ATOM     15  C   UNL     1      48.962   7.716  17.381  0.00  0.00    +0.000 C 
ATOM     16  C   UNL     1      49.607   7.489  16.002  0.00  0.00    +0.000 C 
ATOM     17  C   UNL     1      49.892   8.874  15.370  0.00  0.00    +0.000 C 
ATOM     18  C   UNL     1      50.973   6.814  16.179  0.00  0.00    +0.000 C 
ENDBRANCH   1  16
BRANCH   9  19
ATOM     19  C   UNL     1      47.752   4.855  16.656  0.00  0.00    +0.000 C 
BRANCH  19  20
ATOM     20  C   UNL     1      48.774   3.747  16.732  0.00  0.00    +0.000 A 
ATOM     21  C   UNL     1      49.886   3.862  17.569  0.00  0.00    +0.000 A 
ATOM     22  C   UNL     1      50.764   2.796  17.663  0.00  0.00    +0.000 A 
ATOM     23  N   UNL     1      50.588   1.648  16.982  0.00  0.00    +0.000 NA
ATOM     24  N   UNL     1      49.507   1.516  16.175  0.00  0.00    +0.000 NA
ATOM     25  C   UNL     1      48.624   2.535  16.068  0.00  0.00    +0.000 A 
ENDBRANCH  19  20
ENDBRANCH   9  19
TORSDOF 4
ENDMDL
MODEL 3
REMARK VINA RESULT:    -6.125      3.004      4.933
REMARK INTER + INTRA:          -8.138
REMARK INTER:                  -7.831
REMARK INTRA:                  -0.307
REMARK UNBOUND:                -0.581
REMARK  Name = 
REMARK  7 active torsions:
REMARK  status: ('A' for Active; 'I' for Inactive)
REMARK    1  A    between atoms: C_1  and  C_2
REMARK    2  A    between atoms: C_2  and  C_3
REMARK    3  A    between atoms: C_2  and  C_4
REMARK    4  A    between atoms: C_2  and  C_5
REMARK    5  A    between atoms: C_9  and  C_10
REMARK    6  A    between atoms: N_16  and  C_17
REMARK    7  A    between atoms: C_17  and  C_18
REMARK                            x       y       z     vdW  Elec       q    Type
REMARK                         _______ _______ _______ _____ _____    ______ ____
ROOT
ATOM      1  C   UNL     1      47.768   6.554  13.994  0.00  0.00    +0.000 A 
ATOM      2  N   UNL     1      47.156   5.393  14.212  0.00  0.00    +0.000 NA
ATOM      3  C   UNL     1      46.453   5.091  13.078  0.00  0.00    +0.000 A 
ATOM      4  C   UNL     1      45.625   4.005  12.763  0.00  0.00    +0.000 A 
ATOM      5  C   UNL     1      45.044   3.994  11.487  0.00  0.00    +0.000 A 
ATOM      6  C   UNL     1      45.327   5.051  10.615  0.00  0.00    +0.000 A 
ATOM      7  N   UNL     1      46.118   6.125  10.885  0.00  0.00    +0.000 NA
ATOM      8  C   UNL     1      46.640   6.074  12.126  0.00  0.00    +0.000 A 
ATOM      9  N   UNL     1      47.442   7.018  12.726  0.00  0.00    +0.000 N 
ENDROOT
BRANCH   5  10
ATOM     10  C   UNL     1      44.134   2.931  10.998  0.00  0.00    +0.000 C 
ATOM     11  N   UNL     1      44.491   2.214   9.891  0.00  0.00    +0.000 N 
ATOM     12  O   UNL     1      43.079   2.686  11.572  0.00  0.00    +0.000 OA
ATOM     13  H   UNL     1      45.347   2.326   9.372  0.00  0.00    +0.000 HD
ATOM     14  H   UNL     1      43.854   1.483   9.594  0.00  0.00    +0.000 HD
ENDBRANCH   5  10
BRANCH   1  16
ATOM     15  C   UNL     1      48.774   6.282  16.268  0.00  0.00    +0.000 C 
ATOM     16  C   UNL     1      48.729   7.172  15.012  0.00  0.00    +0.000 C 
ATOM     17  C   UNL     1      48.191   8.564  15.428  0.00  0.00    +0.000 C 
ATOM     18  C   UNL     1      50.155   7.405  14.497  0.00  0.00    +0.000 C 
ENDBRANCH   1  16
BRANCH   9  19
ATOM     19  C   UNL     1      47.832   8.237  12.034  0.00  0.00    +0.000 C 
BRANCH  19  20
ATOM     20  C   UNL     1      46.773   9.311  12.052  0.00  0.00    +0.000 A 
ATOM     21  C   UNL     1      47.037  10.579  11.529  0.00  0.00    +0.000 A 
ATOM     22  C   UNL     1      46.018  11.515  11.500  0.00  0.00    +0.000 A 
ATOM     23  N   UNL     1      44.778  11.253  11.954  0.00  0.00    +0.000 NA
ATOM     24  N   UNL     1      44.501  10.023  12.453  0.00  0.00    +0.000 NA
ATOM     25  C   UNL     1      45.472   9.082  12.486  0.00  0.00    +0.000 A 
ENDBRANCH  19  20
ENDBRANCH   9  19
TORSDOF 4
ENDMDL
MODEL 4
REMARK VINA RESULT:    -5.923      4.517      7.586
REMARK INTER + INTRA:          -7.888
REMARK INTER:                  -7.270
REMARK INTRA:                  -0.618
REMARK UNBOUND:                -0.581
REMARK  Name = 
REMARK  7 active torsions:
REMARK  status: ('A' for Active; 'I' for Inactive)
REMARK    1  A    between atoms: C_1  and  C_2
REMARK    2  A    between atoms: C_2  and  C_3
REMARK    3  A    between atoms: C_2  and  C_4
REMARK    4  A    between atoms: C_2  and  C_5
REMARK    5  A    between atoms: C_9  and  C_10
REMARK    6  A    between atoms: N_16  and  C_17
REMARK    7  A    between atoms: C_17  and  C_18
REMARK                            x       y       z     vdW  Elec       q    Type
REMARK                         _______ _______ _______ _____ _____    ______ ____
ROOT
ATOM      1  C   UNL     1      47.490   6.616  13.636  0.00  0.00    +0.000 A 
ATOM      2  N   UNL     1      48.016   6.980  14.803  0.00  0.00    +0.000 NA
ATOM      3  C   UNL     1      48.054   5.864  15.592  0.00  0.00    +0.000 A 
ATOM      4  C   UNL     1      48.492   5.674  16.910  0.00  0.00    +0.000 A 
ATOM      5  C   UNL     1      48.396   4.378  17.435  0.00  0.00    +0.000 A 
ATOM      6  C   UNL     1      47.883   3.364  16.620  0.00  0.00    +0.000 A 
ATOM      7  N   UNL     1      47.442   3.507  15.341  0.00  0.00    +0.000 NA
ATOM      8  C   UNL     1      47.558   4.776  14.901  0.00  0.00    +0.000 A 
ATOM      9  N   UNL     1      47.165   5.266  13.676  0.00  0.00    +0.000 N 
ENDROOT
BRANCH   5  10
ATOM     10  C   UNL     1      48.800   4.009  18.812  0.00  0.00    +0.000 C 
ATOM     11  N   UNL     1      48.276   2.878  19.374  0.00  0.00    +0.000 N 
ATOM     12  O   UNL     1      49.594   4.695  19.445  0.00  0.00    +0.000 OA
ATOM     13  H   UNL     1      47.640   2.242  18.922  0.00  0.00    +0.000 HD
ATOM     14  H   UNL     1      48.587   2.647  20.310  0.00  0.00    +0.000 HD
ENDBRANCH   5  10
BRANCH   1  16
ATOM     15  C   UNL     1      48.273   8.807  12.718  0.00  0.00    +0.000 C 
ATOM     16  C   UNL     1      47.373   7.585  12.458  0.00  0.00    +0.000 C 
ATOM     17  C   UNL     1      45.908   8.080  12.361  0.00  0.00    +0.000 C 
ATOM     18  C   UNL     1      47.709   6.982  11.088  0.00  0.00    +0.000 C 
ENDBRANCH   1  16
BRANCH   9  19
ATOM     19  C   UNL     1      46.553   4.409  12.673  0.00  0.00    +0.000 C 
BRANCH  19  20
ATOM     20  C   UNL     1      45.117   4.760  12.370  0.00  0.00    +0.000 A 
ATOM     21  C   UNL     1      44.681   4.893  11.050  0.00  0.00    +0.000 A 
ATOM     22  C   UNL     1      43.341   5.147  10.812  0.00  0.00    +0.000 A 
ATOM     23  N   UNL     1      42.437   5.268  11.802  0.00  0.00    +0.000 NA
ATOM     24  N   UNL     1      42.842   5.129  13.089  0.00  0.00    +0.000 NA
ATOM     25  C   UNL     1      44.142   4.870  13.355  0.00  0.00    +0.000 A 
ENDBRANCH  19  20
ENDBRANCH   9  19
TORSDOF 4
ENDMDL
MODEL 5
REMARK VINA RESULT:    -5.878      4.122      6.455
REMARK INTER + INTRA:          -7.833
REMARK INTER:                  -7.462
REMARK INTRA:                  -0.372
REMARK UNBOUND:                -0.581
REMARK  Name = 
REMARK  7 active torsions:
REMARK  status: ('A' for Active; 'I' for Inactive)
REMARK    1  A    between atoms: C_1  and  C_2
REMARK    2  A    between atoms: C_2  and  C_3
REMARK    3  A    between atoms: C_2  and  C_4
REMARK    4  A    between atoms: C_2  and  C_5
REMARK    5  A    between atoms: C_9  and  C_10
REMARK    6  A    between atoms: N_16  and  C_17
REMARK    7  A    between atoms: C_17  and  C_18
REMARK                            x       y       z     vdW  Elec       q    Type
REMARK                         _______ _______ _______ _____ _____    ______ ____
ROOT
ATOM      1  C   UNL     1      45.889   4.877  12.823  0.00  0.00    +0.000 A 
ATOM      2  N   UNL     1      45.821   4.194  13.963  0.00  0.00    +0.000 NA
ATOM      3  C   UNL     1      46.815   4.669  14.774  0.00  0.00    +0.000 A 
ATOM      4  C   UNL     1      47.207   4.304  16.069  0.00  0.00    +0.000 A 
ATOM      5  C   UNL     1      48.286   5.002  16.630  0.00  0.00    +0.000 A 
ATOM      6  C   UNL     1      48.892   6.012  15.876  0.00  0.00    +0.000 A 
ATOM      7  N   UNL     1      48.546   6.391  14.616  0.00  0.00    +0.000 NA
ATOM      8  C   UNL     1      47.508   5.679  14.137  0.00  0.00    +0.000 A 
ATOM      9  N   UNL     1      46.943   5.780  12.886  0.00  0.00    +0.000 N 
ENDROOT
BRANCH   5  10
ATOM     10  C   UNL     1      48.836   4.734  17.980  0.00  0.00    +0.000 C 
ATOM     11  N   UNL     1      47.974   4.434  18.997  0.00  0.00    +0.000 N 
ATOM     12  O   UNL     1      50.042   4.773  18.192  0.00  0.00    +0.000 OA
ATOM     13  H   UNL     1      46.973   4.354  18.912  0.00  0.00    +0.000 HD
ATOM     14  H   UNL     1      48.385   4.240  19.903  0.00  0.00    +0.000 HD
ENDBRANCH   5  10
BRANCH   1  16
ATOM     15  C   UNL     1      43.568   5.422  12.066  0.00  0.00    +0.000 C 
ATOM     16  C   UNL     1      44.869   4.687  11.698  0.00  0.00    +0.000 C 
ATOM     17  C   UNL     1      44.547   3.177  11.565  0.00  0.00    +0.000 C 
ATOM     18  C   UNL     1      45.342   5.144  10.312  0.00  0.00    +0.000 C 
ENDBRANCH   1  16
BRANCH   9  19
ATOM     19  C   UNL     1      47.438   6.727  11.899  0.00  0.00    +0.000 C 
BRANCH  19  20
ATOM     20  C   UNL     1      46.883   8.121  12.063  0.00  0.00    +0.000 A 
ATOM     21  C   UNL     1      47.733   9.229  12.064  0.00  0.00    +0.000 A 
ATOM     22  C   UNL     1      47.180  10.494  12.147  0.00  0.00    +0.000 A 
ATOM     23  N   UNL     1      45.853  10.704  12.224  0.00  0.00    +0.000 NA
ATOM     24  N   UNL     1      45.013   9.640  12.212  0.00  0.00    +0.000 NA
ATOM     25  C   UNL     1      45.521   8.389  12.122  0.00  0.00    +0.000 A 
ENDBRANCH  19  20
ENDBRANCH   9  19
TORSDOF 4
ENDMDL
MODEL 6
REMARK VINA RESULT:    -5.827      3.728      6.943
REMARK INTER + INTRA:          -7.770
REMARK INTER:                  -7.274
REMARK INTRA:                  -0.496
REMARK UNBOUND:                -0.581
REMARK  Name = 
REMARK  7 active torsions:
REMARK  status: ('A' for Active; 'I' for Inactive)
REMARK    1  A    between atoms: C_1  and  C_2
REMARK    2  A    between atoms: C_2  and  C_3
REMARK    3  A    between atoms: C_2  and  C_4
REMARK    4  A    between atoms: C_2  and  C_5
REMARK    5  A    between atoms: C_9  and  C_10
REMARK    6  A    between atoms: N_16  and  C_17
REMARK    7  A    between atoms: C_17  and  C_18
REMARK                            x       y       z     vdW  Elec       q    Type
REMARK                         _______ _______ _______ _____ _____    ______ ____
ROOT
ATOM      1  C   UNL     1      47.887   7.941  13.238  0.00  0.00    +0.000 A 
ATOM      2  N   UNL     1      48.153   7.679  14.515  0.00  0.00    +0.000 NA
ATOM      3  C   UNL     1      47.899   6.350  14.713  0.00  0.00    +0.000 A 
ATOM      4  C   UNL     1      47.993   5.549  15.859  0.00  0.00    +0.000 A 
ATOM      5  C   UNL     1      47.656   4.195  15.722  0.00  0.00    +0.000 A 
ATOM      6  C   UNL     1      47.258   3.731  14.464  0.00  0.00    +0.000 A 
ATOM      7  N   UNL     1      47.147   4.475  13.331  0.00  0.00    +0.000 NA
ATOM      8  C   UNL     1      47.481   5.764  13.534  0.00  0.00    +0.000 A 
ATOM      9  N   UNL     1      47.437   6.785  12.612  0.00  0.00    +0.000 N 
ENDROOT
BRANCH   5  10
ATOM     10  C   UNL     1      47.687   3.216  16.834  0.00  0.00    +0.000 C 
ATOM     11  N   UNL     1      48.867   2.597  17.137  0.00  0.00    +0.000 N 
ATOM     12  O   UNL     1      46.678   2.960  17.482  0.00  0.00    +0.000 OA
ATOM     13  H   UNL     1      49.748   2.762  16.678  0.00  0.00    +0.000 HD
ATOM     14  H   UNL     1      48.856   1.946  17.913  0.00  0.00    +0.000 HD
ENDBRANCH   5  10
BRANCH   1  16
ATOM     15  C   UNL     1      49.232   9.190  11.539  0.00  0.00    +0.000 C 
ATOM     16  C   UNL     1      48.142   9.317  12.618  0.00  0.00    +0.000 C 
ATOM     17  C   UNL     1      48.664  10.273  13.720  0.00  0.00    +0.000 C 
ATOM     18  C   UNL     1      46.904   9.996  12.019  0.00  0.00    +0.000 C 
ENDBRANCH   1  16
BRANCH   9  19
ATOM     19  C   UNL     1      47.002   6.558  11.243  0.00  0.00    +0.000 C 
BRANCH  19  20
ATOM     20  C   UNL     1      45.568   6.102  11.128  0.00  0.00    +0.000 A 
ATOM     21  C   UNL     1      44.536   6.854  11.693  0.00  0.00    +0.000 A 
ATOM     22  C   UNL     1      43.229   6.439  11.508  0.00  0.00    +0.000 A 
ATOM     23  N   UNL     1      42.909   5.339  10.800  0.00  0.00    +0.000 NA
ATOM     24  N   UNL     1      43.898   4.605  10.235  0.00  0.00    +0.000 NA
ATOM     25  C   UNL     1      45.186   4.989  10.389  0.00  0.00    +0.000 A 
ENDBRANCH  19  20
ENDBRANCH   9  19
TORSDOF 4
ENDMDL
MODEL 7
REMARK VINA RESULT:    -5.757      3.114      5.352
REMARK INTER + INTRA:          -7.684
REMARK INTER:                  -7.237
REMARK INTRA:                  -0.447
REMARK UNBOUND:                -0.581
REMARK  Name = 
REMARK  7 active torsions:
REMARK  status: ('A' for Active; 'I' for Inactive)
REMARK    1  A    between atoms: C_1  and  C_2
REMARK    2  A    between atoms: C_2  and  C_3
REMARK    3  A    between atoms: C_2  and  C_4
REMARK    4  A    between atoms: C_2  and  C_5
REMARK    5  A    between atoms: C_9  and  C_10
REMARK    6  A    between atoms: N_16  and  C_17
REMARK    7  A    between atoms: C_17  and  C_18
REMARK                            x       y       z     vdW  Elec       q    Type
REMARK                         _______ _______ _______ _____ _____    ______ ____
ROOT
ATOM      1  C   UNL     1      47.953   6.579  14.322  0.00  0.00    +0.000 A 
ATOM      2  N   UNL     1      47.424   5.360  14.403  0.00  0.00    +0.000 NA
ATOM      3  C   UNL     1      46.651   5.184  13.289  0.00  0.00    +0.000 A 
ATOM      4  C   UNL     1      45.861   4.105  12.871  0.00  0.00    +0.000 A 
ATOM      5  C   UNL     1      45.182   4.244  11.652  0.00  0.00    +0.000 A 
ATOM      6  C   UNL     1      45.338   5.434  10.934  0.00  0.00    +0.000 A 
ATOM      7  N   UNL     1      46.088   6.506  11.308  0.00  0.00    +0.000 NA
ATOM      8  C   UNL     1      46.708   6.307  12.487  0.00  0.00    +0.000 A 
ATOM      9  N   UNL     1      47.503   7.203  13.165  0.00  0.00    +0.000 N 
ENDROOT
BRANCH   5  10
ATOM     10  C   UNL     1      44.296   3.207  11.073  0.00  0.00    +0.000 C 
ATOM     11  N   UNL     1      44.819   2.316  10.178  0.00  0.00    +0.000 N 
ATOM     12  O   UNL     1      43.113   3.137  11.386  0.00  0.00    +0.000 OA
ATOM     13  H   UNL     1      45.781   2.281   9.882  0.00  0.00    +0.000 HD
ATOM     14  H   UNL     1      44.189   1.610   9.815  0.00  0.00    +0.000 HD
ENDBRANCH   5  10
BRANCH   1  16
ATOM     15  C   UNL     1      49.015   6.124  16.540  0.00  0.00    +0.000 C 
ATOM     16  C   UNL     1      48.957   7.101  15.353  0.00  0.00    +0.000 C 
ATOM     17  C   UNL     1      48.464   8.471  15.882  0.00  0.00    +0.000 C 
ATOM     18  C   UNL     1      50.373   7.339  14.813  0.00  0.00    +0.000 C 
ENDBRANCH   1  16
BRANCH   9  19
ATOM     19  C   UNL     1      47.771   8.533  12.642  0.00  0.00    +0.000 C 
BRANCH  19  20
ATOM     20  C   UNL     1      49.099   8.652  11.935  0.00  0.00    +0.000 A 
ATOM     21  C   UNL     1      49.763   9.879  11.872  0.00  0.00    +0.000 A 
ATOM     22  C   UNL     1      51.010   9.933  11.276  0.00  0.00    +0.000 A 
ATOM     23  N   UNL     1      51.615   8.848  10.756  0.00  0.00    +0.000 NA
ATOM     24  N   UNL     1      50.989   7.647  10.820  0.00  0.00    +0.000 NA
ATOM     25  C   UNL     1      49.773   7.558  11.405  0.00  0.00    +0.000 A 
ENDBRANCH  19  20
ENDBRANCH   9  19
TORSDOF 4
ENDMDL
MODEL 8
REMARK VINA RESULT:    -5.670      4.189      6.028
REMARK INTER + INTRA:          -7.576
REMARK INTER:                  -6.928
REMARK INTRA:                  -0.648
REMARK UNBOUND:                -0.581
REMARK  Name = 
REMARK  7 active torsions:
REMARK  status: ('A' for Active; 'I' for Inactive)
REMARK    1  A    between atoms: C_1  and  C_2
REMARK    2  A    between atoms: C_2  and  C_3
REMARK    3  A    between atoms: C_2  and  C_4
REMARK    4  A    between atoms: C_2  and  C_5
REMARK    5  A    between atoms: C_9  and  C_10
REMARK    6  A    between atoms: N_16  and  C_17
REMARK    7  A    between atoms: C_17  and  C_18
REMARK                            x       y       z     vdW  Elec       q    Type
REMARK                         _______ _______ _______ _____ _____    ______ ____
ROOT
ATOM      1  C   UNL     1      47.751   4.769  16.078  0.00  0.00    +0.000 A 
ATOM      2  N   UNL     1      46.735   4.228  15.412  0.00  0.00    +0.000 NA
ATOM      3  C   UNL     1      46.648   4.881  14.214  0.00  0.00    +0.000 A 
ATOM      4  C   UNL     1      45.761   4.733  13.139  0.00  0.00    +0.000 A 
ATOM      5  C   UNL     1      45.949   5.575  12.034  0.00  0.00    +0.000 A 
ATOM      6  C   UNL     1      47.001   6.496  12.068  0.00  0.00    +0.000 A 
ATOM      7  N   UNL     1      47.878   6.676  13.092  0.00  0.00    +0.000 NA
ATOM      8  C   UNL     1      47.638   5.839  14.121  0.00  0.00    +0.000 A 
ATOM      9  N   UNL     1      48.310   5.791  15.321  0.00  0.00    +0.000 N 
ENDROOT
BRANCH   5  10
ATOM     10  C   UNL     1      45.093   5.559  10.824  0.00  0.00    +0.000 C 
ATOM     11  N   UNL     1      45.689   5.554   9.594  0.00  0.00    +0.000 N 
ATOM     12  O   UNL     1      43.871   5.545  10.912  0.00  0.00    +0.000 OA
ATOM     13  H   UNL     1      46.682   5.539   9.425  0.00  0.00    +0.000 HD
ATOM     14  H   UNL     1      45.075   5.527   8.788  0.00  0.00    +0.000 HD
ENDBRANCH   5  10
BRANCH   1  16
ATOM     15  C   UNL     1      49.746   4.076  17.419  0.00  0.00    +0.000 C 
ATOM     16  C   UNL     1      48.214   4.231  17.435  0.00  0.00    +0.000 C 
ATOM     17  C   UNL     1      47.591   2.831  17.657  0.00  0.00    +0.000 C 
ATOM     18  C   UNL     1      47.797   5.078  18.643  0.00  0.00    +0.000 C 
ENDBRANCH   1  16
BRANCH   9  19
ATOM     19  C   UNL     1      49.414   6.691  15.614  0.00  0.00    +0.000 C 
BRANCH  19  20
ATOM     20  C   UNL     1      49.047   7.821  16.544  0.00  0.00    +0.000 A 
ATOM     21  C   UNL     1      49.619   7.911  17.815  0.00  0.00    +0.000 A 
ATOM     22  C   UNL     1      49.309   8.999  18.611  0.00  0.00    +0.000 A 
ATOM     23  N   UNL     1      48.479   9.981  18.210  0.00  0.00    +0.000 NA
ATOM     24  N   UNL     1      47.925   9.915  16.974  0.00  0.00    +0.000 NA
ATOM     25  C   UNL     1      48.215   8.869  16.167  0.00  0.00    +0.000 A 
ENDBRANCH  19  20
ENDBRANCH   9  19
TORSDOF 4
ENDMDL
MODEL 9
REMARK VINA RESULT:    -5.152      4.181      6.268
REMARK INTER + INTRA:          -6.938
REMARK INTER:                  -6.642
REMARK INTRA:                  -0.296
REMARK UNBOUND:                -0.581
REMARK  Name = 
REMARK  7 active torsions:
REMARK  status: ('A' for Active; 'I' for Inactive)
REMARK    1  A    between atoms: C_1  and  C_2
REMARK    2  A    between atoms: C_2  and  C_3
REMARK    3  A    between atoms: C_2  and  C_4
REMARK    4  A    between atoms: C_2  and  C_5
REMARK    5  A    between atoms: C_9  and  C_10
REMARK    6  A    between atoms: N_16  and  C_17
REMARK    7  A    between atoms: C_17  and  C_18
REMARK                            x       y       z     vdW  Elec       q    Type
REMARK                         _______ _______ _______ _____ _____    ______ ____
ROOT
ATOM      1  C   UNL     1      48.082   4.573  16.297  0.00  0.00    +0.000 A 
ATOM      2  N   UNL     1      47.390   3.739  15.523  0.00  0.00    +0.000 NA
ATOM      3  C   UNL     1      47.016   4.442  14.411  0.00  0.00    +0.000 A 
ATOM      4  C   UNL     1      46.267   4.068  13.287  0.00  0.00    +0.000 A 
ATOM      5  C   UNL     1      46.061   5.045  12.303  0.00  0.00    +0.000 A 
ATOM      6  C   UNL     1      46.613   6.315  12.497  0.00  0.00    +0.000 A 
ATOM      7  N   UNL     1      47.339   6.719  13.575  0.00  0.00    +0.000 NA
ATOM      8  C   UNL     1      47.495   5.735  14.481  0.00  0.00    +0.000 A 
ATOM      9  N   UNL     1      48.136   5.824  15.696  0.00  0.00    +0.000 N 
ENDROOT
BRANCH   5  10
ATOM     10  C   UNL     1      45.282   4.820  11.062  0.00  0.00    +0.000 C 
ATOM     11  N   UNL     1      45.019   5.885  10.246  0.00  0.00    +0.000 N 
ATOM     12  O   UNL     1      44.879   3.703  10.760  0.00  0.00    +0.000 OA
ATOM     13  H   UNL     1      45.330   6.830  10.399  0.00  0.00    +0.000 HD
ATOM     14  H   UNL     1      44.499   5.692   9.398  0.00  0.00    +0.000 HD
ENDBRANCH   5  10
BRANCH   1  16
ATOM     15  C   UNL     1      48.042   2.843  18.104  0.00  0.00    +0.000 C 
ATOM     16  C   UNL     1      48.747   4.114  17.596  0.00  0.00    +0.000 C 
ATOM     17  C   UNL     1      48.572   5.221  18.666  0.00  0.00    +0.000 C 
ATOM     18  C   UNL     1      50.256   3.857  17.495  0.00  0.00    +0.000 C 
ENDBRANCH   1  16
BRANCH   9  19
ATOM     19  C   UNL     1      48.748   7.065  16.147  0.00  0.00    +0.000 C 
BRANCH  19  20
ATOM     20  C   UNL     1      50.149   7.274  15.629  0.00  0.00    +0.000 A 
ATOM     21  C   UNL     1      50.382   8.090  14.520  0.00  0.00    +0.000 A 
ATOM     22  C   UNL     1      51.687   8.312  14.117  0.00  0.00    +0.000 A 
ATOM     23  N   UNL     1      52.746   7.777  14.755  0.00  0.00    +0.000 NA
ATOM     24  N   UNL     1      52.537   6.993  15.841  0.00  0.00    +0.000 NA
ATOM     25  C   UNL     1      51.274   6.764  16.266  0.00  0.00    +0.000 A 
ENDBRANCH  19  20
ENDBRANCH   9  19
TORSDOF 4
ENDMDL
