MODEL 1
REMARK VINA RESULT:    -8.582      0.000      0.000
REMARK INTER + INTRA:         -12.356
REMARK INTER:                 -11.592
REMARK INTRA:                  -0.764
REMARK UNBOUND:                -0.764
REMARK  Name = 
REMARK  6 active torsions:
REMARK  status: ('A' for Active; 'I' for Inactive)
REMARK    1  A    between atoms: C_2  and  C_4
REMARK    2  A    between atoms: C_7  and  N_8
REMARK    3  A    between atoms: N_8  and  C_9
REMARK    4  A    between atoms: C_9  and  C_10
REMARK    5  A    between atoms: C_10  and  C_11
REMARK    6  A    between atoms: C_14  and  C_15
REMARK                            x       y       z     vdW  Elec       q    Type
REMARK                         _______ _______ _______ _____ _____    ______ ____
ROOT
ATOM      1  C   UNL     1      43.988   5.569  10.958  0.00  0.00    +0.000 C 
ATOM      2  C   UNL     1      43.038   5.413  12.146  0.00  0.00    +0.000 C 
ATOM      3  C   UNL     1      43.035   6.693  11.375  0.00  0.00    +0.000 C 
ENDROOT
BRANCH   1   4
ATOM      4  N   UNL     1      43.682   4.755   9.747  0.00  0.00    +0.000 N 
ATOM      5  H   UNL     1      42.709   4.463   9.649  0.00  0.00    +0.000 HD
BRANCH   4   9
ATOM      6  C   UNL     1      46.260   1.967   7.981  0.00  0.00    +0.000 A 
ATOM      7  C   UNL     1      46.342   3.283   7.547  0.00  0.00    +0.000 A 
ATOM      8  C   UNL     1      45.472   4.233   8.108  0.00  0.00    +0.000 A 
ATOM      9  C   UNL     1      44.596   3.868   9.122  0.00  0.00    +0.000 A 
ATOM     10  C   UNL     1      44.590   2.510   9.468  0.00  0.00    +0.000 A 
ATOM     11  N   UNL     1      45.392   1.546   8.934  0.00  0.00    +0.000 NA
BRANCH   6  13
ATOM     12  N   UNL     1      46.828  -0.382   7.613  0.00  0.00    +0.000 N 
ATOM     13  C   UNL     1      47.109   0.926   7.326  0.00  0.00    +0.000 C 
ATOM     14  O   UNL     1      48.016   1.219   6.544  0.00  0.00    +0.000 OA
ATOM     15  H   UNL     1      47.349  -1.098   7.123  0.00  0.00    +0.000 HD
ATOM     16  H   UNL     1      45.978  -0.622   8.103  0.00  0.00    +0.000 HD
ENDBRANCH   6  13
ENDBRANCH   4   9
ENDBRANCH   1   4
BRANCH   1  17
ATOM     17  C   UNL     1      45.472   5.817  11.217  0.00  0.00    +0.000 C 
BRANCH  17  18
ATOM     18  C   UNL     1      45.994   5.191  12.491  0.00  0.00    +0.000 A 
ATOM     19  C   UNL     1      46.598   5.963  13.488  0.00  0.00    +0.000 A 
ATOM     20  C   UNL     1      47.176   5.326  14.586  0.00  0.00    +0.000 A 
ATOM     21  C   UNL     1      47.097   3.949  14.656  0.00  0.00    +0.000 A 
ATOM     22  N   UNL     1      46.491   3.211  13.695  0.00  0.00    +0.000 NA
ATOM     23  N   UNL     1      45.946   3.844  12.601  0.00  0.00    +0.000 NA
BRANCH  21  24
ATOM     24  C   UNL     1      47.683   3.209  15.811  0.00  0.00    +0.000 C 
ATOM     25  N   UNL     1      47.068   3.388  17.022  0.00  0.00    +0.000 N 
ATOM     26  O   UNL     1      48.660   2.478  15.693  0.00  0.00    +0.000 OA
ATOM     27  H   UNL     1      46.266   3.999  17.114  0.00  0.00    +0.000 HD
ATOM     28  H   UNL     1      47.438   2.915  17.834  0.00  0.00    +0.000 HD
ENDBRANCH  21  24
ENDBRANCH  17  18
ENDBRANCH   1  17
TORSDOF 6
ENDMDL
MODEL 2
REMARK VINA RESULT:    -8.052      1.972      7.085
REMARK INTER + INTRA:         -11.641
REMARK INTER:                 -10.957
REMARK INTRA:                  -0.684
REMARK UNBOUND:                -0.764
REMARK  Name = 
REMARK  6 active torsions:
REMARK  status: ('A' for Active; 'I' for Inactive)
REMARK    1  A    between atoms: C_2  and  C_4
REMARK    2  A    between atoms: C_7  and  N_8
REMARK    3  A    between atoms: N_8  and  C_9
REMARK    4  A    between atoms: C_9  and  C_10
REMARK    5  A    between atoms: C_10  and  C_11
REMARK    6  A    between atoms: C_14  and  C_15
REMARK                            x       y       z     vdW  Elec       q    Type
REMARK                         _______ _______ _______ _____ _____    ______ ____
ROOT
ATOM      1  C   UNL     1      44.269   4.632  11.674  0.00  0.00    +0.000 C 
ATOM      2  C   UNL     1      43.588   5.553  12.686  0.00  0.00    +0.000 C 
ATOM      3  C   UNL     1      43.341   4.081  12.761  0.00  0.00    +0.000 C 
ENDROOT
BRANCH   1   4
ATOM      4  N   UNL     1      45.745   4.465  11.811  0.00  0.00    +0.000 N 
ATOM      5  H   UNL     1      46.119   3.581  11.466  0.00  0.00    +0.000 HD
BRANCH   4   9
ATOM      6  C   UNL     1      48.075   5.940  14.963  0.00  0.00    +0.000 A 
ATOM      7  C   UNL     1      47.877   6.769  13.867  0.00  0.00    +0.000 A 
ATOM      8  C   UNL     1      47.117   6.290  12.787  0.00  0.00    +0.000 A 
ATOM      9  C   UNL     1      46.526   5.034  12.850  0.00  0.00    +0.000 A 
ATOM     10  C   UNL     1      46.806   4.280  13.997  0.00  0.00    +0.000 A 
ATOM     11  N   UNL     1      47.560   4.690  15.057  0.00  0.00    +0.000 NA
BRANCH   6  13
ATOM     12  N   UNL     1      48.355   6.967  17.163  0.00  0.00    +0.000 N 
ATOM     13  C   UNL     1      48.960   6.398  16.077  0.00  0.00    +0.000 C 
ATOM     14  O   UNL     1      50.184   6.258  16.039  0.00  0.00    +0.000 OA
ATOM     15  H   UNL     1      48.935   7.217  17.953  0.00  0.00    +0.000 HD
ATOM     16  H   UNL     1      47.351   6.914  17.271  0.00  0.00    +0.000 HD
ENDBRANCH   6  13
ENDBRANCH   4   9
ENDBRANCH   1   4
BRANCH   1  17
ATOM     17  C   UNL     1      43.738   4.572  10.244  0.00  0.00    +0.000 C 
BRANCH  17  18
ATOM     18  C   UNL     1      44.668   3.893   9.264  0.00  0.00    +0.000 A 
ATOM     19  C   UNL     1      44.813   2.502   9.240  0.00  0.00    +0.000 A 
ATOM     20  C   UNL     1      45.775   1.932   8.407  0.00  0.00    +0.000 A 
ATOM     21  C   UNL     1      46.528   2.773   7.611  0.00  0.00    +0.000 A 
ATOM     22  N   UNL     1      46.366   4.118   7.625  0.00  0.00    +0.000 NA
ATOM     23  N   UNL     1      45.432   4.676   8.469  0.00  0.00    +0.000 NA
BRANCH  21  24
ATOM     24  C   UNL     1      47.563   2.225   6.687  0.00  0.00    +0.000 C 
ATOM     25  N   UNL     1      47.906   3.014   5.621  0.00  0.00    +0.000 N 
ATOM     26  O   UNL     1      48.084   1.129   6.864  0.00  0.00    +0.000 OA
ATOM     27  H   UNL     1      47.466   3.915   5.477  0.00  0.00    +0.000 HD
ATOM     28  H   UNL     1      48.595   2.677   4.964  0.00  0.00    +0.000 HD
ENDBRANCH  21  24
ENDBRANCH  17  18
ENDBRANCH   1  17
TORSDOF 6
ENDMDL
MODEL 3
REMARK VINA RESULT:    -8.016      2.800      7.086
REMARK INTER + INTRA:         -11.592
REMARK INTER:                 -10.523
REMARK INTRA:                  -1.068
REMARK UNBOUND:                -0.764
REMARK  Name = 
REMARK  6 active torsions:
REMARK  status: ('A' for Active; 'I' for Inactive)
REMARK    1  A    between atoms: C_2  and  C_4
REMARK    2  A    between atoms: C_7  and  N_8
REMARK    3  A    between atoms: N_8  and  C_9
REMARK    4  A    between atoms: C_9  and  C_10
REMARK    5  A    between atoms: C_10  and  C_11
REMARK    6  A    between atoms: C_14  and  C_15
REMARK                            x       y       z     vdW  Elec       q    Type
REMARK                         _______ _______ _______ _____ _____    ______ ____
ROOT
ATOM      1  C   UNL     1      44.231   4.374  11.661  0.00  0.00    +0.000 C 
ATOM      2  C   UNL     1      43.331   4.897  12.780  0.00  0.00    +0.000 C 
ATOM      3  C   UNL     1      43.385   3.427  12.518  0.00  0.00    +0.000 C 
ENDROOT
BRANCH   1   4
ATOM      4  N   UNL     1      45.702   4.460  11.892  0.00  0.00    +0.000 N 
ATOM      5  H   UNL     1      46.151   3.593  12.188  0.00  0.00    +0.000 HD
BRANCH   4   9
ATOM      6  C   UNL     1      47.809   7.761  13.376  0.00  0.00    +0.000 A 
ATOM      7  C   UNL     1      47.141   7.915  12.169  0.00  0.00    +0.000 A 
ATOM      8  C   UNL     1      46.445   6.816  11.639  0.00  0.00    +0.000 A 
ATOM      9  C   UNL     1      46.378   5.622  12.346  0.00  0.00    +0.000 A 
ATOM     10  C   UNL     1      47.102   5.577  13.545  0.00  0.00    +0.000 A 
ATOM     11  N   UNL     1      47.815   6.606  14.086  0.00  0.00    +0.000 NA
BRANCH   6  13
ATOM     12  N   UNL     1      48.106   9.621  14.934  0.00  0.00    +0.000 N 
ATOM     13  C   UNL     1      48.634   8.889  13.906  0.00  0.00    +0.000 C 
ATOM     14  O   UNL     1      49.752   9.149  13.456  0.00  0.00    +0.000 OA
ATOM     15  H   UNL     1      48.682  10.342  15.348  0.00  0.00    +0.000 HD
ATOM     16  H   UNL     1      47.281   9.295  15.417  0.00  0.00    +0.000 HD
ENDBRANCH   6  13
ENDBRANCH   4   9
ENDBRANCH   1   4
BRANCH   1  17
ATOM     17  C   UNL     1      43.790   4.540  10.208  0.00  0.00    +0.000 C 
BRANCH  17  18
ATOM     18  C   UNL     1      44.729   3.920   9.199  0.00  0.00    +0.000 A 
ATOM     19  C   UNL     1      44.844   2.532   9.067  0.00  0.00    +0.000 A 
ATOM     20  C   UNL     1      45.814   2.007   8.213  0.00  0.00    +0.000 A 
ATOM     21  C   UNL     1      46.605   2.891   7.505  0.00  0.00    +0.000 A 
ATOM     22  N   UNL     1      46.472   4.234   7.624  0.00  0.00    +0.000 NA
ATOM     23  N   UNL     1      45.531   4.745   8.489  0.00  0.00    +0.000 NA
BRANCH  21  24
ATOM     24  C   UNL     1      47.651   2.394   6.565  0.00  0.00    +0.000 C 
ATOM     25  N   UNL     1      47.780   3.075   5.384  0.00  0.00    +0.000 N 
ATOM     26  O   UNL     1      48.361   1.429   6.826  0.00  0.00    +0.000 OA
ATOM     27  H   UNL     1      47.185   3.867   5.171  0.00  0.00    +0.000 HD
ATOM     28  H   UNL     1      48.468   2.766   4.712  0.00  0.00    +0.000 HD
ENDBRANCH  21  24
ENDBRANCH  17  18
ENDBRANCH   1  17
TORSDOF 6
ENDMDL
MODEL 4
REMARK VINA RESULT:    -7.433      2.985      3.404
REMARK INTER + INTRA:         -10.805
REMARK INTER:                 -10.069
REMARK INTRA:                  -0.735
REMARK UNBOUND:                -0.764
REMARK  Name = 
REMARK  6 active torsions:
REMARK  status: ('A' for Active; 'I' for Inactive)
REMARK    1  A    between atoms: C_2  and  C_4
REMARK    2  A    between atoms: C_7  and  N_8
REMARK    3  A    between atoms: N_8  and  C_9
REMARK    4  A    between atoms: C_9  and  C_10
REMARK    5  A    between atoms: C_10  and  C_11
REMARK    6  A    between atoms: C_14  and  C_15
REMARK                            x       y       z     vdW  Elec       q    Type
REMARK                         _______ _______ _______ _____ _____    ______ ____
ROOT
ATOM      1  C   UNL     1      43.967   5.189  11.457  0.00  0.00    +0.000 C 
ATOM      2  C   UNL     1      44.727   4.314  12.454  0.00  0.00    +0.000 C 
ATOM      3  C   UNL     1      43.298   4.655  12.727  0.00  0.00    +0.000 C 
ENDROOT
BRANCH   1   4
ATOM      4  N   UNL     1      43.643   4.571  10.139  0.00  0.00    +0.000 N 
ATOM      5  H   UNL     1      42.691   4.217  10.043  0.00  0.00    +0.000 HD
BRANCH   4   9
ATOM      6  C   UNL     1      46.510   2.743   7.694  0.00  0.00    +0.000 A 
ATOM      7  C   UNL     1      45.707   1.919   8.470  0.00  0.00    +0.000 A 
ATOM      8  C   UNL     1      44.753   2.508   9.316  0.00  0.00    +0.000 A 
ATOM      9  C   UNL     1      44.578   3.887   9.320  0.00  0.00    +0.000 A 
ATOM     10  C   UNL     1      45.454   4.619   8.508  0.00  0.00    +0.000 A 
ATOM     11  N   UNL     1      46.414   4.096   7.694  0.00  0.00    +0.000 NA
BRANCH   6  13
ATOM     12  N   UNL     1      48.130   2.912   5.871  0.00  0.00    +0.000 N 
ATOM     13  C   UNL     1      47.595   2.137   6.864  0.00  0.00    +0.000 C 
ATOM     14  O   UNL     1      48.013   0.995   7.066  0.00  0.00    +0.000 OA
ATOM     15  H   UNL     1      48.911   2.540   5.348  0.00  0.00    +0.000 HD
ATOM     16  H   UNL     1      47.916   3.899   5.828  0.00  0.00    +0.000 HD
ENDBRANCH   6  13
ENDBRANCH   4   9
ENDBRANCH   1   4
BRANCH   1  17
ATOM     17  C   UNL     1      44.238   6.691  11.423  0.00  0.00    +0.000 C 
BRANCH  17  18
ATOM     18  C   UNL     1      45.609   7.086  11.925  0.00  0.00    +0.000 A 
ATOM     19  C   UNL     1      45.766   8.001  12.971  0.00  0.00    +0.000 A 
ATOM     20  C   UNL     1      47.048   8.429  13.314  0.00  0.00    +0.000 A 
ATOM     21  C   UNL     1      48.119   7.901  12.619  0.00  0.00    +0.000 A 
ATOM     22  N   UNL     1      47.958   6.999  11.621  0.00  0.00    +0.000 NA
ATOM     23  N   UNL     1      46.688   6.600  11.270  0.00  0.00    +0.000 NA
BRANCH  21  24
ATOM     24  C   UNL     1      49.517   8.307  12.947  0.00  0.00    +0.000 C 
ATOM     25  N   UNL     1      50.515   7.561  12.380  0.00  0.00    +0.000 N 
ATOM     26  O   UNL     1      49.767   9.255  13.683  0.00  0.00    +0.000 OA
ATOM     27  H   UNL     1      50.301   6.774  11.779  0.00  0.00    +0.000 HD
ATOM     28  H   UNL     1      51.477   7.793  12.584  0.00  0.00    +0.000 HD
ENDBRANCH  21  24
ENDBRANCH  17  18
ENDBRANCH   1  17
TORSDOF 6
ENDMDL
MODEL 5
REMARK VINA RESULT:    -6.807      2.879      6.863
REMARK INTER + INTRA:          -9.959
REMARK INTER:                  -9.108
REMARK INTRA:                  -0.850
REMARK UNBOUND:                -0.764
REMARK  Name = 
REMARK  6 active torsions:
REMARK  status: ('A' for Active; 'I' for Inactive)
REMARK    1  A    between atoms: C_2  and  C_4
REMARK    2  A    between atoms: C_7  and  N_8
REMARK    3  A    between atoms: N_8  and  C_9
REMARK    4  A    between atoms: C_9  and  C_10
REMARK    5  A    between atoms: C_10  and  C_11
REMARK    6  A    between atoms: C_14  and  C_15
REMARK                            x       y       z     vdW  Elec       q    Type
REMARK                         _______ _______ _______ _____ _____    ______ ____
ROOT
ATOM      1  C   UNL     1      47.428   7.947  12.606  0.00  0.00    +0.000 C 
ATOM      2  C   UNL     1      48.368   8.908  11.879  0.00  0.00    +0.000 C 
ATOM      3  C   UNL     1      48.056   9.147  13.320  0.00  0.00    +0.000 C 
ENDROOT
BRANCH   1   4
ATOM      4  N   UNL     1      47.949   6.575  12.872  0.00  0.00    +0.000 N 
ATOM      5  H   UNL     1      47.960   5.947  12.067  0.00  0.00    +0.000 HD
BRANCH   4   9
ATOM      6  C   UNL     1      47.510   4.387  16.416  0.00  0.00    +0.000 A 
ATOM      7  C   UNL     1      48.293   5.533  16.460  0.00  0.00    +0.000 A 
ATOM      8  C   UNL     1      48.474   6.272  15.280  0.00  0.00    +0.000 A 
ATOM      9  C   UNL     1      47.826   5.893  14.110  0.00  0.00    +0.000 A 
ATOM     10  C   UNL     1      47.075   4.713  14.179  0.00  0.00    +0.000 A 
ATOM     11  N   UNL     1      46.894   3.946  15.292  0.00  0.00    +0.000 NA
BRANCH   6  13
ATOM     12  N   UNL     1      48.096   3.922  18.743  0.00  0.00    +0.000 N 
ATOM     13  C   UNL     1      47.387   3.537  17.638  0.00  0.00    +0.000 C 
ATOM     14  O   UNL     1      46.665   2.538  17.670  0.00  0.00    +0.000 OA
ATOM     15  H   UNL     1      47.968   3.396  19.597  0.00  0.00    +0.000 HD
ATOM     16  H   UNL     1      48.536   4.831  18.771  0.00  0.00    +0.000 HD
ENDBRANCH   6  13
ENDBRANCH   4   9
ENDBRANCH   1   4
BRANCH   1  17
ATOM     17  C   UNL     1      45.925   8.032  12.346  0.00  0.00    +0.000 C 
BRANCH  17  18
ATOM     18  C   UNL     1      45.284   6.715  11.971  0.00  0.00    +0.000 A 
ATOM     19  C   UNL     1      44.274   6.146  12.754  0.00  0.00    +0.000 A 
ATOM     20  C   UNL     1      43.803   4.872  12.438  0.00  0.00    +0.000 A 
ATOM     21  C   UNL     1      44.339   4.235  11.335  0.00  0.00    +0.000 A 
ATOM     22  N   UNL     1      45.302   4.803  10.571  0.00  0.00    +0.000 NA
ATOM     23  N   UNL     1      45.781   6.050  10.903  0.00  0.00    +0.000 NA
BRANCH  21  24
ATOM     24  C   UNL     1      43.868   2.877  10.935  0.00  0.00    +0.000 C 
ATOM     25  N   UNL     1      44.537   2.282   9.899  0.00  0.00    +0.000 N 
ATOM     26  O   UNL     1      42.934   2.317  11.498  0.00  0.00    +0.000 OA
ATOM     27  H   UNL     1      45.303   2.754   9.434  0.00  0.00    +0.000 HD
ATOM     28  H   UNL     1      44.245   1.368   9.587  0.00  0.00    +0.000 HD
ENDBRANCH  21  24
ENDBRANCH  17  18
ENDBRANCH   1  17
TORSDOF 6
ENDMDL
MODEL 6
REMARK VINA RESULT:    -6.633      2.916      4.159
REMARK INTER + INTRA:          -9.723
REMARK INTER:                  -9.195
REMARK INTRA:                  -0.528
REMARK UNBOUND:                -0.764
REMARK  Name = 
REMARK  6 active torsions:
REMARK  status: ('A' for Active; 'I' for Inactive)
REMARK    1  A    between atoms: C_2  and  C_4
REMARK    2  A    between atoms: C_7  and  N_8
REMARK    3  A    between atoms: N_8  and  C_9
REMARK    4  A    between atoms: C_9  and  C_10
REMARK    5  A    between atoms: C_10  and  C_11
REMARK    6  A    between atoms: C_14  and  C_15
REMARK                            x       y       z     vdW  Elec       q    Type
REMARK                         _______ _______ _______ _____ _____    ______ ____
ROOT
ATOM      1  C   UNL     1      47.404   7.965  12.995  0.00  0.00    +0.000 C 
ATOM      2  C   UNL     1      47.523   8.967  14.143  0.00  0.00    +0.000 C 
ATOM      3  C   UNL     1      48.188   9.272  12.840  0.00  0.00    +0.000 C 
ENDROOT
BRANCH   1   4
ATOM      4  N   UNL     1      46.061   7.831  12.361  0.00  0.00    +0.000 N 
ATOM      5  H   UNL     1      45.400   8.578  12.575  0.00  0.00    +0.000 HD
BRANCH   4   9
ATOM      6  C   UNL     1      44.351   4.151  11.328  0.00  0.00    +0.000 A 
ATOM      7  C   UNL     1      44.005   4.698  12.556  0.00  0.00    +0.000 A 
ATOM      8  C   UNL     1      44.582   5.922  12.935  0.00  0.00    +0.000 A 
ATOM      9  C   UNL     1      45.431   6.595  12.066  0.00  0.00    +0.000 A 
ATOM     10  C   UNL     1      45.721   5.940  10.862  0.00  0.00    +0.000 A 
ATOM     11  N   UNL     1      45.210   4.741  10.461  0.00  0.00    +0.000 NA
BRANCH   6  13
ATOM     12  N   UNL     1      44.474   2.132   9.956  0.00  0.00    +0.000 N 
ATOM     13  C   UNL     1      43.822   2.804  10.952  0.00  0.00    +0.000 C 
ATOM     14  O   UNL     1      42.850   2.302  11.520  0.00  0.00    +0.000 OA
ATOM     15  H   UNL     1      44.170   1.192   9.739  0.00  0.00    +0.000 HD
ATOM     16  H   UNL     1      45.370   2.462   9.623  0.00  0.00    +0.000 HD
ENDBRANCH   6  13
ENDBRANCH   4   9
ENDBRANCH   1   4
BRANCH   1  17
ATOM     17  C   UNL     1      48.236   6.684  13.034  0.00  0.00    +0.000 C 
BRANCH  17  18
ATOM     18  C   UNL     1      48.033   5.849  14.277  0.00  0.00    +0.000 A 
ATOM     19  C   UNL     1      48.518   6.264  15.522  0.00  0.00    +0.000 A 
ATOM     20  C   UNL     1      48.418   5.403  16.614  0.00  0.00    +0.000 A 
ATOM     21  C   UNL     1      47.808   4.177  16.423  0.00  0.00    +0.000 A 
ATOM     22  N   UNL     1      47.323   3.793  15.219  0.00  0.00    +0.000 NA
ATOM     23  N   UNL     1      47.448   4.637  14.138  0.00  0.00    +0.000 NA
BRANCH  21  24
ATOM     24  C   UNL     1      47.657   3.217  17.554  0.00  0.00    +0.000 C 
ATOM     25  N   UNL     1      48.724   3.105  18.404  0.00  0.00    +0.000 N 
ATOM     26  O   UNL     1      46.636   2.558  17.721  0.00  0.00    +0.000 OA
ATOM     27  H   UNL     1      49.568   3.647  18.256  0.00  0.00    +0.000 HD
ATOM     28  H   UNL     1      48.670   2.458  19.177  0.00  0.00    +0.000 HD
ENDBRANCH  21  24
ENDBRANCH  17  18
ENDBRANCH   1  17
TORSDOF 6
ENDMDL
MODEL 7
REMARK VINA RESULT:    -6.340      3.144      4.838
REMARK INTER + INTRA:          -9.328
REMARK INTER:                  -8.694
REMARK INTRA:                  -0.634
REMARK UNBOUND:                -0.764
REMARK  Name = 
REMARK  6 active torsions:
REMARK  status: ('A' for Active; 'I' for Inactive)
REMARK    1  A    between atoms: C_2  and  C_4
REMARK    2  A    between atoms: C_7  and  N_8
REMARK    3  A    between atoms: N_8  and  C_9
REMARK    4  A    between atoms: C_9  and  C_10
REMARK    5  A    between atoms: C_10  and  C_11
REMARK    6  A    between atoms: C_14  and  C_15
REMARK                            x       y       z     vdW  Elec       q    Type
REMARK                         _______ _______ _______ _____ _____    ______ ____
ROOT
ATOM      1  C   UNL     1      48.128   7.569  13.344  0.00  0.00    +0.000 C 
ATOM      2  C   UNL     1      48.041   8.614  12.231  0.00  0.00    +0.000 C 
ATOM      3  C   UNL     1      48.647   7.282  11.932  0.00  0.00    +0.000 C 
ENDROOT
BRANCH   1   4
ATOM      4  N   UNL     1      46.841   6.964  13.793  0.00  0.00    +0.000 N 
ATOM      5  H   UNL     1      46.720   6.893  14.804  0.00  0.00    +0.000 HD
BRANCH   4   9
ATOM      6  C   UNL     1      44.768   3.894  11.839  0.00  0.00    +0.000 A 
ATOM      7  C   UNL     1      44.570   5.192  11.388  0.00  0.00    +0.000 A 
ATOM      8  C   UNL     1      45.237   6.242  12.041  0.00  0.00    +0.000 A 
ATOM      9  C   UNL     1      46.125   5.972  13.075  0.00  0.00    +0.000 A 
ATOM     10  C   UNL     1      46.234   4.628  13.455  0.00  0.00    +0.000 A 
ATOM     11  N   UNL     1      45.587   3.578  12.873  0.00  0.00    +0.000 NA
BRANCH   6  13
ATOM     12  N   UNL     1      44.451   2.282  10.030  0.00  0.00    +0.000 N 
ATOM     13  C   UNL     1      43.992   2.777  11.219  0.00  0.00    +0.000 C 
ATOM     14  O   UNL     1      42.990   2.301  11.756  0.00  0.00    +0.000 OA
ATOM     15  H   UNL     1      43.977   1.481   9.635  0.00  0.00    +0.000 HD
ATOM     16  H   UNL     1      45.365   2.546   9.689  0.00  0.00    +0.000 HD
ENDBRANCH   6  13
ENDBRANCH   4   9
ENDBRANCH   1   4
BRANCH   1  17
ATOM     17  C   UNL     1      49.189   7.724  14.431  0.00  0.00    +0.000 C 
BRANCH  17  18
ATOM     18  C   UNL     1      48.900   6.947  15.696  0.00  0.00    +0.000 A 
ATOM     19  C   UNL     1      48.757   7.590  16.930  0.00  0.00    +0.000 A 
ATOM     20  C   UNL     1      48.617   6.823  18.086  0.00  0.00    +0.000 A 
ATOM     21  C   UNL     1      48.594   5.448  17.956  0.00  0.00    +0.000 A 
ATOM     22  N   UNL     1      48.712   4.835  16.754  0.00  0.00    +0.000 NA
ATOM     23  N   UNL     1      48.876   5.597  15.619  0.00  0.00    +0.000 NA
BRANCH  21  24
ATOM     24  C   UNL     1      48.433   4.571  19.152  0.00  0.00    +0.000 C 
ATOM     25  N   UNL     1      48.471   3.221  18.925  0.00  0.00    +0.000 N 
ATOM     26  O   UNL     1      48.273   5.025  20.279  0.00  0.00    +0.000 OA
ATOM     27  H   UNL     1      48.595   2.853  17.990  0.00  0.00    +0.000 HD
ATOM     28  H   UNL     1      48.354   2.590  19.705  0.00  0.00    +0.000 HD
ENDBRANCH  21  24
ENDBRANCH  17  18
ENDBRANCH   1  17
TORSDOF 6
ENDMDL
MODEL 8
REMARK VINA RESULT:    -6.139      4.110      6.274
REMARK INTER + INTRA:          -9.056
REMARK INTER:                  -8.048
REMARK INTRA:                  -1.008
REMARK UNBOUND:                -0.764
REMARK  Name = 
REMARK  6 active torsions:
REMARK  status: ('A' for Active; 'I' for Inactive)
REMARK    1  A    between atoms: C_2  and  C_4
REMARK    2  A    between atoms: C_7  and  N_8
REMARK    3  A    between atoms: N_8  and  C_9
REMARK    4  A    between atoms: C_9  and  C_10
REMARK    5  A    between atoms: C_10  and  C_11
REMARK    6  A    between atoms: C_14  and  C_15
REMARK                            x       y       z     vdW  Elec       q    Type
REMARK                         _______ _______ _______ _____ _____    ______ ____
ROOT
ATOM      1  C   UNL     1      48.890   7.610  15.557  0.00  0.00    +0.000 C 
ATOM      2  C   UNL     1      48.377   9.032  15.329  0.00  0.00    +0.000 C 
ATOM      3  C   UNL     1      49.849   8.799  15.436  0.00  0.00    +0.000 C 
ENDROOT
BRANCH   1   4
ATOM      4  N   UNL     1      48.749   6.659  14.417  0.00  0.00    +0.000 N 
ATOM      5  H   UNL     1      49.496   6.694  13.722  0.00  0.00    +0.000 HD
BRANCH   4   9
ATOM      6  C   UNL     1      45.078   5.221  13.006  0.00  0.00    +0.000 A 
ATOM      7  C   UNL     1      45.521   6.442  12.517  0.00  0.00    +0.000 A 
ATOM      8  C   UNL     1      46.739   6.957  12.990  0.00  0.00    +0.000 A 
ATOM      9  C   UNL     1      47.510   6.222  13.883  0.00  0.00    +0.000 A 
ATOM     10  C   UNL     1      46.956   5.011  14.320  0.00  0.00    +0.000 A 
ATOM     11  N   UNL     1      45.767   4.484  13.913  0.00  0.00    +0.000 NA
BRANCH   6  13
ATOM     12  N   UNL     1      42.638   5.349  13.080  0.00  0.00    +0.000 N 
ATOM     13  C   UNL     1      43.739   4.706  12.586  0.00  0.00    +0.000 C 
ATOM     14  O   UNL     1      43.619   3.753  11.813  0.00  0.00    +0.000 OA
ATOM     15  H   UNL     1      41.729   5.056  12.749  0.00  0.00    +0.000 HD
ATOM     16  H   UNL     1      42.740   6.233  13.560  0.00  0.00    +0.000 HD
ENDBRANCH   6  13
ENDBRANCH   4   9
ENDBRANCH   1   4
BRANCH   1  17
ATOM     17  C   UNL     1      48.767   6.985  16.945  0.00  0.00    +0.000 C 
BRANCH  17  18
ATOM     18  C   UNL     1      49.425   5.630  17.077  0.00  0.00    +0.000 A 
ATOM     19  C   UNL     1      48.710   4.512  17.516  0.00  0.00    +0.000 A 
ATOM     20  C   UNL     1      49.389   3.315  17.742  0.00  0.00    +0.000 A 
ATOM     21  C   UNL     1      50.746   3.278  17.489  0.00  0.00    +0.000 A 
ATOM     22  N   UNL     1      51.427   4.362  17.044  0.00  0.00    +0.000 NA
ATOM     23  N   UNL     1      50.756   5.548  16.848  0.00  0.00    +0.000 NA
BRANCH  21  24
ATOM     24  C   UNL     1      51.528   2.025  17.697  0.00  0.00    +0.000 C 
ATOM     25  N   UNL     1      52.585   2.104  18.564  0.00  0.00    +0.000 N 
ATOM     26  O   UNL     1      51.246   0.976  17.127  0.00  0.00    +0.000 OA
ATOM     27  H   UNL     1      52.816   2.975  19.026  0.00  0.00    +0.000 HD
ATOM     28  H   UNL     1      53.148   1.282  18.726  0.00  0.00    +0.000 HD
ENDBRANCH  21  24
ENDBRANCH  17  18
ENDBRANCH   1  17
TORSDOF 6
ENDMDL
MODEL 9
REMARK VINA RESULT:    -5.788      3.342      8.137
REMARK INTER + INTRA:          -8.583
REMARK INTER:                  -7.502
REMARK INTRA:                  -1.081
REMARK UNBOUND:                -0.764
REMARK  Name = 
REMARK  6 active torsions:
REMARK  status: ('A' for Active; 'I' for Inactive)
REMARK    1  A    between atoms: C_2  and  C_4
REMARK    2  A    between atoms: C_7  and  N_8
REMARK    3  A    between atoms: N_8  and  C_9
REMARK    4  A    between atoms: C_9  and  C_10
REMARK    5  A    between atoms: C_10  and  C_11
REMARK    6  A    between atoms: C_14  and  C_15
REMARK                            x       y       z     vdW  Elec       q    Type
REMARK                         _______ _______ _______ _____ _____    ______ ____
ROOT
ATOM      1  C   UNL     1      48.059   7.546  13.049  0.00  0.00    +0.000 C 
ATOM      2  C   UNL     1      48.645   7.823  11.664  0.00  0.00    +0.000 C 
ATOM      3  C   UNL     1      48.614   8.924  12.674  0.00  0.00    +0.000 C 
ENDROOT
BRANCH   1   4
ATOM      4  N   UNL     1      48.849   6.652  13.942  0.00  0.00    +0.000 N 
ATOM      5  H   UNL     1      49.194   5.794  13.510  0.00  0.00    +0.000 HD
BRANCH   4   9
ATOM      6  C   UNL     1      48.245   6.509  18.084  0.00  0.00    +0.000 A 
ATOM      7  C   UNL     1      48.013   5.348  17.360  0.00  0.00    +0.000 A 
ATOM      8  C   UNL     1      48.187   5.375  15.967  0.00  0.00    +0.000 A 
ATOM      9  C   UNL     1      48.645   6.529  15.341  0.00  0.00    +0.000 A 
ATOM     10  C   UNL     1      48.832   7.643  16.169  0.00  0.00    +0.000 A 
ATOM     11  N   UNL     1      48.649   7.674  17.520  0.00  0.00    +0.000 NA
BRANCH   6  13
ATOM     12  N   UNL     1      47.453   5.384  20.104  0.00  0.00    +0.000 N 
ATOM     13  C   UNL     1      47.971   6.524  19.553  0.00  0.00    +0.000 C 
ATOM     14  O   UNL     1      48.215   7.509  20.254  0.00  0.00    +0.000 OA
ATOM     15  H   UNL     1      47.328   5.356  21.107  0.00  0.00    +0.000 HD
ATOM     16  H   UNL     1      47.428   4.528  19.568  0.00  0.00    +0.000 HD
ENDBRANCH   6  13
ENDBRANCH   4   9
ENDBRANCH   1   4
BRANCH   1  17
ATOM     17  C   UNL     1      46.543   7.455  13.213  0.00  0.00    +0.000 C 
BRANCH  17  18
ATOM     18  C   UNL     1      45.916   6.259  12.534  0.00  0.00    +0.000 A 
ATOM     19  C   UNL     1      45.107   6.404  11.402  0.00  0.00    +0.000 A 
ATOM     20  C   UNL     1      44.449   5.287  10.887  0.00  0.00    +0.000 A 
ATOM     21  C   UNL     1      44.653   4.069  11.506  0.00  0.00    +0.000 A 
ATOM     22  N   UNL     1      45.455   3.935  12.589  0.00  0.00    +0.000 NA
ATOM     23  N   UNL     1      46.081   5.046  13.108  0.00  0.00    +0.000 NA
BRANCH  21  24
ATOM     24  C   UNL     1      43.990   2.834  10.995  0.00  0.00    +0.000 C 
ATOM     25  N   UNL     1      44.606   2.202   9.948  0.00  0.00    +0.000 N 
ATOM     26  O   UNL     1      42.950   2.401  11.480  0.00  0.00    +0.000 OA
ATOM     27  H   UNL     1      45.460   2.570   9.547  0.00  0.00    +0.000 HD
ATOM     28  H   UNL     1      44.186   1.369   9.562  0.00  0.00    +0.000 HD
ENDBRANCH  21  24
ENDBRANCH  17  18
ENDBRANCH   1  17
TORSDOF 6
ENDMDL
