MODEL 1
REMARK VINA RESULT:    -7.840      0.000      0.000
REMARK INTER + INTRA:         -13.743
REMARK INTER:                 -12.424
REMARK INTRA:                  -1.319
REMARK UNBOUND:                -1.319
REMARK  Name = 
REMARK  11 active torsions:
REMARK  status: ('A' for Active; 'I' for Inactive)
REMARK    1  A    between atoms: N_1  and  C_2
REMARK    2  A    between atoms: C_2  and  C_3
REMARK    3  A    between atoms: C_3  and  N_4
REMARK    4  A    between atoms: C_3  and  C_20
REMARK    5  A    between atoms: C_5  and  C_7
REMARK    6  A    between atoms: N_13  and  C_14
REMARK    7  A    between atoms: C_14  and  C_15
REMARK    8  A    between atoms: C_15  and  O_16
REMARK    9  A    between atoms: C_23  and  C_24
REMARK   10  A    between atoms: C_24  and  N_25
REMARK   11  A    between atoms: C_26  and  C_28
REMARK                            x       y       z     vdW  Elec       q    Type
REMARK                         _______ _______ _______ _____ _____    ______ ____
ROOT
ATOM      1  C   UNL     1      46.297   8.517  12.667  0.00  0.00    +0.000 C 
ENDROOT
BRANCH   1   2
ATOM      2  C   UNL     1      45.716   7.156  12.272  0.00  0.00    +0.000 A 
ATOM      3  C   UNL     1      46.414   5.975  12.561  0.00  0.00    +0.000 A 
ATOM      4  C   UNL     1      45.889   4.725  12.205  0.00  0.00    +0.000 A 
ATOM      5  C   UNL     1      44.655   4.622  11.550  0.00  0.00    +0.000 A 
ATOM      6  C   UNL     1      43.943   5.797  11.282  0.00  0.00    +0.000 A 
ATOM      7  C   UNL     1      44.468   7.046  11.633  0.00  0.00    +0.000 A 
BRANCH   5   8
ATOM      8  C   UNL     1      44.099   3.276  11.155  0.00  0.00    +0.000 C 
BRANCH   8   9
ATOM      9  N   UNL     1      44.977   2.577  10.245  0.00  0.00    +0.000 N 
ATOM     10  C   UNL     1      45.100   2.974   8.932  0.00  0.00    +0.000 C 
ATOM     11  O   UNL     1      44.449   3.900   8.461  0.00  0.00    +0.000 OA
ATOM     12  H   UNL     1      45.585   1.864  10.619  0.00  0.00    +0.000 HD
BRANCH  10  13
ATOM     13  C   UNL     1      46.053   2.232   8.144  0.00  0.00    +0.000 A 
ATOM     14  C   UNL     1      46.324   0.889   8.008  0.00  0.00    +0.000 A 
ATOM     15  N   UNL     1      47.346   0.669   7.117  0.00  0.00    +0.000 NA
ATOM     16  C   UNL     1      47.703   1.862   6.703  0.00  0.00    +0.000 A 
ATOM     17  N   UNL     1      46.949   2.837   7.290  0.00  0.00    +0.000 N 
ATOM     18  H   UNL     1      47.027   3.833   7.135  0.00  0.00    +0.000 HD
ENDBRANCH  10  13
ENDBRANCH   8   9
ENDBRANCH   5   8
ENDBRANCH   1   2
BRANCH   1  19
ATOM     19  N   UNL     1      46.780   8.432  14.038  0.00  0.00    +0.000 N 
ATOM     20  C   UNL     1      48.081   8.656  14.410  0.00  0.00    +0.000 C 
ATOM     21  O   UNL     1      48.960   8.920  13.599  0.00  0.00    +0.000 OA
ATOM     22  H   UNL     1      46.078   8.313  14.757  0.00  0.00    +0.000 HD
BRANCH  20  23
ATOM     23  C   UNL     1      48.377   8.521  15.845  0.00  0.00    +0.000 A 
ATOM     24  C   UNL     1      48.423   9.656  16.643  0.00  0.00    +0.000 A 
ATOM     25  S   UNL     1      48.789   9.329  18.276  0.00  0.00    +0.000 S 
ATOM     26  C   UNL     1      48.860   7.656  17.983  0.00  0.00    +0.000 A 
ATOM     27  N   UNL     1      49.111   6.783  18.991  0.00  0.00    +0.000 NA
ATOM     28  C   UNL     1      49.088   5.537  18.646  0.00  0.00    +0.000 A 
ATOM     29  N   UNL     1      48.857   5.066  17.369  0.00  0.00    +0.000 N 
ATOM     30  C   UNL     1      48.661   5.938  16.303  0.00  0.00    +0.000 A 
ATOM     31  O   UNL     1      48.553   5.544  15.144  0.00  0.00    +0.000 OA
ATOM     32  C   UNL     1      48.631   7.348  16.656  0.00  0.00    +0.000 A 
BRANCH  29  33
ATOM     33  C   UNL     1      48.883   3.631  17.100  0.00  0.00    +0.000 C 
BRANCH  33  34
ATOM     34  C   UNL     1      47.816   2.869  17.886  0.00  0.00    +0.000 C 
BRANCH  34  35
ATOM     35  O   UNL     1      46.514   3.249  17.451  0.00  0.00    +0.000 OA
ATOM     36  H   UNL     1      46.510   3.233  16.477  0.00  0.00    +0.000 HD
ENDBRANCH  34  35
ENDBRANCH  33  34
ENDBRANCH  29  33
ENDBRANCH  20  23
ENDBRANCH   1  19
BRANCH   1  37
ATOM     37  C   UNL     1      45.274   9.679  12.479  0.00  0.00    +0.000 C 
BRANCH  37  38
ATOM     38  N   UNL     1      45.882  10.979  12.163  0.00  0.00    +0.000 NA
ATOM     39  H   UNL     1      45.769  11.601  12.961  0.00  0.00    +0.000 HD
ATOM     40  H   UNL     1      45.381  11.411  11.386  0.00  0.00    +0.000 HD
ENDBRANCH  37  38
ENDBRANCH   1  37
TORSDOF 11
ENDMDL
MODEL 2
REMARK VINA RESULT:    -7.352      4.521      9.406
REMARK INTER + INTRA:         -12.969
REMARK INTER:                 -12.388
REMARK INTRA:                  -0.581
REMARK UNBOUND:                -1.319
REMARK  Name = 
REMARK  11 active torsions:
REMARK  status: ('A' for Active; 'I' for Inactive)
REMARK    1  A    between atoms: N_1  and  C_2
REMARK    2  A    between atoms: C_2  and  C_3
REMARK    3  A    between atoms: C_3  and  N_4
REMARK    4  A    between atoms: C_3  and  C_20
REMARK    5  A    between atoms: C_5  and  C_7
REMARK    6  A    between atoms: N_13  and  C_14
REMARK    7  A    between atoms: C_14  and  C_15
REMARK    8  A    between atoms: C_15  and  O_16
REMARK    9  A    between atoms: C_23  and  C_24
REMARK   10  A    between atoms: C_24  and  N_25
REMARK   11  A    between atoms: C_26  and  C_28
REMARK                            x       y       z     vdW  Elec       q    Type
REMARK                         _______ _______ _______ _____ _____    ______ ____
ROOT
ATOM      1  C   UNL     1      47.909   4.383  17.562  0.00  0.00    +0.000 C 
ENDROOT
BRANCH   1   2
ATOM      2  C   UNL     1      49.343   3.846  17.591  0.00  0.00    +0.000 A 
ATOM      3  C   UNL     1      49.598   2.489  17.348  0.00  0.00    +0.000 A 
ATOM      4  C   UNL     1      50.908   1.988  17.370  0.00  0.00    +0.000 A 
ATOM      5  C   UNL     1      51.996   2.830  17.638  0.00  0.00    +0.000 A 
ATOM      6  C   UNL     1      51.748   4.190  17.857  0.00  0.00    +0.000 A 
ATOM      7  C   UNL     1      50.440   4.690  17.839  0.00  0.00    +0.000 A 
BRANCH   5   8
ATOM      8  C   UNL     1      53.402   2.286  17.676  0.00  0.00    +0.000 C 
BRANCH   8   9
ATOM      9  N   UNL     1      53.482   1.051  18.421  0.00  0.00    +0.000 N 
ATOM     10  C   UNL     1      53.915  -0.112  17.822  0.00  0.00    +0.000 C 
ATOM     11  O   UNL     1      54.210  -0.169  16.633  0.00  0.00    +0.000 OA
ATOM     12  H   UNL     1      53.324   1.080  19.416  0.00  0.00    +0.000 HD
BRANCH  10  13
ATOM     13  C   UNL     1      54.006  -1.261  18.688  0.00  0.00    +0.000 A 
ATOM     14  C   UNL     1      55.065  -1.961  19.221  0.00  0.00    +0.000 A 
ATOM     15  N   UNL     1      54.636  -3.004  20.005  0.00  0.00    +0.000 NA
ATOM     16  C   UNL     1      53.325  -2.951  19.961  0.00  0.00    +0.000 A 
ATOM     17  N   UNL     1      52.897  -1.914  19.183  0.00  0.00    +0.000 N 
ATOM     18  H   UNL     1      51.937  -1.659  18.995  0.00  0.00    +0.000 HD
ENDBRANCH  10  13
ENDBRANCH   8   9
ENDBRANCH   5   8
ENDBRANCH   1   2
BRANCH   1  19
ATOM     19  N   UNL     1      47.697   5.063  16.292  0.00  0.00    +0.000 N 
ATOM     20  C   UNL     1      47.405   4.421  15.116  0.00  0.00    +0.000 C 
ATOM     21  O   UNL     1      47.327   3.201  15.035  0.00  0.00    +0.000 OA
ATOM     22  H   UNL     1      47.654   6.073  16.324  0.00  0.00    +0.000 HD
BRANCH  20  23
ATOM     23  C   UNL     1      47.226   5.281  13.936  0.00  0.00    +0.000 A 
ATOM     24  C   UNL     1      47.921   6.480  13.852  0.00  0.00    +0.000 A 
ATOM     25  S   UNL     1      47.594   7.362  12.430  0.00  0.00    +0.000 S 
ATOM     26  C   UNL     1      46.543   6.154  11.856  0.00  0.00    +0.000 A 
ATOM     27  N   UNL     1      45.935   6.277  10.650  0.00  0.00    +0.000 NA
ATOM     28  C   UNL     1      45.202   5.267  10.308  0.00  0.00    +0.000 A 
ATOM     29  N   UNL     1      44.995   4.137  11.072  0.00  0.00    +0.000 N 
ATOM     30  C   UNL     1      45.552   4.010  12.340  0.00  0.00    +0.000 A 
ATOM     31  O   UNL     1      45.300   3.059  13.076  0.00  0.00    +0.000 OA
ATOM     32  C   UNL     1      46.423   5.102  12.743  0.00  0.00    +0.000 A 
BRANCH  29  33
ATOM     33  C   UNL     1      44.120   3.073  10.586  0.00  0.00    +0.000 C 
BRANCH  33  34
ATOM     34  C   UNL     1      44.476   2.626   9.167  0.00  0.00    +0.000 C 
BRANCH  34  35
ATOM     35  O   UNL     1      45.275   1.447   9.206  0.00  0.00    +0.000 OA
ATOM     36  H   UNL     1      45.541   1.298  10.131  0.00  0.00    +0.000 HD
ENDBRANCH  34  35
ENDBRANCH  33  34
ENDBRANCH  29  33
ENDBRANCH  20  23
ENDBRANCH   1  19
BRANCH   1  37
ATOM     37  C   UNL     1      47.593   5.305  18.779  0.00  0.00    +0.000 C 
BRANCH  37  38
ATOM     38  N   UNL     1      46.173   5.653  18.926  0.00  0.00    +0.000 NA
ATOM     39  H   UNL     1      45.801   5.187  19.752  0.00  0.00    +0.000 HD
ATOM     40  H   UNL     1      45.649   5.291  18.128  0.00  0.00    +0.000 HD
ENDBRANCH  37  38
ENDBRANCH   1  37
TORSDOF 11
ENDMDL
MODEL 3
REMARK VINA RESULT:    -7.205      4.558      8.037
REMARK INTER + INTRA:         -12.737
REMARK INTER:                 -11.937
REMARK INTRA:                  -0.800
REMARK UNBOUND:                -1.319
REMARK  Name = 
REMARK  11 active torsions:
REMARK  status: ('A' for Active; 'I' for Inactive)
REMARK    1  A    between atoms: N_1  and  C_2
REMARK    2  A    between atoms: C_2  and  C_3
REMARK    3  A    between atoms: C_3  and  N_4
REMARK    4  A    between atoms: C_3  and  C_20
REMARK    5  A    between atoms: C_5  and  C_7
REMARK    6  A    between atoms: N_13  and  C_14
REMARK    7  A    between atoms: C_14  and  C_15
REMARK    8  A    between atoms: C_15  and  O_16
REMARK    9  A    between atoms: C_23  and  C_24
REMARK   10  A    between atoms: C_24  and  N_25
REMARK   11  A    between atoms: C_26  and  C_28
REMARK                            x       y       z     vdW  Elec       q    Type
REMARK                         _______ _______ _______ _____ _____    ______ ____
ROOT
ATOM      1  C   UNL     1      45.962   8.149  12.372  0.00  0.00    +0.000 C 
ENDROOT
BRANCH   1   2
ATOM      2  C   UNL     1      47.464   8.340  12.140  0.00  0.00    +0.000 A 
ATOM      3  C   UNL     1      48.328   7.236  12.137  0.00  0.00    +0.000 A 
ATOM      4  C   UNL     1      49.704   7.401  11.924  0.00  0.00    +0.000 A 
ATOM      5  C   UNL     1      50.252   8.673  11.710  0.00  0.00    +0.000 A 
ATOM      6  C   UNL     1      49.390   9.775  11.687  0.00  0.00    +0.000 A 
ATOM      7  C   UNL     1      48.016   9.612  11.904  0.00  0.00    +0.000 A 
BRANCH   5   8
ATOM      8  C   UNL     1      51.735   8.849  11.496  0.00  0.00    +0.000 C 
BRANCH   8   9
ATOM      9  N   UNL     1      52.093   8.747  10.100  0.00  0.00    +0.000 N 
ATOM     10  C   UNL     1      52.602   7.577   9.581  0.00  0.00    +0.000 C 
ATOM     11  O   UNL     1      52.815   6.588  10.275  0.00  0.00    +0.000 OA
ATOM     12  H   UNL     1      51.857   9.513   9.487  0.00  0.00    +0.000 HD
BRANCH  10  13
ATOM     13  C   UNL     1      52.863   7.586   8.163  0.00  0.00    +0.000 A 
ATOM     14  C   UNL     1      52.913   6.599   7.205  0.00  0.00    +0.000 A 
ATOM     15  N   UNL     1      53.205   7.113   5.966  0.00  0.00    +0.000 NA
ATOM     16  C   UNL     1      53.332   8.407   6.152  0.00  0.00    +0.000 A 
ATOM     17  N   UNL     1      53.129   8.741   7.459  0.00  0.00    +0.000 N 
ATOM     18  H   UNL     1      53.167   9.671   7.856  0.00  0.00    +0.000 HD
ENDBRANCH  10  13
ENDBRANCH   8   9
ENDBRANCH   5   8
ENDBRANCH   1   2
BRANCH   1  19
ATOM     19  N   UNL     1      45.611   6.780  12.020  0.00  0.00    +0.000 N 
ATOM     20  C   UNL     1      44.395   6.406  11.508  0.00  0.00    +0.000 C 
ATOM     21  O   UNL     1      43.482   7.203  11.332  0.00  0.00    +0.000 OA
ATOM     22  H   UNL     1      46.360   6.101  12.054  0.00  0.00    +0.000 HD
BRANCH  20  23
ATOM     23  C   UNL     1      44.230   4.974  11.215  0.00  0.00    +0.000 A 
ATOM     24  C   UNL     1      43.427   4.196  12.039  0.00  0.00    +0.000 A 
ATOM     25  S   UNL     1      43.350   2.558  11.570  0.00  0.00    +0.000 S 
ATOM     26  C   UNL     1      44.354   2.838  10.226  0.00  0.00    +0.000 A 
ATOM     27  N   UNL     1      44.667   1.833   9.370  0.00  0.00    +0.000 NA
ATOM     28  C   UNL     1      45.395   2.188   8.362  0.00  0.00    +0.000 A 
ATOM     29  N   UNL     1      45.869   3.464   8.129  0.00  0.00    +0.000 N 
ATOM     30  C   UNL     1      45.619   4.501   9.022  0.00  0.00    +0.000 A 
ATOM     31  O   UNL     1      46.113   5.617   8.886  0.00  0.00    +0.000 OA
ATOM     32  C   UNL     1      44.763   4.155  10.145  0.00  0.00    +0.000 A 
BRANCH  29  33
ATOM     33  C   UNL     1      46.708   3.733   6.965  0.00  0.00    +0.000 C 
BRANCH  33  34
ATOM     34  C   UNL     1      47.349   2.465   6.400  0.00  0.00    +0.000 C 
BRANCH  34  35
ATOM     35  O   UNL     1      48.767   2.594   6.376  0.00  0.00    +0.000 OA
ATOM     36  H   UNL     1      48.981   3.541   6.462  0.00  0.00    +0.000 HD
ENDBRANCH  34  35
ENDBRANCH  33  34
ENDBRANCH  29  33
ENDBRANCH  20  23
ENDBRANCH   1  19
BRANCH   1  37
ATOM     37  C   UNL     1      45.102   9.192  11.593  0.00  0.00    +0.000 C 
BRANCH  37  38
ATOM     38  N   UNL     1      44.339  10.111  12.450  0.00  0.00    +0.000 NA
ATOM     39  H   UNL     1      44.611  11.068  12.234  0.00  0.00    +0.000 HD
ATOM     40  H   UNL     1      44.587   9.952  13.427  0.00  0.00    +0.000 HD
ENDBRANCH  37  38
ENDBRANCH   1  37
TORSDOF 11
ENDMDL
MODEL 4
REMARK VINA RESULT:    -6.527      2.287      3.091
REMARK INTER + INTRA:         -11.662
REMARK INTER:                 -10.290
REMARK INTRA:                  -1.373
REMARK UNBOUND:                -1.319
REMARK  Name = 
REMARK  11 active torsions:
REMARK  status: ('A' for Active; 'I' for Inactive)
REMARK    1  A    between atoms: N_1  and  C_2
REMARK    2  A    between atoms: C_2  and  C_3
REMARK    3  A    between atoms: C_3  and  N_4
REMARK    4  A    between atoms: C_3  and  C_20
REMARK    5  A    between atoms: C_5  and  C_7
REMARK    6  A    between atoms: N_13  and  C_14
REMARK    7  A    between atoms: C_14  and  C_15
REMARK    8  A    between atoms: C_15  and  O_16
REMARK    9  A    between atoms: C_23  and  C_24
REMARK   10  A    between atoms: C_24  and  N_25
REMARK   11  A    between atoms: C_26  and  C_28
REMARK                            x       y       z     vdW  Elec       q    Type
REMARK                         _______ _______ _______ _____ _____    ______ ____
ROOT
ATOM      1  C   UNL     1      49.404   9.595  13.646  0.00  0.00    +0.000 C 
ENDROOT
BRANCH   1   2
ATOM      2  C   UNL     1      48.236   8.812  13.038  0.00  0.00    +0.000 A 
ATOM      3  C   UNL     1      46.918   9.261  13.201  0.00  0.00    +0.000 A 
ATOM      4  C   UNL     1      45.843   8.552  12.646  0.00  0.00    +0.000 A 
ATOM      5  C   UNL     1      46.057   7.375  11.916  0.00  0.00    +0.000 A 
ATOM      6  C   UNL     1      47.373   6.937  11.729  0.00  0.00    +0.000 A 
ATOM      7  C   UNL     1      48.447   7.642  12.286  0.00  0.00    +0.000 A 
BRANCH   5   8
ATOM      8  C   UNL     1      44.898   6.606  11.332  0.00  0.00    +0.000 C 
BRANCH   8   9
ATOM      9  N   UNL     1      45.342   5.528  10.479  0.00  0.00    +0.000 N 
ATOM     10  C   UNL     1      44.508   4.475  10.174  0.00  0.00    +0.000 C 
ATOM     11  O   UNL     1      43.376   4.376  10.638  0.00  0.00    +0.000 OA
ATOM     12  H   UNL     1      46.234   5.618  10.018  0.00  0.00    +0.000 HD
BRANCH  10  13
ATOM     13  C   UNL     1      45.049   3.496   9.265  0.00  0.00    +0.000 A 
ATOM     14  C   UNL     1      45.637   3.582   8.023  0.00  0.00    +0.000 A 
ATOM     15  N   UNL     1      45.998   2.345   7.549  0.00  0.00    +0.000 NA
ATOM     16  C   UNL     1      45.639   1.499   8.487  0.00  0.00    +0.000 A 
ATOM     17  N   UNL     1      45.067   2.146   9.544  0.00  0.00    +0.000 N 
ATOM     18  H   UNL     1      44.713   1.720  10.391  0.00  0.00    +0.000 HD
ENDBRANCH  10  13
ENDBRANCH   8   9
ENDBRANCH   5   8
ENDBRANCH   1   2
BRANCH   1  19
ATOM     19  N   UNL     1      50.032   8.769  14.666  0.00  0.00    +0.000 N 
ATOM     20  C   UNL     1      51.260   8.174  14.525  0.00  0.00    +0.000 C 
ATOM     21  O   UNL     1      51.922   8.268  13.499  0.00  0.00    +0.000 OA
ATOM     22  H   UNL     1      49.573   8.739  15.567  0.00  0.00    +0.000 HD
BRANCH  20  23
ATOM     23  C   UNL     1      51.727   7.374  15.668  0.00  0.00    +0.000 A 
ATOM     24  C   UNL     1      53.055   7.461  16.065  0.00  0.00    +0.000 A 
ATOM     25  S   UNL     1      53.436   6.464  17.395  0.00  0.00    +0.000 S 
ATOM     26  C   UNL     1      51.832   5.912  17.513  0.00  0.00    +0.000 A 
ATOM     27  N   UNL     1      51.467   5.038  18.484  0.00  0.00    +0.000 NA
ATOM     28  C   UNL     1      50.209   4.736  18.496  0.00  0.00    +0.000 A 
ATOM     29  N   UNL     1      49.266   5.211  17.606  0.00  0.00    +0.000 N 
ATOM     30  C   UNL     1      49.622   6.057  16.561  0.00  0.00    +0.000 A 
ATOM     31  O   UNL     1      48.820   6.411  15.701  0.00  0.00    +0.000 OA
ATOM     32  C   UNL     1      51.019   6.459  16.540  0.00  0.00    +0.000 A 
BRANCH  29  33
ATOM     33  C   UNL     1      47.876   4.774  17.707  0.00  0.00    +0.000 C 
BRANCH  33  34
ATOM     34  C   UNL     1      47.745   3.250  17.751  0.00  0.00    +0.000 C 
BRANCH  34  35
ATOM     35  O   UNL     1      46.382   2.866  17.601  0.00  0.00    +0.000 OA
ATOM     36  H   UNL     1      46.146   2.307  18.363  0.00  0.00    +0.000 HD
ENDBRANCH  34  35
ENDBRANCH  33  34
ENDBRANCH  29  33
ENDBRANCH  20  23
ENDBRANCH   1  19
BRANCH   1  37
ATOM     37  C   UNL     1      48.963  10.983  14.205  0.00  0.00    +0.000 C 
BRANCH  37  38
ATOM     38  N   UNL     1      48.695  10.997  15.650  0.00  0.00    +0.000 NA
ATOM     39  H   UNL     1      47.693  10.898  15.802  0.00  0.00    +0.000 HD
ATOM     40  H   UNL     1      48.959  11.904  16.037  0.00  0.00    +0.000 HD
ENDBRANCH  37  38
ENDBRANCH   1  37
TORSDOF 11
ENDMDL
MODEL 5
REMARK VINA RESULT:    -6.444      1.899      2.531
REMARK INTER + INTRA:         -11.531
REMARK INTER:                 -10.197
REMARK INTRA:                  -1.334
REMARK UNBOUND:                -1.319
REMARK  Name = 
REMARK  11 active torsions:
REMARK  status: ('A' for Active; 'I' for Inactive)
REMARK    1  A    between atoms: N_1  and  C_2
REMARK    2  A    between atoms: C_2  and  C_3
REMARK    3  A    between atoms: C_3  and  N_4
REMARK    4  A    between atoms: C_3  and  C_20
REMARK    5  A    between atoms: C_5  and  C_7
REMARK    6  A    between atoms: N_13  and  C_14
REMARK    7  A    between atoms: C_14  and  C_15
REMARK    8  A    between atoms: C_15  and  O_16
REMARK    9  A    between atoms: C_23  and  C_24
REMARK   10  A    between atoms: C_24  and  N_25
REMARK   11  A    between atoms: C_26  and  C_28
REMARK                            x       y       z     vdW  Elec       q    Type
REMARK                         _______ _______ _______ _____ _____    ______ ____
ROOT
ATOM      1  C   UNL     1      49.112   9.281  14.080  0.00  0.00    +0.000 C 
ENDROOT
BRANCH   1   2
ATOM      2  C   UNL     1      48.004   8.568  13.297  0.00  0.00    +0.000 A 
ATOM      3  C   UNL     1      48.273   7.373  12.616  0.00  0.00    +0.000 A 
ATOM      4  C   UNL     1      47.265   6.712  11.899  0.00  0.00    +0.000 A 
ATOM      5  C   UNL     1      45.964   7.229  11.844  0.00  0.00    +0.000 A 
ATOM      6  C   UNL     1      45.685   8.408  12.543  0.00  0.00    +0.000 A 
ATOM      7  C   UNL     1      46.692   9.071  13.256  0.00  0.00    +0.000 A 
BRANCH   5   8
ATOM      8  C   UNL     1      44.885   6.523  11.060  0.00  0.00    +0.000 C 
BRANCH   8   9
ATOM      9  N   UNL     1      45.426   5.486  10.212  0.00  0.00    +0.000 N 
ATOM     10  C   UNL     1      44.689   4.364   9.905  0.00  0.00    +0.000 C 
ATOM     11  O   UNL     1      43.568   4.167  10.364  0.00  0.00    +0.000 OA
ATOM     12  H   UNL     1      46.310   5.653   9.755  0.00  0.00    +0.000 HD
BRANCH  10  13
ATOM     13  C   UNL     1      45.319   3.433   9.002  0.00  0.00    +0.000 A 
ATOM     14  C   UNL     1      45.373   2.059   8.948  0.00  0.00    +0.000 A 
ATOM     15  N   UNL     1      46.113   1.626   7.875  0.00  0.00    +0.000 NA
ATOM     16  C   UNL     1      46.511   2.719   7.268  0.00  0.00    +0.000 A 
ATOM     17  N   UNL     1      46.054   3.835   7.907  0.00  0.00    +0.000 N 
ATOM     18  H   UNL     1      46.220   4.795   7.635  0.00  0.00    +0.000 HD
ENDBRANCH  10  13
ENDBRANCH   8   9
ENDBRANCH   5   8
ENDBRANCH   1   2
BRANCH   1  19
ATOM     19  N   UNL     1      49.143   8.740  15.431  0.00  0.00    +0.000 N 
ATOM     20  C   UNL     1      50.283   8.616  16.183  0.00  0.00    +0.000 C 
ATOM     21  O   UNL     1      51.389   8.927  15.757  0.00  0.00    +0.000 OA
ATOM     22  H   UNL     1      48.247   8.559  15.865  0.00  0.00    +0.000 HD
BRANCH  20  23
ATOM     23  C   UNL     1      50.113   8.045  17.528  0.00  0.00    +0.000 A 
ATOM     24  C   UNL     1      50.379   8.830  18.642  0.00  0.00    +0.000 A 
ATOM     25  S   UNL     1      50.144   8.017  20.122  0.00  0.00    +0.000 S 
ATOM     26  C   UNL     1      49.640   6.600  19.328  0.00  0.00    +0.000 A 
ATOM     27  N   UNL     1      49.258   5.506  20.033  0.00  0.00    +0.000 NA
ATOM     28  C   UNL     1      48.850   4.513  19.312  0.00  0.00    +0.000 A 
ATOM     29  N   UNL     1      48.802   4.494  17.933  0.00  0.00    +0.000 N 
ATOM     30  C   UNL     1      49.247   5.577  17.181  0.00  0.00    +0.000 A 
ATOM     31  O   UNL     1      49.307   5.543  15.955  0.00  0.00    +0.000 OA
ATOM     32  C   UNL     1      49.671   6.733  17.954  0.00  0.00    +0.000 A 
BRANCH  29  33
ATOM     33  C   UNL     1      48.345   3.298  17.230  0.00  0.00    +0.000 C 
BRANCH  33  34
ATOM     34  C   UNL     1      49.432   2.227  17.130  0.00  0.00    +0.000 C 
BRANCH  34  35
ATOM     35  O   UNL     1      49.579   1.795  15.781  0.00  0.00    +0.000 OA
ATOM     36  H   UNL     1      49.621   2.588  15.217  0.00  0.00    +0.000 HD
ENDBRANCH  34  35
ENDBRANCH  33  34
ENDBRANCH  29  33
ENDBRANCH  20  23
ENDBRANCH   1  19
BRANCH   1  37
ATOM     37  C   UNL     1      48.942  10.831  14.073  0.00  0.00    +0.000 C 
BRANCH  37  38
ATOM     38  N   UNL     1      48.565  11.407  15.371  0.00  0.00    +0.000 NA
ATOM     39  H   UNL     1      49.018  10.876  16.113  0.00  0.00    +0.000 HD
ATOM     40  H   UNL     1      47.560  11.302  15.512  0.00  0.00    +0.000 HD
ENDBRANCH  37  38
ENDBRANCH   1  37
TORSDOF 11
ENDMDL
MODEL 6
REMARK VINA RESULT:    -6.052      2.968      4.564
REMARK INTER + INTRA:         -10.909
REMARK INTER:                  -8.976
REMARK INTRA:                  -1.934
REMARK UNBOUND:                -1.319
REMARK  Name = 
REMARK  11 active torsions:
REMARK  status: ('A' for Active; 'I' for Inactive)
REMARK    1  A    between atoms: N_1  and  C_2
REMARK    2  A    between atoms: C_2  and  C_3
REMARK    3  A    between atoms: C_3  and  N_4
REMARK    4  A    between atoms: C_3  and  C_20
REMARK    5  A    between atoms: C_5  and  C_7
REMARK    6  A    between atoms: N_13  and  C_14
REMARK    7  A    between atoms: C_14  and  C_15
REMARK    8  A    between atoms: C_15  and  O_16
REMARK    9  A    between atoms: C_23  and  C_24
REMARK   10  A    between atoms: C_24  and  N_25
REMARK   11  A    between atoms: C_26  and  C_28
REMARK                            x       y       z     vdW  Elec       q    Type
REMARK                         _______ _______ _______ _____ _____    ______ ____
ROOT
ATOM      1  C   UNL     1      51.319   8.323  14.184  0.00  0.00    +0.000 C 
ENDROOT
BRANCH   1   2
ATOM      2  C   UNL     1      49.917   8.278  13.568  0.00  0.00    +0.000 A 
ATOM      3  C   UNL     1      49.745   7.934  12.220  0.00  0.00    +0.000 A 
ATOM      4  C   UNL     1      48.465   7.888  11.648  0.00  0.00    +0.000 A 
ATOM      5  C   UNL     1      47.326   8.188  12.407  0.00  0.00    +0.000 A 
ATOM      6  C   UNL     1      47.492   8.508  13.760  0.00  0.00    +0.000 A 
ATOM      7  C   UNL     1      48.769   8.558  14.330  0.00  0.00    +0.000 A 
BRANCH   5   8
ATOM      8  C   UNL     1      45.952   8.152  11.786  0.00  0.00    +0.000 C 
BRANCH   8   9
ATOM      9  N   UNL     1      45.251   6.929  12.098  0.00  0.00    +0.000 N 
ATOM     10  C   UNL     1      45.292   5.849  11.243  0.00  0.00    +0.000 C 
ATOM     11  O   UNL     1      45.881   5.884  10.168  0.00  0.00    +0.000 OA
ATOM     12  H   UNL     1      44.825   6.839  13.008  0.00  0.00    +0.000 HD
BRANCH  10  13
ATOM     13  C   UNL     1      44.601   4.668  11.698  0.00  0.00    +0.000 A 
ATOM     14  C   UNL     1      44.540   4.017  12.909  0.00  0.00    +0.000 A 
ATOM     15  N   UNL     1      43.729   2.910  12.846  0.00  0.00    +0.000 NA
ATOM     16  C   UNL     1      43.288   2.877  11.610  0.00  0.00    +0.000 A 
ATOM     17  N   UNL     1      43.782   3.919  10.880  0.00  0.00    +0.000 N 
ATOM     18  H   UNL     1      43.589   4.118   9.907  0.00  0.00    +0.000 HD
ENDBRANCH  10  13
ENDBRANCH   8   9
ENDBRANCH   5   8
ENDBRANCH   1   2
BRANCH   1  19
ATOM     19  N   UNL     1      51.255   7.744  15.519  0.00  0.00    +0.000 N 
ATOM     20  C   UNL     1      52.280   7.046  16.103  0.00  0.00    +0.000 C 
ATOM     21  O   UNL     1      53.338   6.824  15.527  0.00  0.00    +0.000 OA
ATOM     22  H   UNL     1      50.442   7.980  16.073  0.00  0.00    +0.000 HD
BRANCH  20  23
ATOM     23  C   UNL     1      52.025   6.536  17.460  0.00  0.00    +0.000 A 
ATOM     24  C   UNL     1      52.974   6.734  18.454  0.00  0.00    +0.000 A 
ATOM     25  S   UNL     1      52.532   6.073  19.962  0.00  0.00    +0.000 S 
ATOM     26  C   UNL     1      51.039   5.535  19.351  0.00  0.00    +0.000 A 
ATOM     27  N   UNL     1      50.148   4.900  20.153  0.00  0.00    +0.000 NA
ATOM     28  C   UNL     1      49.031   4.587  19.580  0.00  0.00    +0.000 A 
ATOM     29  N   UNL     1      48.717   4.830  18.257  0.00  0.00    +0.000 N 
ATOM     30  C   UNL     1      49.634   5.421  17.395  0.00  0.00    +0.000 A 
ATOM     31  O   UNL     1      49.414   5.555  16.194  0.00  0.00    +0.000 OA
ATOM     32  C   UNL     1      50.886   5.832  18.011  0.00  0.00    +0.000 A 
BRANCH  29  33
ATOM     33  C   UNL     1      47.429   4.403  17.719  0.00  0.00    +0.000 C 
BRANCH  33  34
ATOM     34  C   UNL     1      47.488   3.004  17.102  0.00  0.00    +0.000 C 
BRANCH  34  35
ATOM     35  O   UNL     1      47.744   3.090  15.703  0.00  0.00    +0.000 OA
ATOM     36  H   UNL     1      46.992   3.554  15.291  0.00  0.00    +0.000 HD
ENDBRANCH  34  35
ENDBRANCH  33  34
ENDBRANCH  29  33
ENDBRANCH  20  23
ENDBRANCH   1  19
BRANCH   1  37
ATOM     37  C   UNL     1      51.919   9.762  14.199  0.00  0.00    +0.000 C 
BRANCH  37  38
ATOM     38  N   UNL     1      53.387   9.809  14.221  0.00  0.00    +0.000 NA
ATOM     39  H   UNL     1      53.684  10.631  14.743  0.00  0.00    +0.000 HD
ATOM     40  H   UNL     1      53.739   9.926  13.270  0.00  0.00    +0.000 HD
ENDBRANCH  37  38
ENDBRANCH   1  37
TORSDOF 11
ENDMDL
MODEL 7
REMARK VINA RESULT:    -5.573      5.254      7.123
REMARK INTER + INTRA:         -10.151
REMARK INTER:                  -9.015
REMARK INTRA:                  -1.136
REMARK UNBOUND:                -1.319
REMARK  Name = 
REMARK  11 active torsions:
REMARK  status: ('A' for Active; 'I' for Inactive)
REMARK    1  A    between atoms: N_1  and  C_2
REMARK    2  A    between atoms: C_2  and  C_3
REMARK    3  A    between atoms: C_3  and  N_4
REMARK    4  A    between atoms: C_3  and  C_20
REMARK    5  A    between atoms: C_5  and  C_7
REMARK    6  A    between atoms: N_13  and  C_14
REMARK    7  A    between atoms: C_14  and  C_15
REMARK    8  A    between atoms: C_15  and  O_16
REMARK    9  A    between atoms: C_23  and  C_24
REMARK   10  A    between atoms: C_24  and  N_25
REMARK   11  A    between atoms: C_26  and  C_28
REMARK                            x       y       z     vdW  Elec       q    Type
REMARK                         _______ _______ _______ _____ _____    ______ ____
ROOT
ATOM      1  C   UNL     1      51.060   8.451  12.896  0.00  0.00    +0.000 C 
ENDROOT
BRANCH   1   2
ATOM      2  C   UNL     1      51.887   8.138  11.645  0.00  0.00    +0.000 A 
ATOM      3  C   UNL     1      51.305   7.470  10.558  0.00  0.00    +0.000 A 
ATOM      4  C   UNL     1      52.053   7.183   9.408  0.00  0.00    +0.000 A 
ATOM      5  C   UNL     1      53.402   7.553   9.314  0.00  0.00    +0.000 A 
ATOM      6  C   UNL     1      53.979   8.243  10.387  0.00  0.00    +0.000 A 
ATOM      7  C   UNL     1      53.234   8.526  11.538  0.00  0.00    +0.000 A 
BRANCH   5   8
ATOM      8  C   UNL     1      54.208   7.229   8.082  0.00  0.00    +0.000 C 
BRANCH   8   9
ATOM      9  N   UNL     1      54.494   5.816   7.981  0.00  0.00    +0.000 N 
ATOM     10  C   UNL     1      53.886   5.035   7.024  0.00  0.00    +0.000 C 
ATOM     11  O   UNL     1      53.049   5.481   6.246  0.00  0.00    +0.000 OA
ATOM     12  H   UNL     1      55.234   5.435   8.551  0.00  0.00    +0.000 HD
BRANCH  10  13
ATOM     13  C   UNL     1      54.301   3.655   6.990  0.00  0.00    +0.000 A 
ATOM     14  C   UNL     1      55.496   3.021   7.250  0.00  0.00    +0.000 A 
ATOM     15  N   UNL     1      55.393   1.663   7.077  0.00  0.00    +0.000 NA
ATOM     16  C   UNL     1      54.149   1.455   6.716  0.00  0.00    +0.000 A 
ATOM     17  N   UNL     1      53.449   2.625   6.654  0.00  0.00    +0.000 N 
ATOM     18  H   UNL     1      52.474   2.732   6.405  0.00  0.00    +0.000 HD
ENDBRANCH  10  13
ENDBRANCH   8   9
ENDBRANCH   5   8
ENDBRANCH   1   2
BRANCH   1  19
ATOM     19  N   UNL     1      49.652   8.482  12.523  0.00  0.00    +0.000 N 
ATOM     20  C   UNL     1      48.630   8.086  13.347  0.00  0.00    +0.000 C 
ATOM     21  O   UNL     1      48.827   7.637  14.470  0.00  0.00    +0.000 OA
ATOM     22  H   UNL     1      49.429   8.933  11.645  0.00  0.00    +0.000 HD
BRANCH  20  23
ATOM     23  C   UNL     1      47.272   8.190  12.790  0.00  0.00    +0.000 A 
ATOM     24  C   UNL     1      46.740   9.443  12.517  0.00  0.00    +0.000 A 
ATOM     25  S   UNL     1      45.156   9.391  11.888  0.00  0.00    +0.000 S 
ATOM     26  C   UNL     1      45.140   7.691  11.920  0.00  0.00    +0.000 A 
ATOM     27  N   UNL     1      44.062   6.997  11.477  0.00  0.00    +0.000 NA
ATOM     28  C   UNL     1      44.196   5.711  11.507  0.00  0.00    +0.000 A 
ATOM     29  N   UNL     1      45.310   5.035  11.964  0.00  0.00    +0.000 N 
ATOM     30  C   UNL     1      46.405   5.717  12.484  0.00  0.00    +0.000 A 
ATOM     31  O   UNL     1      47.363   5.135  12.986  0.00  0.00    +0.000 OA
ATOM     32  C   UNL     1      46.314   7.167  12.424  0.00  0.00    +0.000 A 
BRANCH  29  33
ATOM     33  C   UNL     1      45.330   3.574  11.972  0.00  0.00    +0.000 C 
BRANCH  33  34
ATOM     34  C   UNL     1      43.988   2.970  11.555  0.00  0.00    +0.000 C 
BRANCH  34  35
ATOM     35  O   UNL     1      43.483   2.127  12.586  0.00  0.00    +0.000 OA
ATOM     36  H   UNL     1      43.228   1.279  12.179  0.00  0.00    +0.000 HD
ENDBRANCH  34  35
ENDBRANCH  33  34
ENDBRANCH  29  33
ENDBRANCH  20  23
ENDBRANCH   1  19
BRANCH   1  37
ATOM     37  C   UNL     1      51.510   9.771  13.594  0.00  0.00    +0.000 C 
BRANCH  37  38
ATOM     38  N   UNL     1      51.116  10.997  12.886  0.00  0.00    +0.000 NA
ATOM     39  H   UNL     1      50.657  11.626  13.542  0.00  0.00    +0.000 HD
ATOM     40  H   UNL     1      50.425  10.771  12.170  0.00  0.00    +0.000 HD
ENDBRANCH  37  38
ENDBRANCH   1  37
TORSDOF 11
ENDMDL
MODEL 8
REMARK VINA RESULT:    -5.444      3.607      9.144
REMARK INTER + INTRA:          -9.945
REMARK INTER:                  -8.793
REMARK INTRA:                  -1.152
REMARK UNBOUND:                -1.319
REMARK  Name = 
REMARK  11 active torsions:
REMARK  status: ('A' for Active; 'I' for Inactive)
REMARK    1  A    between atoms: N_1  and  C_2
REMARK    2  A    between atoms: C_2  and  C_3
REMARK    3  A    between atoms: C_3  and  N_4
REMARK    4  A    between atoms: C_3  and  C_20
REMARK    5  A    between atoms: C_5  and  C_7
REMARK    6  A    between atoms: N_13  and  C_14
REMARK    7  A    between atoms: C_14  and  C_15
REMARK    8  A    between atoms: C_15  and  O_16
REMARK    9  A    between atoms: C_23  and  C_24
REMARK   10  A    between atoms: C_24  and  N_25
REMARK   11  A    between atoms: C_26  and  C_28
REMARK                            x       y       z     vdW  Elec       q    Type
REMARK                         _______ _______ _______ _____ _____    ______ ____
ROOT
ATOM      1  C   UNL     1      46.966   4.967  13.864  0.00  0.00    +0.000 C 
ENDROOT
BRANCH   1   2
ATOM      2  C   UNL     1      47.459   4.810  15.305  0.00  0.00    +0.000 A 
ATOM      3  C   UNL     1      48.240   5.810  15.902  0.00  0.00    +0.000 A 
ATOM      4  C   UNL     1      48.694   5.676  17.221  0.00  0.00    +0.000 A 
ATOM      5  C   UNL     1      48.382   4.539  17.978  0.00  0.00    +0.000 A 
ATOM      6  C   UNL     1      47.583   3.549  17.396  0.00  0.00    +0.000 A 
ATOM      7  C   UNL     1      47.132   3.680  16.076  0.00  0.00    +0.000 A 
BRANCH   5   8
ATOM      8  C   UNL     1      48.885   4.391  19.393  0.00  0.00    +0.000 C 
BRANCH   8   9
ATOM      9  N   UNL     1      50.324   4.272  19.444  0.00  0.00    +0.000 N 
ATOM     10  C   UNL     1      51.082   5.147  20.189  0.00  0.00    +0.000 C 
ATOM     11  O   UNL     1      50.589   6.086  20.805  0.00  0.00    +0.000 OA
ATOM     12  H   UNL     1      50.754   3.466  19.015  0.00  0.00    +0.000 HD
BRANCH  10  13
ATOM     13  C   UNL     1      52.500   4.885  20.204  0.00  0.00    +0.000 A 
ATOM     14  C   UNL     1      53.247   3.728  20.208  0.00  0.00    +0.000 A 
ATOM     15  N   UNL     1      54.594   3.998  20.224  0.00  0.00    +0.000 NA
ATOM     16  C   UNL     1      54.682   5.307  20.228  0.00  0.00    +0.000 A 
ATOM     17  N   UNL     1      53.446   5.887  20.211  0.00  0.00    +0.000 N 
ATOM     18  H   UNL     1      53.246   6.879  20.206  0.00  0.00    +0.000 HD
ENDBRANCH  10  13
ENDBRANCH   8   9
ENDBRANCH   5   8
ENDBRANCH   1   2
BRANCH   1  19
ATOM     19  N   UNL     1      46.868   6.388  13.562  0.00  0.00    +0.000 N 
ATOM     20  C   UNL     1      47.814   7.092  12.862  0.00  0.00    +0.000 C 
ATOM     21  O   UNL     1      48.848   6.577  12.454  0.00  0.00    +0.000 OA
ATOM     22  H   UNL     1      45.991   6.838  13.791  0.00  0.00    +0.000 HD
BRANCH  20  23
ATOM     23  C   UNL     1      47.538   8.522  12.658  0.00  0.00    +0.000 A 
ATOM     24  C   UNL     1      48.518   9.458  12.961  0.00  0.00    +0.000 A 
ATOM     25  S   UNL     1      48.035  11.069  12.680  0.00  0.00    +0.000 S 
ATOM     26  C   UNL     1      46.514  10.571  12.105  0.00  0.00    +0.000 A 
ATOM     27  N   UNL     1      45.606  11.478  11.665  0.00  0.00    +0.000 NA
ATOM     28  C   UNL     1      44.509  10.968  11.208  0.00  0.00    +0.000 A 
ATOM     29  N   UNL     1      44.213   9.620  11.164  0.00  0.00    +0.000 N 
ATOM     30  C   UNL     1      45.097   8.671  11.666  0.00  0.00    +0.000 A 
ATOM     31  O   UNL     1      44.812   7.478  11.728  0.00  0.00    +0.000 OA
ATOM     32  C   UNL     1      46.363   9.199  12.147  0.00  0.00    +0.000 A 
BRANCH  29  33
ATOM     33  C   UNL     1      42.924   9.169  10.646  0.00  0.00    +0.000 C 
BRANCH  33  34
ATOM     34  C   UNL     1      41.781  10.113  11.021  0.00  0.00    +0.000 C 
BRANCH  34  35
ATOM     35  O   UNL     1      40.634   9.369  11.420  0.00  0.00    +0.000 OA
ATOM     36  H   UNL     1      40.943   8.593  11.922  0.00  0.00    +0.000 HD
ENDBRANCH  34  35
ENDBRANCH  33  34
ENDBRANCH  29  33
ENDBRANCH  20  23
ENDBRANCH   1  19
BRANCH   1  37
ATOM     37  C   UNL     1      45.620   4.221  13.610  0.00  0.00    +0.000 C 
BRANCH  37  38
ATOM     38  N   UNL     1      45.749   2.983  12.829  0.00  0.00    +0.000 NA
ATOM     39  H   UNL     1      44.991   2.939  12.151  0.00  0.00    +0.000 HD
ATOM     40  H   UNL     1      45.634   2.177  13.446  0.00  0.00    +0.000 HD
ENDBRANCH  37  38
ENDBRANCH   1  37
TORSDOF 11
ENDMDL
MODEL 9
REMARK VINA RESULT:    -5.422      5.010      9.641
REMARK INTER + INTRA:          -9.910
REMARK INTER:                  -9.152
REMARK INTRA:                  -0.759
REMARK UNBOUND:                -1.319
REMARK  Name = 
REMARK  11 active torsions:
REMARK  status: ('A' for Active; 'I' for Inactive)
REMARK    1  A    between atoms: N_1  and  C_2
REMARK    2  A    between atoms: C_2  and  C_3
REMARK    3  A    between atoms: C_3  and  N_4
REMARK    4  A    between atoms: C_3  and  C_20
REMARK    5  A    between atoms: C_5  and  C_7
REMARK    6  A    between atoms: N_13  and  C_14
REMARK    7  A    between atoms: C_14  and  C_15
REMARK    8  A    between atoms: C_15  and  O_16
REMARK    9  A    between atoms: C_23  and  C_24
REMARK   10  A    between atoms: C_24  and  N_25
REMARK   11  A    between atoms: C_26  and  C_28
REMARK                            x       y       z     vdW  Elec       q    Type
REMARK                         _______ _______ _______ _____ _____    ______ ____
ROOT
ATOM      1  C   UNL     1      48.774   4.429  17.950  0.00  0.00    +0.000 C 
ENDROOT
BRANCH   1   2
ATOM      2  C   UNL     1      50.070   3.615  17.868  0.00  0.00    +0.000 A 
ATOM      3  C   UNL     1      50.058   2.313  17.349  0.00  0.00    +0.000 A 
ATOM      4  C   UNL     1      51.239   1.561  17.267  0.00  0.00    +0.000 A 
ATOM      5  C   UNL     1      52.461   2.091  17.703  0.00  0.00    +0.000 A 
ATOM      6  C   UNL     1      52.482   3.400  18.198  0.00  0.00    +0.000 A 
ATOM      7  C   UNL     1      51.302   4.149  18.284  0.00  0.00    +0.000 A 
BRANCH   5   8
ATOM      8  C   UNL     1      53.728   1.275  17.628  0.00  0.00    +0.000 C 
BRANCH   8   9
ATOM      9  N   UNL     1      53.700   0.152  18.536  0.00  0.00    +0.000 N 
ATOM     10  C   UNL     1      54.266  -1.055  18.191  0.00  0.00    +0.000 C 
ATOM     11  O   UNL     1      54.779  -1.251  17.094  0.00  0.00    +0.000 OA
ATOM     12  H   UNL     1      53.359   0.303  19.474  0.00  0.00    +0.000 HD
BRANCH  10  13
ATOM     13  C   UNL     1      54.225  -2.075  19.209  0.00  0.00    +0.000 A 
ATOM     14  C   UNL     1      55.150  -2.981  19.677  0.00  0.00    +0.000 A 
ATOM     15  N   UNL     1      54.628  -3.763  20.678  0.00  0.00    +0.000 NA
ATOM     16  C   UNL     1      53.393  -3.345  20.832  0.00  0.00    +0.000 A 
ATOM     17  N   UNL     1      53.105  -2.326  19.972  0.00  0.00    +0.000 N 
ATOM     18  H   UNL     1      52.225  -1.832  19.897  0.00  0.00    +0.000 HD
ENDBRANCH  10  13
ENDBRANCH   8   9
ENDBRANCH   5   8
ENDBRANCH   1   2
BRANCH   1  19
ATOM     19  N   UNL     1      48.395   4.831  16.603  0.00  0.00    +0.000 N 
ATOM     20  C   UNL     1      47.246   4.424  15.975  0.00  0.00    +0.000 C 
ATOM     21  O   UNL     1      46.449   3.654  16.496  0.00  0.00    +0.000 OA
ATOM     22  H   UNL     1      48.969   5.541  16.167  0.00  0.00    +0.000 HD
BRANCH  20  23
ATOM     23  C   UNL     1      47.037   4.936  14.611  0.00  0.00    +0.000 A 
ATOM     24  C   UNL     1      46.020   4.406  13.830  0.00  0.00    +0.000 A 
ATOM     25  S   UNL     1      45.920   5.098  12.275  0.00  0.00    +0.000 S 
ATOM     26  C   UNL     1      47.207   6.160  12.605  0.00  0.00    +0.000 A 
ATOM     27  N   UNL     1      47.618   7.062  11.679  0.00  0.00    +0.000 NA
ATOM     28  C   UNL     1      48.571   7.844  12.072  0.00  0.00    +0.000 A 
ATOM     29  N   UNL     1      49.180   7.801  13.310  0.00  0.00    +0.000 N 
ATOM     30  C   UNL     1      48.825   6.845  14.256  0.00  0.00    +0.000 A 
ATOM     31  O   UNL     1      49.420   6.725  15.323  0.00  0.00    +0.000 OA
ATOM     32  C   UNL     1      47.723   5.976  13.872  0.00  0.00    +0.000 A 
BRANCH  29  33
ATOM     33  C   UNL     1      50.268   8.723  13.625  0.00  0.00    +0.000 C 
BRANCH  33  34
ATOM     34  C   UNL     1      51.553   8.392  12.866  0.00  0.00    +0.000 C 
BRANCH  34  35
ATOM     35  O   UNL     1      52.531   7.858  13.754  0.00  0.00    +0.000 OA
ATOM     36  H   UNL     1      53.369   7.783  13.263  0.00  0.00    +0.000 HD
ENDBRANCH  34  35
ENDBRANCH  33  34
ENDBRANCH  29  33
ENDBRANCH  20  23
ENDBRANCH   1  19
BRANCH   1  37
ATOM     37  C   UNL     1      48.899   5.651  18.912  0.00  0.00    +0.000 C 
BRANCH  37  38
ATOM     38  N   UNL     1      48.447   5.391  20.286  0.00  0.00    +0.000 NA
ATOM     39  H   UNL     1      47.432   5.458  20.320  0.00  0.00    +0.000 HD
ATOM     40  H   UNL     1      48.807   6.117  20.906  0.00  0.00    +0.000 HD
ENDBRANCH  37  38
ENDBRANCH   1  37
TORSDOF 11
ENDMDL
