MODEL 1
REMARK VINA RESULT:    -8.063      0.000      0.000
REMARK INTER + INTRA:         -11.726
REMARK INTER:                 -10.891
REMARK INTRA:                  -0.835
REMARK UNBOUND:                -0.835
REMARK  Name = 
REMARK  6 active torsions:
REMARK  status: ('A' for Active; 'I' for Inactive)
REMARK    1  A    between atoms: C_2  and  C_25
REMARK    2  A    between atoms: N_3  and  C_4
REMARK    3  A    between atoms: C_4  and  C_5
REMARK    4  A    between atoms: C_8  and  C_9
REMARK    5  A    between atoms: C_9  and  N_10
REMARK    6  A    between atoms: C_11  and  C_13
REMARK                            x       y       z     vdW  Elec       q    Type
REMARK                         _______ _______ _______ _____ _____    ______ ____
ROOT
ATOM      1  C   UNL     1      44.842   6.019  11.171  0.00  0.00    +0.000 A 
ATOM      2  C   UNL     1      44.501   7.351  11.391  0.00  0.00    +0.000 A 
ATOM      3  C   UNL     1      45.299   8.125  12.233  0.00  0.00    +0.000 A 
ATOM      4  C   UNL     1      46.411   7.555  12.856  0.00  0.00    +0.000 A 
ATOM      5  C   UNL     1      46.672   6.218  12.584  0.00  0.00    +0.000 A 
ATOM      6  N   UNL     1      45.914   5.442  11.772  0.00  0.00    +0.000 NA
ENDROOT
BRANCH   1   7
ATOM      7  C   UNL     1      44.055   5.177  10.196  0.00  0.00    +0.000 C 
BRANCH   7  10
ATOM      8  O   UNL     1      44.977   2.571  10.111  0.00  0.00    +0.000 OA
ATOM      9  C   UNL     1      45.204   3.297   9.146  0.00  0.00    +0.000 C 
ATOM     10  N   UNL     1      44.831   4.628   9.104  0.00  0.00    +0.000 N 
ATOM     11  H   UNL     1      44.906   5.123   8.220  0.00  0.00    +0.000 HD
BRANCH   9  12
ATOM     12  C   UNL     1      45.916   2.760   7.955  0.00  0.00    +0.000 A 
ATOM     13  C   UNL     1      46.425   1.467   7.994  0.00  0.00    +0.000 A 
ATOM     14  N   UNL     1      47.127   0.926   6.969  0.00  0.00    +0.000 NA
ATOM     15  C   UNL     1      47.298   1.738   5.901  0.00  0.00    +0.000 A 
ATOM     16  C   UNL     1      46.782   3.028   5.855  0.00  0.00    +0.000 A 
ATOM     17  N   UNL     1      46.074   3.574   6.874  0.00  0.00    +0.000 NA
ENDBRANCH   9  12
ENDBRANCH   7  10
ENDBRANCH   1   7
BRANCH   4  18
ATOM     18  C   UNL     1      47.308   8.356  13.754  0.00  0.00    +0.000 C 
BRANCH  18  19
ATOM     19  N   UNL     1      47.697   7.610  14.926  0.00  0.00    +0.000 N 
ATOM     20  C   UNL     1      48.901   6.947  14.969  0.00  0.00    +0.000 C 
ATOM     21  O   UNL     1      49.706   7.012  14.043  0.00  0.00    +0.000 OA
ATOM     22  H   UNL     1      46.968   7.361  15.588  0.00  0.00    +0.000 HD
BRANCH  20  23
ATOM     23  C   UNL     1      49.208   6.206  16.198  0.00  0.00    +0.000 A 
ATOM     24  C   UNL     1      50.263   6.618  17.001  0.00  0.00    +0.000 A 
ATOM     25  S   UNL     1      50.459   5.681  18.413  0.00  0.00    +0.000 S 
ATOM     26  C   UNL     1      49.172   4.658  17.976  0.00  0.00    +0.000 A 
ATOM     27  N   UNL     1      48.821   3.603  18.761  0.00  0.00    +0.000 NA
ATOM     28  C   UNL     1      47.852   2.890  18.294  0.00  0.00    +0.000 A 
ATOM     29  N   UNL     1      47.195   3.141  17.117  0.00  0.00    +0.000 N 
ATOM     30  C   UNL     1      47.492   4.212  16.309  0.00  0.00    +0.000 A 
ATOM     31  O   UNL     1      46.857   4.433  15.282  0.00  0.00    +0.000 OA
ATOM     32  C   UNL     1      48.589   5.038  16.780  0.00  0.00    +0.000 A 
ATOM     33  H   UNL     1      46.438   2.546  16.813  0.00  0.00    +0.000 HD
ENDBRANCH  20  23
ENDBRANCH  18  19
ENDBRANCH   4  18
TORSDOF 6
ENDMDL
MODEL 2
REMARK VINA RESULT:    -7.794      1.981      2.148
REMARK INTER + INTRA:         -11.364
REMARK INTER:                 -10.399
REMARK INTRA:                  -0.965
REMARK UNBOUND:                -0.835
REMARK  Name = 
REMARK  6 active torsions:
REMARK  status: ('A' for Active; 'I' for Inactive)
REMARK    1  A    between atoms: C_2  and  C_25
REMARK    2  A    between atoms: N_3  and  C_4
REMARK    3  A    between atoms: C_4  and  C_5
REMARK    4  A    between atoms: C_8  and  C_9
REMARK    5  A    between atoms: C_9  and  N_10
REMARK    6  A    between atoms: C_11  and  C_13
REMARK                            x       y       z     vdW  Elec       q    Type
REMARK                         _______ _______ _______ _____ _____    ______ ____
ROOT
ATOM      1  C   UNL     1      45.300   4.238  12.314  0.00  0.00    +0.000 A 
ATOM      2  C   UNL     1      45.293   5.601  12.026  0.00  0.00    +0.000 A 
ATOM      3  C   UNL     1      46.116   6.453  12.760  0.00  0.00    +0.000 A 
ATOM      4  C   UNL     1      46.917   5.939  13.781  0.00  0.00    +0.000 A 
ATOM      5  C   UNL     1      46.855   4.569  14.005  0.00  0.00    +0.000 A 
ATOM      6  N   UNL     1      46.064   3.718  13.308  0.00  0.00    +0.000 NA
ENDROOT
BRANCH   1   7
ATOM      7  C   UNL     1      44.491   3.274  11.480  0.00  0.00    +0.000 C 
BRANCH   7  10
ATOM      8  O   UNL     1      44.207   4.195   8.888  0.00  0.00    +0.000 OA
ATOM      9  C   UNL     1      45.008   3.286   9.095  0.00  0.00    +0.000 C 
ATOM     10  N   UNL     1      45.193   2.720  10.342  0.00  0.00    +0.000 N 
ATOM     11  H   UNL     1      45.978   2.088  10.474  0.00  0.00    +0.000 HD
BRANCH   9  12
ATOM     12  C   UNL     1      45.827   2.740   7.979  0.00  0.00    +0.000 A 
ATOM     13  C   UNL     1      46.380   1.470   8.101  0.00  0.00    +0.000 A 
ATOM     14  N   UNL     1      47.176   0.924   7.151  0.00  0.00    +0.000 NA
ATOM     15  C   UNL     1      47.396   1.707   6.070  0.00  0.00    +0.000 A 
ATOM     16  C   UNL     1      46.836   2.973   5.940  0.00  0.00    +0.000 A 
ATOM     17  N   UNL     1      46.034   3.524   6.885  0.00  0.00    +0.000 NA
ENDBRANCH   9  12
ENDBRANCH   7  10
ENDBRANCH   1   7
BRANCH   4  18
ATOM     18  C   UNL     1      47.832   6.817  14.584  0.00  0.00    +0.000 C 
BRANCH  18  19
ATOM     19  N   UNL     1      48.913   6.066  15.175  0.00  0.00    +0.000 N 
ATOM     20  C   UNL     1      49.212   6.199  16.510  0.00  0.00    +0.000 C 
ATOM     21  O   UNL     1      48.541   6.911  17.253  0.00  0.00    +0.000 OA
ATOM     22  H   UNL     1      49.603   5.662  14.549  0.00  0.00    +0.000 HD
BRANCH  20  23
ATOM     23  C   UNL     1      50.335   5.404  17.022  0.00  0.00    +0.000 A 
ATOM     24  C   UNL     1      51.480   6.047  17.474  0.00  0.00    +0.000 A 
ATOM     25  S   UNL     1      52.671   4.986  18.080  0.00  0.00    +0.000 S 
ATOM     26  C   UNL     1      51.720   3.625  17.711  0.00  0.00    +0.000 A 
ATOM     27  N   UNL     1      52.177   2.367  17.960  0.00  0.00    +0.000 NA
ATOM     28  C   UNL     1      51.369   1.426  17.600  0.00  0.00    +0.000 A 
ATOM     29  N   UNL     1      50.143   1.629  17.021  0.00  0.00    +0.000 N 
ATOM     30  C   UNL     1      49.627   2.880  16.782  0.00  0.00    +0.000 A 
ATOM     31  O   UNL     1      48.507   3.028  16.302  0.00  0.00    +0.000 OA
ATOM     32  C   UNL     1      50.503   3.975  17.152  0.00  0.00    +0.000 A 
ATOM     33  H   UNL     1      49.556   0.847  16.770  0.00  0.00    +0.000 HD
ENDBRANCH  20  23
ENDBRANCH  18  19
ENDBRANCH   4  18
TORSDOF 6
ENDMDL
MODEL 3
REMARK VINA RESULT:    -7.519      1.984      2.459
REMARK INTER + INTRA:         -10.992
REMARK INTER:                 -10.047
REMARK INTRA:                  -0.945
REMARK UNBOUND:                -0.835
REMARK  Name = 
REMARK  6 active torsions:
REMARK  status: ('A' for Active; 'I' for Inactive)
REMARK    1  A    between atoms: C_2  and  C_25
REMARK    2  A    between atoms: N_3  and  C_4
REMARK    3  A    between atoms: C_4  and  C_5
REMARK    4  A    between atoms: C_8  and  C_9
REMARK    5  A    between atoms: C_9  and  N_10
REMARK    6  A    between atoms: C_11  and  C_13
REMARK                            x       y       z     vdW  Elec       q    Type
REMARK                         _______ _______ _______ _____ _____    ______ ____
ROOT
ATOM      1  C   UNL     1      44.680   4.919  11.929  0.00  0.00    +0.000 A 
ATOM      2  C   UNL     1      44.012   6.110  11.657  0.00  0.00    +0.000 A 
ATOM      3  C   UNL     1      44.601   7.317  12.029  0.00  0.00    +0.000 A 
ATOM      4  C   UNL     1      45.835   7.318  12.683  0.00  0.00    +0.000 A 
ATOM      5  C   UNL     1      46.425   6.083  12.920  0.00  0.00    +0.000 A 
ATOM      6  N   UNL     1      45.875   4.894  12.570  0.00  0.00    +0.000 NA
ENDROOT
BRANCH   1   7
ATOM      7  C   UNL     1      44.115   3.599  11.459  0.00  0.00    +0.000 C 
BRANCH   7  10
ATOM      8  O   UNL     1      44.083   4.155   8.750  0.00  0.00    +0.000 OA
ATOM      9  C   UNL     1      44.863   3.295   9.155  0.00  0.00    +0.000 C 
ATOM     10  N   UNL     1      44.927   2.907  10.480  0.00  0.00    +0.000 N 
ATOM     11  H   UNL     1      45.697   2.312  10.772  0.00  0.00    +0.000 HD
BRANCH   9  12
ATOM     12  C   UNL     1      45.788   2.616   8.209  0.00  0.00    +0.000 A 
ATOM     13  C   UNL     1      46.228   3.298   7.080  0.00  0.00    +0.000 A 
ATOM     14  N   UNL     1      47.031   2.731   6.148  0.00  0.00    +0.000 NA
ATOM     15  C   UNL     1      47.375   1.447   6.395  0.00  0.00    +0.000 A 
ATOM     16  C   UNL     1      46.946   0.764   7.527  0.00  0.00    +0.000 A 
ATOM     17  N   UNL     1      46.146   1.327   8.467  0.00  0.00    +0.000 NA
ENDBRANCH   9  12
ENDBRANCH   7  10
ENDBRANCH   1   7
BRANCH   4  18
ATOM     18  C   UNL     1      46.514   8.594  13.085  0.00  0.00    +0.000 C 
BRANCH  18  19
ATOM     19  N   UNL     1      46.963   8.553  14.456  0.00  0.00    +0.000 N 
ATOM     20  C   UNL     1      48.168   9.109  14.816  0.00  0.00    +0.000 C 
ATOM     21  O   UNL     1      48.872   9.704  14.003  0.00  0.00    +0.000 OA
ATOM     22  H   UNL     1      46.519   7.885  15.077  0.00  0.00    +0.000 HD
BRANCH  20  23
ATOM     23  C   UNL     1      48.549   9.012  16.231  0.00  0.00    +0.000 A 
ATOM     24  C   UNL     1      48.581  10.159  17.012  0.00  0.00    +0.000 A 
ATOM     25  S   UNL     1      48.997   9.870  18.641  0.00  0.00    +0.000 S 
ATOM     26  C   UNL     1      49.198   8.206  18.349  0.00  0.00    +0.000 A 
ATOM     27  N   UNL     1      49.586   7.365  19.346  0.00  0.00    +0.000 NA
ATOM     28  C   UNL     1      49.734   6.136  18.979  0.00  0.00    +0.000 A 
ATOM     29  N   UNL     1      49.523   5.671  17.706  0.00  0.00    +0.000 N 
ATOM     30  C   UNL     1      49.099   6.477  16.676  0.00  0.00    +0.000 A 
ATOM     31  O   UNL     1      48.878   6.021  15.559  0.00  0.00    +0.000 OA
ATOM     32  C   UNL     1      48.934   7.873  17.032  0.00  0.00    +0.000 A 
ATOM     33  H   UNL     1      49.649   4.694  17.488  0.00  0.00    +0.000 HD
ENDBRANCH  20  23
ENDBRANCH  18  19
ENDBRANCH   4  18
TORSDOF 6
ENDMDL
MODEL 4
REMARK VINA RESULT:    -7.139      3.071      8.590
REMARK INTER + INTRA:         -10.478
REMARK INTER:                  -9.497
REMARK INTRA:                  -0.981
REMARK UNBOUND:                -0.835
REMARK  Name = 
REMARK  6 active torsions:
REMARK  status: ('A' for Active; 'I' for Inactive)
REMARK    1  A    between atoms: C_2  and  C_25
REMARK    2  A    between atoms: N_3  and  C_4
REMARK    3  A    between atoms: C_4  and  C_5
REMARK    4  A    between atoms: C_8  and  C_9
REMARK    5  A    between atoms: C_9  and  N_10
REMARK    6  A    between atoms: C_11  and  C_13
REMARK                            x       y       z     vdW  Elec       q    Type
REMARK                         _______ _______ _______ _____ _____    ______ ____
ROOT
ATOM      1  C   UNL     1      49.525   7.663  15.463  0.00  0.00    +0.000 A 
ATOM      2  C   UNL     1      48.726   8.792  15.300  0.00  0.00    +0.000 A 
ATOM      3  C   UNL     1      47.911   8.888  14.173  0.00  0.00    +0.000 A 
ATOM      4  C   UNL     1      47.920   7.870  13.217  0.00  0.00    +0.000 A 
ATOM      5  C   UNL     1      48.755   6.786  13.458  0.00  0.00    +0.000 A 
ATOM      6  N   UNL     1      49.557   6.666  14.543  0.00  0.00    +0.000 NA
ENDROOT
BRANCH   1   7
ATOM      7  C   UNL     1      50.350   7.483  16.714  0.00  0.00    +0.000 C 
BRANCH   7  10
ATOM      8  O   UNL     1      49.368   5.477  18.345  0.00  0.00    +0.000 OA
ATOM      9  C   UNL     1      50.363   5.235  17.665  0.00  0.00    +0.000 C 
ATOM     10  N   UNL     1      50.964   6.179  16.853  0.00  0.00    +0.000 N 
ATOM     11  H   UNL     1      51.680   5.871  16.203  0.00  0.00    +0.000 HD
BRANCH   9  12
ATOM     12  C   UNL     1      50.982   3.882  17.696  0.00  0.00    +0.000 A 
ATOM     13  C   UNL     1      52.198   3.706  18.348  0.00  0.00    +0.000 A 
ATOM     14  N   UNL     1      52.847   2.517  18.377  0.00  0.00    +0.000 NA
ATOM     15  C   UNL     1      52.225   1.510  17.723  0.00  0.00    +0.000 A 
ATOM     16  C   UNL     1      51.005   1.679  17.080  0.00  0.00    +0.000 A 
ATOM     17  N   UNL     1      50.346   2.865  17.051  0.00  0.00    +0.000 NA
ENDBRANCH   9  12
ENDBRANCH   7  10
ENDBRANCH   1   7
BRANCH   4  18
ATOM     18  C   UNL     1      47.046   7.924  11.999  0.00  0.00    +0.000 C 
BRANCH  18  19
ATOM     19  N   UNL     1      46.489   6.631  11.682  0.00  0.00    +0.000 N 
ATOM     20  C   UNL     1      45.129   6.428  11.708  0.00  0.00    +0.000 C 
ATOM     21  O   UNL     1      44.345   7.344  11.946  0.00  0.00    +0.000 OA
ATOM     22  H   UNL     1      47.112   5.830  11.709  0.00  0.00    +0.000 HD
BRANCH  20  23
ATOM     23  C   UNL     1      44.653   5.078  11.382  0.00  0.00    +0.000 A 
ATOM     24  C   UNL     1      43.897   4.376  12.311  0.00  0.00    +0.000 A 
ATOM     25  S   UNL     1      43.382   2.845  11.761  0.00  0.00    +0.000 S 
ATOM     26  C   UNL     1      44.195   3.045  10.281  0.00  0.00    +0.000 A 
ATOM     27  N   UNL     1      44.179   2.063   9.338  0.00  0.00    +0.000 NA
ATOM     28  C   UNL     1      44.865   2.331   8.278  0.00  0.00    +0.000 A 
ATOM     29  N   UNL     1      45.559   3.496   8.071  0.00  0.00    +0.000 N 
ATOM     30  C   UNL     1      45.576   4.527   8.979  0.00  0.00    +0.000 A 
ATOM     31  O   UNL     1      46.171   5.574   8.745  0.00  0.00    +0.000 OA
ATOM     32  C   UNL     1      44.834   4.270  10.199  0.00  0.00    +0.000 A 
ATOM     33  H   UNL     1      46.069   3.646   7.213  0.00  0.00    +0.000 HD
ENDBRANCH  20  23
ENDBRANCH  18  19
ENDBRANCH   4  18
TORSDOF 6
ENDMDL
MODEL 5
REMARK VINA RESULT:    -7.124      2.272      3.128
REMARK INTER + INTRA:         -10.458
REMARK INTER:                  -9.546
REMARK INTRA:                  -0.912
REMARK UNBOUND:                -0.835
REMARK  Name = 
REMARK  6 active torsions:
REMARK  status: ('A' for Active; 'I' for Inactive)
REMARK    1  A    between atoms: C_2  and  C_25
REMARK    2  A    between atoms: N_3  and  C_4
REMARK    3  A    between atoms: C_4  and  C_5
REMARK    4  A    between atoms: C_8  and  C_9
REMARK    5  A    between atoms: C_9  and  N_10
REMARK    6  A    between atoms: C_11  and  C_13
REMARK                            x       y       z     vdW  Elec       q    Type
REMARK                         _______ _______ _______ _____ _____    ______ ____
ROOT
ATOM      1  C   UNL     1      45.300   4.396  12.225  0.00  0.00    +0.000 A 
ATOM      2  C   UNL     1      45.226   5.733  11.842  0.00  0.00    +0.000 A 
ATOM      3  C   UNL     1      46.042   6.667  12.480  0.00  0.00    +0.000 A 
ATOM      4  C   UNL     1      46.902   6.258  13.501  0.00  0.00    +0.000 A 
ATOM      5  C   UNL     1      46.904   4.906  13.822  0.00  0.00    +0.000 A 
ATOM      6  N   UNL     1      46.122   3.977  13.219  0.00  0.00    +0.000 NA
ENDROOT
BRANCH   1   7
ATOM      7  C   UNL     1      44.500   3.345  11.494  0.00  0.00    +0.000 C 
BRANCH   7  10
ATOM      8  O   UNL     1      44.272   4.279   8.901  0.00  0.00    +0.000 OA
ATOM      9  C   UNL     1      45.021   3.328   9.110  0.00  0.00    +0.000 C 
ATOM     10  N   UNL     1      45.172   2.752  10.358  0.00  0.00    +0.000 N 
ATOM     11  H   UNL     1      45.920   2.078  10.491  0.00  0.00    +0.000 HD
BRANCH   9  12
ATOM     12  C   UNL     1      45.809   2.736   7.996  0.00  0.00    +0.000 A 
ATOM     13  C   UNL     1      46.321   1.451   8.133  0.00  0.00    +0.000 A 
ATOM     14  N   UNL     1      47.089   0.863   7.184  0.00  0.00    +0.000 NA
ATOM     15  C   UNL     1      47.324   1.621   6.089  0.00  0.00    +0.000 A 
ATOM     16  C   UNL     1      46.807   2.903   5.943  0.00  0.00    +0.000 A 
ATOM     17  N   UNL     1      46.033   3.495   6.886  0.00  0.00    +0.000 NA
ENDBRANCH   9  12
ENDBRANCH   7  10
ENDBRANCH   1   7
BRANCH   4  18
ATOM     18  C   UNL     1      47.810   7.225  14.202  0.00  0.00    +0.000 C 
BRANCH  18  19
ATOM     19  N   UNL     1      48.888   6.550  14.885  0.00  0.00    +0.000 N 
ATOM     20  C   UNL     1      49.138   6.796  16.214  0.00  0.00    +0.000 C 
ATOM     21  O   UNL     1      48.427   7.548  16.876  0.00  0.00    +0.000 OA
ATOM     22  H   UNL     1      49.607   6.115  14.315  0.00  0.00    +0.000 HD
BRANCH  20  23
ATOM     23  C   UNL     1      50.260   6.072  16.824  0.00  0.00    +0.000 A 
ATOM     24  C   UNL     1      50.012   5.133  17.816  0.00  0.00    +0.000 A 
ATOM     25  S   UNL     1      51.414   4.348  18.386  0.00  0.00    +0.000 S 
ATOM     26  C   UNL     1      52.411   5.272  17.364  0.00  0.00    +0.000 A 
ATOM     27  N   UNL     1      53.762   5.111  17.376  0.00  0.00    +0.000 NA
ATOM     28  C   UNL     1      54.400   5.900  16.577  0.00  0.00    +0.000 A 
ATOM     29  N   UNL     1      53.808   6.830  15.761  0.00  0.00    +0.000 N 
ATOM     30  C   UNL     1      52.446   7.005  15.692  0.00  0.00    +0.000 A 
ATOM     31  O   UNL     1      51.945   7.816  14.920  0.00  0.00    +0.000 OA
ATOM     32  C   UNL     1      51.683   6.153  16.585  0.00  0.00    +0.000 A 
ATOM     33  H   UNL     1      54.366   7.411  15.153  0.00  0.00    +0.000 HD
ENDBRANCH  20  23
ENDBRANCH  18  19
ENDBRANCH   4  18
TORSDOF 6
ENDMDL
MODEL 6
REMARK VINA RESULT:    -6.851      3.609      8.190
REMARK INTER + INTRA:         -10.089
REMARK INTER:                  -9.082
REMARK INTRA:                  -1.007
REMARK UNBOUND:                -0.835
REMARK  Name = 
REMARK  6 active torsions:
REMARK  status: ('A' for Active; 'I' for Inactive)
REMARK    1  A    between atoms: C_2  and  C_25
REMARK    2  A    between atoms: N_3  and  C_4
REMARK    3  A    between atoms: C_4  and  C_5
REMARK    4  A    between atoms: C_8  and  C_9
REMARK    5  A    between atoms: C_9  and  N_10
REMARK    6  A    between atoms: C_11  and  C_13
REMARK                            x       y       z     vdW  Elec       q    Type
REMARK                         _______ _______ _______ _____ _____    ______ ____
ROOT
ATOM      1  C   UNL     1      49.585   7.406  16.054  0.00  0.00    +0.000 A 
ATOM      2  C   UNL     1      48.339   8.000  15.872  0.00  0.00    +0.000 A 
ATOM      3  C   UNL     1      47.900   8.269  14.576  0.00  0.00    +0.000 A 
ATOM      4  C   UNL     1      48.716   7.961  13.486  0.00  0.00    +0.000 A 
ATOM      5  C   UNL     1      49.946   7.377  13.762  0.00  0.00    +0.000 A 
ATOM      6  N   UNL     1      50.398   7.105  15.011  0.00  0.00    +0.000 NA
ENDROOT
BRANCH   1   7
ATOM      7  C   UNL     1      50.053   7.017  17.436  0.00  0.00    +0.000 C 
BRANCH   7  10
ATOM      8  O   UNL     1      48.935   4.529  17.892  0.00  0.00    +0.000 OA
ATOM      9  C   UNL     1      50.145   4.591  17.686  0.00  0.00    +0.000 C 
ATOM     10  N   UNL     1      50.813   5.786  17.495  0.00  0.00    +0.000 N 
ATOM     11  H   UNL     1      51.777   5.755  17.174  0.00  0.00    +0.000 HD
BRANCH   9  12
ATOM     12  C   UNL     1      50.963   3.349  17.642  0.00  0.00    +0.000 A 
ATOM     13  C   UNL     1      50.374   2.163  17.218  0.00  0.00    +0.000 A 
ATOM     14  N   UNL     1      51.038   0.982  17.196  0.00  0.00    +0.000 NA
ATOM     15  C   UNL     1      52.321   1.040  17.620  0.00  0.00    +0.000 A 
ATOM     16  C   UNL     1      52.917   2.226  18.034  0.00  0.00    +0.000 A 
ATOM     17  N   UNL     1      52.260   3.412  18.054  0.00  0.00    +0.000 NA
ENDBRANCH   9  12
ENDBRANCH   7  10
ENDBRANCH   1   7
BRANCH   4  18
ATOM     18  C   UNL     1      48.276   8.216  12.074  0.00  0.00    +0.000 C 
BRANCH  18  19
ATOM     19  N   UNL     1      47.605   7.071  11.507  0.00  0.00    +0.000 N 
ATOM     20  C   UNL     1      46.234   7.043  11.401  0.00  0.00    +0.000 C 
ATOM     21  O   UNL     1      45.542   8.003  11.730  0.00  0.00    +0.000 OA
ATOM     22  H   UNL     1      48.127   6.203  11.445  0.00  0.00    +0.000 HD
BRANCH  20  23
ATOM     23  C   UNL     1      45.638   5.834  10.820  0.00  0.00    +0.000 A 
ATOM     24  C   UNL     1      45.798   5.573   9.466  0.00  0.00    +0.000 A 
ATOM     25  S   UNL     1      45.086   4.108   8.959  0.00  0.00    +0.000 S 
ATOM     26  C   UNL     1      44.492   3.795  10.522  0.00  0.00    +0.000 A 
ATOM     27  N   UNL     1      43.752   2.682  10.777  0.00  0.00    +0.000 NA
ATOM     28  C   UNL     1      43.336   2.586  11.995  0.00  0.00    +0.000 A 
ATOM     29  N   UNL     1      43.600   3.498  12.984  0.00  0.00    +0.000 N 
ATOM     30  C   UNL     1      44.370   4.619  12.782  0.00  0.00    +0.000 A 
ATOM     31  O   UNL     1      44.624   5.394  13.698  0.00  0.00    +0.000 OA
ATOM     32  C   UNL     1      44.849   4.784  11.422  0.00  0.00    +0.000 A 
ATOM     33  H   UNL     1      43.251   3.358  13.921  0.00  0.00    +0.000 HD
ENDBRANCH  20  23
ENDBRANCH  18  19
ENDBRANCH   4  18
TORSDOF 6
ENDMDL
MODEL 7
REMARK VINA RESULT:    -6.666      3.075      5.043
REMARK INTER + INTRA:          -9.840
REMARK INTER:                  -8.994
REMARK INTRA:                  -0.846
REMARK UNBOUND:                -0.835
REMARK  Name = 
REMARK  6 active torsions:
REMARK  status: ('A' for Active; 'I' for Inactive)
REMARK    1  A    between atoms: C_2  and  C_25
REMARK    2  A    between atoms: N_3  and  C_4
REMARK    3  A    between atoms: C_4  and  C_5
REMARK    4  A    between atoms: C_8  and  C_9
REMARK    5  A    between atoms: C_9  and  N_10
REMARK    6  A    between atoms: C_11  and  C_13
REMARK                            x       y       z     vdW  Elec       q    Type
REMARK                         _______ _______ _______ _____ _____    ______ ____
ROOT
ATOM      1  C   UNL     1      44.849   4.150  11.949  0.00  0.00    +0.000 A 
ATOM      2  C   UNL     1      44.835   5.537  12.079  0.00  0.00    +0.000 A 
ATOM      3  C   UNL     1      45.729   6.144  12.960  0.00  0.00    +0.000 A 
ATOM      4  C   UNL     1      46.608   5.361  13.711  0.00  0.00    +0.000 A 
ATOM      5  C   UNL     1      46.547   3.986  13.522  0.00  0.00    +0.000 A 
ATOM      6  N   UNL     1      45.689   3.369  12.674  0.00  0.00    +0.000 NA
ENDROOT
BRANCH   1   7
ATOM      7  C   UNL     1      43.960   3.466  10.939  0.00  0.00    +0.000 C 
BRANCH   7  10
ATOM      8  O   UNL     1      45.108   4.774   8.790  0.00  0.00    +0.000 OA
ATOM      9  C   UNL     1      45.237   3.554   8.861  0.00  0.00    +0.000 C 
ATOM     10  N   UNL     1      44.664   2.797   9.866  0.00  0.00    +0.000 N 
ATOM     11  H   UNL     1      44.940   1.823   9.954  0.00  0.00    +0.000 HD
BRANCH   9  12
ATOM     12  C   UNL     1      46.030   2.822   7.837  0.00  0.00    +0.000 A 
ATOM     13  C   UNL     1      46.317   3.445   6.627  0.00  0.00    +0.000 A 
ATOM     14  N   UNL     1      46.990   2.827   5.627  0.00  0.00    +0.000 NA
ATOM     15  C   UNL     1      47.366   1.555   5.891  0.00  0.00    +0.000 A 
ATOM     16  C   UNL     1      47.091   0.933   7.103  0.00  0.00    +0.000 A 
ATOM     17  N   UNL     1      46.421   1.546   8.110  0.00  0.00    +0.000 NA
ENDBRANCH   9  12
ENDBRANCH   7  10
ENDBRANCH   1   7
BRANCH   4  18
ATOM     18  C   UNL     1      47.599   5.974  14.657  0.00  0.00    +0.000 C 
BRANCH  18  19
ATOM     19  N   UNL     1      48.610   6.729  13.958  0.00  0.00    +0.000 N 
ATOM     20  C   UNL     1      48.676   8.097  14.083  0.00  0.00    +0.000 C 
ATOM     21  O   UNL     1      47.919   8.713  14.830  0.00  0.00    +0.000 OA
ATOM     22  H   UNL     1      49.082   6.278  13.180  0.00  0.00    +0.000 HD
BRANCH  20  23
ATOM     23  C   UNL     1      49.730   8.784  13.327  0.00  0.00    +0.000 A 
ATOM     24  C   UNL     1      51.061   8.577  13.666  0.00  0.00    +0.000 A 
ATOM     25  S   UNL     1      52.162   9.410  12.665  0.00  0.00    +0.000 S 
ATOM     26  C   UNL     1      50.898  10.118  11.774  0.00  0.00    +0.000 A 
ATOM     27  N   UNL     1      51.161  10.984  10.757  0.00  0.00    +0.000 NA
ATOM     28  C   UNL     1      50.110  11.474  10.189  0.00  0.00    +0.000 A 
ATOM     29  N   UNL     1      48.820  11.171  10.541  0.00  0.00    +0.000 N 
ATOM     30  C   UNL     1      48.507  10.278  11.538  0.00  0.00    +0.000 A 
ATOM     31  O   UNL     1      47.342   9.995  11.800  0.00  0.00    +0.000 OA
ATOM     32  C   UNL     1      49.654   9.710  12.222  0.00  0.00    +0.000 A 
ATOM     33  H   UNL     1      48.041  11.584  10.049  0.00  0.00    +0.000 HD
ENDBRANCH  20  23
ENDBRANCH  18  19
ENDBRANCH   4  18
TORSDOF 6
ENDMDL
MODEL 8
REMARK VINA RESULT:    -6.659      3.927      8.693
REMARK INTER + INTRA:          -9.830
REMARK INTER:                  -8.784
REMARK INTRA:                  -1.046
REMARK UNBOUND:                -0.835
REMARK  Name = 
REMARK  6 active torsions:
REMARK  status: ('A' for Active; 'I' for Inactive)
REMARK    1  A    between atoms: C_2  and  C_25
REMARK    2  A    between atoms: N_3  and  C_4
REMARK    3  A    between atoms: C_4  and  C_5
REMARK    4  A    between atoms: C_8  and  C_9
REMARK    5  A    between atoms: C_9  and  N_10
REMARK    6  A    between atoms: C_11  and  C_13
REMARK                            x       y       z     vdW  Elec       q    Type
REMARK                         _______ _______ _______ _____ _____    ______ ____
ROOT
ATOM      1  C   UNL     1      49.745   5.016  17.798  0.00  0.00    +0.000 A 
ATOM      2  C   UNL     1      48.511   4.684  17.246  0.00  0.00    +0.000 A 
ATOM      3  C   UNL     1      48.054   5.391  16.134  0.00  0.00    +0.000 A 
ATOM      4  C   UNL     1      48.823   6.429  15.604  0.00  0.00    +0.000 A 
ATOM      5  C   UNL     1      50.037   6.696  16.225  0.00  0.00    +0.000 A 
ATOM      6  N   UNL     1      50.506   6.026  17.306  0.00  0.00    +0.000 NA
ENDROOT
BRANCH   1   7
ATOM      7  C   UNL     1      50.313   4.213  18.944  0.00  0.00    +0.000 C 
BRANCH   7  10
ATOM      8  O   UNL     1      50.743   1.865  17.548  0.00  0.00    +0.000 OA
ATOM      9  C   UNL     1      51.724   2.487  17.949  0.00  0.00    +0.000 C 
ATOM     10  N   UNL     1      51.622   3.645  18.697  0.00  0.00    +0.000 N 
ATOM     11  H   UNL     1      52.463   4.192  18.859  0.00  0.00    +0.000 HD
BRANCH   9  12
ATOM     12  C   UNL     1      53.097   2.002  17.645  0.00  0.00    +0.000 A 
ATOM     13  C   UNL     1      53.283   0.673  17.281  0.00  0.00    +0.000 A 
ATOM     14  N   UNL     1      54.506   0.145  17.037  0.00  0.00    +0.000 NA
ATOM     15  C   UNL     1      55.539   1.007  17.173  0.00  0.00    +0.000 A 
ATOM     16  C   UNL     1      55.356   2.339  17.525  0.00  0.00    +0.000 A 
ATOM     17  N   UNL     1      54.134   2.876  17.767  0.00  0.00    +0.000 NA
ENDBRANCH   9  12
ENDBRANCH   7  10
ENDBRANCH   1   7
BRANCH   4  18
ATOM     18  C   UNL     1      48.379   7.204  14.399  0.00  0.00    +0.000 C 
BRANCH  18  19
ATOM     19  N   UNL     1      47.125   6.714  13.879  0.00  0.00    +0.000 N 
ATOM     20  C   UNL     1      46.856   6.768  12.532  0.00  0.00    +0.000 C 
ATOM     21  O   UNL     1      47.686   7.179  11.724  0.00  0.00    +0.000 OA
ATOM     22  H   UNL     1      46.360   6.589  14.534  0.00  0.00    +0.000 HD
BRANCH  20  23
ATOM     23  C   UNL     1      45.551   6.256  12.094  0.00  0.00    +0.000 A 
ATOM     24  C   UNL     1      44.621   7.130  11.547  0.00  0.00    +0.000 A 
ATOM     25  S   UNL     1      43.177   6.373  11.047  0.00  0.00    +0.000 S 
ATOM     26  C   UNL     1      43.723   4.856  11.590  0.00  0.00    +0.000 A 
ATOM     27  N   UNL     1      42.936   3.751  11.480  0.00  0.00    +0.000 NA
ATOM     28  C   UNL     1      43.459   2.674  11.963  0.00  0.00    +0.000 A 
ATOM     29  N   UNL     1      44.702   2.600  12.539  0.00  0.00    +0.000 N 
ATOM     30  C   UNL     1      45.544   3.681  12.641  0.00  0.00    +0.000 A 
ATOM     31  O   UNL     1      46.667   3.573  13.122  0.00  0.00    +0.000 OA
ATOM     32  C   UNL     1      44.996   4.923  12.128  0.00  0.00    +0.000 A 
ATOM     33  H   UNL     1      45.055   1.722  12.890  0.00  0.00    +0.000 HD
ENDBRANCH  20  23
ENDBRANCH  18  19
ENDBRANCH   4  18
TORSDOF 6
ENDMDL
MODEL 9
REMARK VINA RESULT:    -6.241      5.105      7.856
REMARK INTER + INTRA:          -9.265
REMARK INTER:                  -8.388
REMARK INTRA:                  -0.877
REMARK UNBOUND:                -0.835
REMARK  Name = 
REMARK  6 active torsions:
REMARK  status: ('A' for Active; 'I' for Inactive)
REMARK    1  A    between atoms: C_2  and  C_25
REMARK    2  A    between atoms: N_3  and  C_4
REMARK    3  A    between atoms: C_4  and  C_5
REMARK    4  A    between atoms: C_8  and  C_9
REMARK    5  A    between atoms: C_9  and  N_10
REMARK    6  A    between atoms: C_11  and  C_13
REMARK                            x       y       z     vdW  Elec       q    Type
REMARK                         _______ _______ _______ _____ _____    ______ ____
ROOT
ATOM      1  C   UNL     1      50.249   9.084  11.751  0.00  0.00    +0.000 A 
ATOM      2  C   UNL     1      49.847   7.754  11.659  0.00  0.00    +0.000 A 
ATOM      3  C   UNL     1      48.498   7.441  11.825  0.00  0.00    +0.000 A 
ATOM      4  C   UNL     1      47.576   8.452  12.100  0.00  0.00    +0.000 A 
ATOM      5  C   UNL     1      48.068   9.749  12.183  0.00  0.00    +0.000 A 
ATOM      6  N   UNL     1      49.372  10.083  12.027  0.00  0.00    +0.000 NA
ENDROOT
BRANCH   1   7
ATOM      7  C   UNL     1      51.684   9.472  11.487  0.00  0.00    +0.000 C 
BRANCH   7  10
ATOM      8  O   UNL     1      53.824   7.743  11.769  0.00  0.00    +0.000 OA
ATOM      9  C   UNL     1      53.346   7.894  10.647  0.00  0.00    +0.000 C 
ATOM     10  N   UNL     1      52.308   8.769  10.385  0.00  0.00    +0.000 N 
ATOM     11  H   UNL     1      51.860   8.728   9.475  0.00  0.00    +0.000 HD
BRANCH   9  12
ATOM     12  C   UNL     1      53.887   7.127   9.492  0.00  0.00    +0.000 A 
ATOM     13  C   UNL     1      54.515   7.810   8.457  0.00  0.00    +0.000 A 
ATOM     14  N   UNL     1      54.989   7.188   7.351  0.00  0.00    +0.000 NA
ATOM     15  C   UNL     1      54.804   5.848   7.325  0.00  0.00    +0.000 A 
ATOM     16  C   UNL     1      54.185   5.160   8.362  0.00  0.00    +0.000 A 
ATOM     17  N   UNL     1      53.714   5.776   9.475  0.00  0.00    +0.000 NA
ENDBRANCH   9  12
ENDBRANCH   7  10
ENDBRANCH   1   7
BRANCH   4  18
ATOM     18  C   UNL     1      46.114   8.163  12.268  0.00  0.00    +0.000 C 
BRANCH  18  19
ATOM     19  N   UNL     1      45.800   6.790  11.953  0.00  0.00    +0.000 N 
ATOM     20  C   UNL     1      44.542   6.439  11.525  0.00  0.00    +0.000 C 
ATOM     21  O   UNL     1      43.664   7.280  11.342  0.00  0.00    +0.000 OA
ATOM     22  H   UNL     1      46.423   6.071  12.309  0.00  0.00    +0.000 HD
BRANCH  20  23
ATOM     23  C   UNL     1      44.310   5.018  11.237  0.00  0.00    +0.000 A 
ATOM     24  C   UNL     1      43.560   4.254  12.122  0.00  0.00    +0.000 A 
ATOM     25  S   UNL     1      43.344   2.638  11.621  0.00  0.00    +0.000 S 
ATOM     26  C   UNL     1      44.289   2.887  10.228  0.00  0.00    +0.000 A 
ATOM     27  N   UNL     1      44.528   1.870   9.357  0.00  0.00    +0.000 NA
ATOM     28  C   UNL     1      45.288   2.189   8.362  0.00  0.00    +0.000 A 
ATOM     29  N   UNL     1      45.823   3.434   8.156  0.00  0.00    +0.000 N 
ATOM     30  C   UNL     1      45.582   4.499   8.992  0.00  0.00    +0.000 A 
ATOM     31  O   UNL     1      46.041   5.612   8.756  0.00  0.00    +0.000 OA
ATOM     32  C   UNL     1      44.746   4.190  10.137  0.00  0.00    +0.000 A 
ATOM     33  H   UNL     1      46.404   3.619   7.352  0.00  0.00    +0.000 HD
ENDBRANCH  20  23
ENDBRANCH  18  19
ENDBRANCH   4  18
TORSDOF 6
ENDMDL
