MODEL 1
REMARK VINA RESULT:    -8.180      0.000      0.000
REMARK INTER + INTRA:         -12.294
REMARK INTER:                 -11.766
REMARK INTRA:                  -0.528
REMARK UNBOUND:                -0.528
REMARK  Name = 
REMARK  8 active torsions:
REMARK  status: ('A' for Active; 'I' for Inactive)
REMARK    1  A    between atoms: N_1  and  C_2
REMARK    2  A    between atoms: C_2  and  C_3
REMARK    3  A    between atoms: C_3  and  C_4
REMARK    4  A    between atoms: C_4  and  N_5
REMARK    5  A    between atoms: C_4  and  C_18
REMARK    6  A    between atoms: C_6  and  C_8
REMARK    7  A    between atoms: C_21  and  O_22
REMARK    8  A    between atoms: O_22  and  C_23
REMARK                            x       y       z     vdW  Elec       q    Type
REMARK                         _______ _______ _______ _____ _____    ______ ____
ROOT
ATOM      1  C   UNL     1      45.877   6.714  12.800  0.00  0.00    +0.000 C 
ENDROOT
BRANCH   1   2
ATOM      2  C   UNL     1      45.424   5.609  11.855  0.00  0.00    +0.000 A 
ATOM      3  C   UNL     1      45.457   5.863  10.474  0.00  0.00    +0.000 A 
ATOM      4  C   UNL     1      45.153   4.863   9.550  0.00  0.00    +0.000 A 
ATOM      5  C   UNL     1      44.835   3.578   9.990  0.00  0.00    +0.000 A 
ATOM      6  C   UNL     1      44.675   3.344  11.356  0.00  0.00    +0.000 A 
ATOM      7  C   UNL     1      44.958   4.357  12.285  0.00  0.00    +0.000 A 
BRANCH   5   8
ATOM      8  O   UNL     1      44.615   2.525   9.128  0.00  0.00    +0.000 OA
BRANCH   8   9
ATOM      9  C   UNL     1      45.595   2.257   8.172  0.00  0.00    +0.000 A 
ATOM     10  C   UNL     1      45.773   3.210   7.179  0.00  0.00    +0.000 A 
ATOM     11  C   UNL     1      46.780   3.003   6.237  0.00  0.00    +0.000 A 
ATOM     12  C   UNL     1      47.563   1.856   6.315  0.00  0.00    +0.000 A 
ATOM     13  C   UNL     1      47.290   0.945   7.320  0.00  0.00    +0.000 A 
ATOM     14  N   UNL     1      46.315   1.113   8.237  0.00  0.00    +0.000 NA
ENDBRANCH   8   9
ENDBRANCH   5   8
ENDBRANCH   1   2
BRANCH   1  15
ATOM     15  N   UNL     1      46.299   6.109  14.058  0.00  0.00    +0.000 N 
ATOM     16  C   UNL     1      47.517   5.490  14.191  0.00  0.00    +0.000 C 
ATOM     17  O   UNL     1      48.361   5.494  13.299  0.00  0.00    +0.000 OA
ATOM     18  H   UNL     1      45.576   5.950  14.752  0.00  0.00    +0.000 HD
BRANCH  16  19
ATOM     19  C   UNL     1      47.787   4.841  15.478  0.00  0.00    +0.000 A 
ATOM     20  C   UNL     1      47.439   3.510  15.662  0.00  0.00    +0.000 A 
ATOM     21  S   UNL     1      47.791   2.920  17.222  0.00  0.00    +0.000 S 
ATOM     22  C   UNL     1      48.375   4.440  17.722  0.00  0.00    +0.000 A 
ATOM     23  N   UNL     1      48.791   4.638  19.002  0.00  0.00    +0.000 NA
ATOM     24  C   UNL     1      49.172   5.845  19.254  0.00  0.00    +0.000 A 
ATOM     25  N   UNL     1      49.196   6.865  18.338  0.00  0.00    +0.000 N 
ATOM     26  C   UNL     1      48.835   6.697  17.020  0.00  0.00    +0.000 A 
ATOM     27  O   UNL     1      48.953   7.608  16.206  0.00  0.00    +0.000 OA
ATOM     28  C   UNL     1      48.350   5.370  16.698  0.00  0.00    +0.000 A 
ATOM     29  H   UNL     1      49.535   7.780  18.595  0.00  0.00    +0.000 HD
ENDBRANCH  16  19
ENDBRANCH   1  15
BRANCH   1  30
ATOM     30  C   UNL     1      46.986   7.651  12.274  0.00  0.00    +0.000 C 
BRANCH  30  31
ATOM     31  C   UNL     1      47.009   9.056  12.884  0.00  0.00    +0.000 C 
BRANCH  31  32
ATOM     32  N   UNL     1      47.005   9.045  14.342  0.00  0.00    +0.000 NA
ATOM     33  H   UNL     1      47.890   8.668  14.680  0.00  0.00    +0.000 HD
ATOM     34  H   UNL     1      46.278   8.417  14.684  0.00  0.00    +0.000 HD
ENDBRANCH  31  32
ENDBRANCH  30  31
ENDBRANCH   1  30
TORSDOF 8
ENDMDL
MODEL 2
REMARK VINA RESULT:    -8.117      1.923      2.567
REMARK INTER + INTRA:         -12.204
REMARK INTER:                 -12.049
REMARK INTRA:                  -0.155
REMARK UNBOUND:                -0.528
REMARK  Name = 
REMARK  8 active torsions:
REMARK  status: ('A' for Active; 'I' for Inactive)
REMARK    1  A    between atoms: N_1  and  C_2
REMARK    2  A    between atoms: C_2  and  C_3
REMARK    3  A    between atoms: C_3  and  C_4
REMARK    4  A    between atoms: C_4  and  N_5
REMARK    5  A    between atoms: C_4  and  C_18
REMARK    6  A    between atoms: C_6  and  C_8
REMARK    7  A    between atoms: C_21  and  O_22
REMARK    8  A    between atoms: O_22  and  C_23
REMARK                            x       y       z     vdW  Elec       q    Type
REMARK                         _______ _______ _______ _____ _____    ______ ____
ROOT
ATOM      1  C   UNL     1      44.981   7.265  12.325  0.00  0.00    +0.000 C 
ENDROOT
BRANCH   1   2
ATOM      2  C   UNL     1      44.926   6.044  11.416  0.00  0.00    +0.000 A 
ATOM      3  C   UNL     1      44.022   5.019  11.738  0.00  0.00    +0.000 A 
ATOM      4  C   UNL     1      43.848   3.921  10.894  0.00  0.00    +0.000 A 
ATOM      5  C   UNL     1      44.557   3.841   9.696  0.00  0.00    +0.000 A 
ATOM      6  C   UNL     1      45.548   4.785   9.424  0.00  0.00    +0.000 A 
ATOM      7  C   UNL     1      45.739   5.877  10.285  0.00  0.00    +0.000 A 
BRANCH   5   8
ATOM      8  O   UNL     1      44.363   2.831   8.778  0.00  0.00    +0.000 OA
BRANCH   8   9
ATOM      9  C   UNL     1      45.457   2.445   8.002  0.00  0.00    +0.000 A 
ATOM     10  C   UNL     1      45.789   3.272   6.939  0.00  0.00    +0.000 A 
ATOM     11  C   UNL     1      46.909   2.948   6.174  0.00  0.00    +0.000 A 
ATOM     12  C   UNL     1      47.647   1.813   6.490  0.00  0.00    +0.000 A 
ATOM     13  C   UNL     1      47.220   1.029   7.548  0.00  0.00    +0.000 A 
ATOM     14  N   UNL     1      46.135   1.311   8.297  0.00  0.00    +0.000 NA
ENDBRANCH   8   9
ENDBRANCH   5   8
ENDBRANCH   1   2
BRANCH   1  15
ATOM     15  N   UNL     1      45.883   6.980  13.435  0.00  0.00    +0.000 N 
ATOM     16  C   UNL     1      47.248   7.027  13.290  0.00  0.00    +0.000 C 
ATOM     17  O   UNL     1      47.789   7.405  12.254  0.00  0.00    +0.000 OA
ATOM     18  H   UNL     1      45.480   6.518  14.243  0.00  0.00    +0.000 HD
BRANCH  16  19
ATOM     19  C   UNL     1      48.047   6.632  14.454  0.00  0.00    +0.000 A 
ATOM     20  C   UNL     1      49.069   7.459  14.897  0.00  0.00    +0.000 A 
ATOM     21  S   UNL     1      49.919   6.839  16.238  0.00  0.00    +0.000 S 
ATOM     22  C   UNL     1      48.979   5.418  16.242  0.00  0.00    +0.000 A 
ATOM     23  N   UNL     1      49.234   4.419  17.128  0.00  0.00    +0.000 NA
ATOM     24  C   UNL     1      48.472   3.386  16.996  0.00  0.00    +0.000 A 
ATOM     25  N   UNL     1      47.465   3.271  16.073  0.00  0.00    +0.000 N 
ATOM     26  C   UNL     1      47.137   4.277  15.192  0.00  0.00    +0.000 A 
ATOM     27  O   UNL     1      46.173   4.176  14.439  0.00  0.00    +0.000 OA
ATOM     28  C   UNL     1      47.998   5.440  15.267  0.00  0.00    +0.000 A 
ATOM     29  H   UNL     1      46.886   2.444  16.043  0.00  0.00    +0.000 HD
ENDBRANCH  16  19
ENDBRANCH   1  15
BRANCH   1  30
ATOM     30  C   UNL     1      45.381   8.598  11.657  0.00  0.00    +0.000 C 
BRANCH  30  31
ATOM     31  C   UNL     1      44.240   9.597  11.438  0.00  0.00    +0.000 C 
BRANCH  31  32
ATOM     32  N   UNL     1      43.096   9.015  10.747  0.00  0.00    +0.000 NA
ATOM     33  H   UNL     1      42.236   9.307  11.209  0.00  0.00    +0.000 HD
ATOM     34  H   UNL     1      43.126   7.998  10.817  0.00  0.00    +0.000 HD
ENDBRANCH  31  32
ENDBRANCH  30  31
ENDBRANCH   1  30
TORSDOF 8
ENDMDL
MODEL 3
REMARK VINA RESULT:    -7.985      2.012      2.822
REMARK INTER + INTRA:         -12.014
REMARK INTER:                 -10.232
REMARK INTRA:                  -1.782
REMARK UNBOUND:                -0.528
REMARK  Name = 
REMARK  8 active torsions:
REMARK  status: ('A' for Active; 'I' for Inactive)
REMARK    1  A    between atoms: N_1  and  C_2
REMARK    2  A    between atoms: C_2  and  C_3
REMARK    3  A    between atoms: C_3  and  C_4
REMARK    4  A    between atoms: C_4  and  N_5
REMARK    5  A    between atoms: C_4  and  C_18
REMARK    6  A    between atoms: C_6  and  C_8
REMARK    7  A    between atoms: C_21  and  O_22
REMARK    8  A    between atoms: O_22  and  C_23
REMARK                            x       y       z     vdW  Elec       q    Type
REMARK                         _______ _______ _______ _____ _____    ______ ____
ROOT
ATOM      1  C   UNL     1      47.297   7.806  13.660  0.00  0.00    +0.000 C 
ENDROOT
BRANCH   1   2
ATOM      2  C   UNL     1      46.349   6.901  12.886  0.00  0.00    +0.000 A 
ATOM      3  C   UNL     1      45.343   7.501  12.111  0.00  0.00    +0.000 A 
ATOM      4  C   UNL     1      44.506   6.736  11.298  0.00  0.00    +0.000 A 
ATOM      5  C   UNL     1      44.676   5.354  11.223  0.00  0.00    +0.000 A 
ATOM      6  C   UNL     1      45.585   4.730  12.080  0.00  0.00    +0.000 A 
ATOM      7  C   UNL     1      46.410   5.499  12.915  0.00  0.00    +0.000 A 
BRANCH   5   8
ATOM      8  O   UNL     1      43.944   4.555  10.372  0.00  0.00    +0.000 OA
BRANCH   8   9
ATOM      9  C   UNL     1      44.649   3.733   9.491  0.00  0.00    +0.000 A 
ATOM     10  C   UNL     1      45.390   4.368   8.506  0.00  0.00    +0.000 A 
ATOM     11  C   UNL     1      46.151   3.582   7.641  0.00  0.00    +0.000 A 
ATOM     12  C   UNL     1      46.138   2.199   7.785  0.00  0.00    +0.000 A 
ATOM     13  C   UNL     1      45.342   1.652   8.776  0.00  0.00    +0.000 A 
ATOM     14  N   UNL     1      44.587   2.387   9.619  0.00  0.00    +0.000 NA
ENDBRANCH   8   9
ENDBRANCH   5   8
ENDBRANCH   1   2
BRANCH   1  15
ATOM     15  N   UNL     1      48.136   6.978  14.519  0.00  0.00    +0.000 N 
ATOM     16  C   UNL     1      48.640   7.445  15.707  0.00  0.00    +0.000 C 
ATOM     17  O   UNL     1      48.338   8.544  16.166  0.00  0.00    +0.000 OA
ATOM     18  H   UNL     1      48.528   6.141  14.102  0.00  0.00    +0.000 HD
BRANCH  16  19
ATOM     19  C   UNL     1      49.543   6.549  16.436  0.00  0.00    +0.000 A 
ATOM     20  C   UNL     1      50.803   6.998  16.808  0.00  0.00    +0.000 A 
ATOM     21  S   UNL     1      51.736   5.824  17.617  0.00  0.00    +0.000 S 
ATOM     22  C   UNL     1      50.506   4.657  17.454  0.00  0.00    +0.000 A 
ATOM     23  N   UNL     1      50.692   3.385  17.896  0.00  0.00    +0.000 NA
ATOM     24  C   UNL     1      49.694   2.597  17.675  0.00  0.00    +0.000 A 
ATOM     25  N   UNL     1      48.521   2.970  17.072  0.00  0.00    +0.000 N 
ATOM     26  C   UNL     1      48.269   4.258  16.657  0.00  0.00    +0.000 A 
ATOM     27  O   UNL     1      47.175   4.579  16.202  0.00  0.00    +0.000 OA
ATOM     28  C   UNL     1      49.380   5.172  16.837  0.00  0.00    +0.000 A 
ATOM     29  H   UNL     1      47.768   2.308  16.956  0.00  0.00    +0.000 HD
ENDBRANCH  16  19
ENDBRANCH   1  15
BRANCH   1  30
ATOM     30  C   UNL     1      48.184   8.749  12.817  0.00  0.00    +0.000 C 
BRANCH  30  31
ATOM     31  C   UNL     1      49.053   8.066  11.756  0.00  0.00    +0.000 C 
BRANCH  31  32
ATOM     32  N   UNL     1      50.203   7.371  12.322  0.00  0.00    +0.000 NA
ATOM     33  H   UNL     1      51.053   7.890  12.104  0.00  0.00    +0.000 HD
ATOM     34  H   UNL     1      50.308   6.456  11.884  0.00  0.00    +0.000 HD
ENDBRANCH  31  32
ENDBRANCH  30  31
ENDBRANCH   1  30
TORSDOF 8
ENDMDL
MODEL 4
REMARK VINA RESULT:    -7.447      2.397      2.791
REMARK INTER + INTRA:         -11.240
REMARK INTER:                  -9.634
REMARK INTRA:                  -1.605
REMARK UNBOUND:                -0.528
REMARK  Name = 
REMARK  8 active torsions:
REMARK  status: ('A' for Active; 'I' for Inactive)
REMARK    1  A    between atoms: N_1  and  C_2
REMARK    2  A    between atoms: C_2  and  C_3
REMARK    3  A    between atoms: C_3  and  C_4
REMARK    4  A    between atoms: C_4  and  N_5
REMARK    5  A    between atoms: C_4  and  C_18
REMARK    6  A    between atoms: C_6  and  C_8
REMARK    7  A    between atoms: C_21  and  O_22
REMARK    8  A    between atoms: O_22  and  C_23
REMARK                            x       y       z     vdW  Elec       q    Type
REMARK                         _______ _______ _______ _____ _____    ______ ____
ROOT
ATOM      1  C   UNL     1      47.563   7.429  13.584  0.00  0.00    +0.000 C 
ENDROOT
BRANCH   1   2
ATOM      2  C   UNL     1      46.626   6.519  12.801  0.00  0.00    +0.000 A 
ATOM      3  C   UNL     1      45.866   7.084  11.764  0.00  0.00    +0.000 A 
ATOM      4  C   UNL     1      45.065   6.290  10.943  0.00  0.00    +0.000 A 
ATOM      5  C   UNL     1      45.030   4.907  11.125  0.00  0.00    +0.000 A 
ATOM      6  C   UNL     1      45.678   4.347  12.227  0.00  0.00    +0.000 A 
ATOM      7  C   UNL     1      46.465   5.150  13.067  0.00  0.00    +0.000 A 
BRANCH   5   8
ATOM      8  O   UNL     1      44.333   4.060  10.291  0.00  0.00    +0.000 OA
BRANCH   8   9
ATOM      9  C   UNL     1      45.050   3.406   9.289  0.00  0.00    +0.000 A 
ATOM     10  C   UNL     1      45.587   4.201   8.288  0.00  0.00    +0.000 A 
ATOM     11  C   UNL     1      46.356   3.590   7.298  0.00  0.00    +0.000 A 
ATOM     12  C   UNL     1      46.553   2.214   7.339  0.00  0.00    +0.000 A 
ATOM     13  C   UNL     1      45.950   1.497   8.357  0.00  0.00    +0.000 A 
ATOM     14  N   UNL     1      45.192   2.059   9.320  0.00  0.00    +0.000 NA
ENDBRANCH   8   9
ENDBRANCH   5   8
ENDBRANCH   1   2
BRANCH   1  15
ATOM     15  N   UNL     1      48.376   6.608  14.474  0.00  0.00    +0.000 N 
ATOM     16  C   UNL     1      48.831   7.080  15.680  0.00  0.00    +0.000 C 
ATOM     17  O   UNL     1      48.502   8.176  16.127  0.00  0.00    +0.000 OA
ATOM     18  H   UNL     1      48.790   5.774  14.072  0.00  0.00    +0.000 HD
BRANCH  16  19
ATOM     19  C   UNL     1      49.713   6.191  16.443  0.00  0.00    +0.000 A 
ATOM     20  C   UNL     1      49.164   5.213  17.259  0.00  0.00    +0.000 A 
ATOM     21  S   UNL     1      50.325   4.290  18.098  0.00  0.00    +0.000 S 
ATOM     22  C   UNL     1      51.603   5.200  17.436  0.00  0.00    +0.000 A 
ATOM     23  N   UNL     1      52.891   4.955  17.798  0.00  0.00    +0.000 NA
ATOM     24  C   UNL     1      53.754   5.742  17.250  0.00  0.00    +0.000 A 
ATOM     25  N   UNL     1      53.449   6.737  16.357  0.00  0.00    +0.000 N 
ATOM     26  C   UNL     1      52.167   6.986  15.922  0.00  0.00    +0.000 A 
ATOM     27  O   UNL     1      51.939   7.825  15.055  0.00  0.00    +0.000 OA
ATOM     28  C   UNL     1      51.153   6.161  16.548  0.00  0.00    +0.000 A 
ATOM     29  H   UNL     1      54.178   7.299  15.943  0.00  0.00    +0.000 HD
ENDBRANCH  16  19
ENDBRANCH   1  15
BRANCH   1  30
ATOM     30  C   UNL     1      48.475   8.353  12.748  0.00  0.00    +0.000 C 
BRANCH  30  31
ATOM     31  C   UNL     1      49.510   7.642  11.870  0.00  0.00    +0.000 C 
BRANCH  31  32
ATOM     32  N   UNL     1      50.848   7.647  12.448  0.00  0.00    +0.000 NA
ATOM     33  H   UNL     1      51.502   8.063  11.785  0.00  0.00    +0.000 HD
ATOM     34  H   UNL     1      51.167   6.690  12.601  0.00  0.00    +0.000 HD
ENDBRANCH  31  32
ENDBRANCH  30  31
ENDBRANCH   1  30
TORSDOF 8
ENDMDL
MODEL 5
REMARK VINA RESULT:    -7.315      1.870      2.978
REMARK INTER + INTRA:         -11.050
REMARK INTER:                 -10.659
REMARK INTRA:                  -0.391
REMARK UNBOUND:                -0.528
REMARK  Name = 
REMARK  8 active torsions:
REMARK  status: ('A' for Active; 'I' for Inactive)
REMARK    1  A    between atoms: N_1  and  C_2
REMARK    2  A    between atoms: C_2  and  C_3
REMARK    3  A    between atoms: C_3  and  C_4
REMARK    4  A    between atoms: C_4  and  N_5
REMARK    5  A    between atoms: C_4  and  C_18
REMARK    6  A    between atoms: C_6  and  C_8
REMARK    7  A    between atoms: C_21  and  O_22
REMARK    8  A    between atoms: O_22  and  C_23
REMARK                            x       y       z     vdW  Elec       q    Type
REMARK                         _______ _______ _______ _____ _____    ______ ____
ROOT
ATOM      1  C   UNL     1      47.439   8.802  13.555  0.00  0.00    +0.000 C 
ENDROOT
BRANCH   1   2
ATOM      2  C   UNL     1      46.591   7.935  12.635  0.00  0.00    +0.000 A 
ATOM      3  C   UNL     1      47.191   6.810  12.044  0.00  0.00    +0.000 A 
ATOM      4  C   UNL     1      46.446   5.918  11.273  0.00  0.00    +0.000 A 
ATOM      5  C   UNL     1      45.077   6.117  11.099  0.00  0.00    +0.000 A 
ATOM      6  C   UNL     1      44.493   7.293  11.572  0.00  0.00    +0.000 A 
ATOM      7  C   UNL     1      45.248   8.203  12.328  0.00  0.00    +0.000 A 
BRANCH   5   8
ATOM      8  O   UNL     1      44.270   5.225  10.427  0.00  0.00    +0.000 OA
BRANCH   8   9
ATOM      9  C   UNL     1      44.889   4.313   9.571  0.00  0.00    +0.000 A 
ATOM     10  C   UNL     1      44.752   2.970   9.887  0.00  0.00    +0.000 A 
ATOM     11  C   UNL     1      45.310   2.027   9.024  0.00  0.00    +0.000 A 
ATOM     12  C   UNL     1      45.988   2.457   7.889  0.00  0.00    +0.000 A 
ATOM     13  C   UNL     1      46.103   3.820   7.673  0.00  0.00    +0.000 A 
ATOM     14  N   UNL     1      45.584   4.754   8.495  0.00  0.00    +0.000 NA
ENDBRANCH   8   9
ENDBRANCH   5   8
ENDBRANCH   1   2
BRANCH   1  15
ATOM     15  N   UNL     1      47.745   8.043  14.761  0.00  0.00    +0.000 N 
ATOM     16  C   UNL     1      48.903   7.315  14.885  0.00  0.00    +0.000 C 
ATOM     17  O   UNL     1      49.790   7.338  14.037  0.00  0.00    +0.000 OA
ATOM     18  H   UNL     1      46.977   7.876  15.402  0.00  0.00    +0.000 HD
BRANCH  16  19
ATOM     19  C   UNL     1      49.053   6.522  16.109  0.00  0.00    +0.000 A 
ATOM     20  C   UNL     1      49.975   6.911  17.070  0.00  0.00    +0.000 A 
ATOM     21  S   UNL     1      50.046   5.864  18.413  0.00  0.00    +0.000 S 
ATOM     22  C   UNL     1      48.881   4.825  17.732  0.00  0.00    +0.000 A 
ATOM     23  N   UNL     1      48.520   3.677  18.363  0.00  0.00    +0.000 NA
ATOM     24  C   UNL     1      47.657   2.966  17.718  0.00  0.00    +0.000 A 
ATOM     25  N   UNL     1      47.107   3.310  16.511  0.00  0.00    +0.000 N 
ATOM     26  C   UNL     1      47.403   4.487  15.861  0.00  0.00    +0.000 A 
ATOM     27  O   UNL     1      46.826   4.807  14.826  0.00  0.00    +0.000 OA
ATOM     28  C   UNL     1      48.407   5.298  16.521  0.00  0.00    +0.000 A 
ATOM     29  H   UNL     1      46.414   2.721  16.074  0.00  0.00    +0.000 HD
ENDBRANCH  16  19
ENDBRANCH   1  15
BRANCH   1  30
ATOM     30  C   UNL     1      48.742   9.370  12.951  0.00  0.00    +0.000 C 
BRANCH  30  31
ATOM     31  C   UNL     1      49.149  10.762  13.444  0.00  0.00    +0.000 C 
BRANCH  31  32
ATOM     32  N   UNL     1      48.593  11.088  14.752  0.00  0.00    +0.000 NA
ATOM     33  H   UNL     1      48.850  12.044  15.000  0.00  0.00    +0.000 HD
ATOM     34  H   UNL     1      49.005  10.488  15.466  0.00  0.00    +0.000 HD
ENDBRANCH  31  32
ENDBRANCH  30  31
ENDBRANCH   1  30
TORSDOF 8
ENDMDL
MODEL 6
REMARK VINA RESULT:    -7.216      2.248      3.157
REMARK INTER + INTRA:         -10.908
REMARK INTER:                  -9.638
REMARK INTRA:                  -1.270
REMARK UNBOUND:                -0.528
REMARK  Name = 
REMARK  8 active torsions:
REMARK  status: ('A' for Active; 'I' for Inactive)
REMARK    1  A    between atoms: N_1  and  C_2
REMARK    2  A    between atoms: C_2  and  C_3
REMARK    3  A    between atoms: C_3  and  C_4
REMARK    4  A    between atoms: C_4  and  N_5
REMARK    5  A    between atoms: C_4  and  C_18
REMARK    6  A    between atoms: C_6  and  C_8
REMARK    7  A    between atoms: C_21  and  O_22
REMARK    8  A    between atoms: O_22  and  C_23
REMARK                            x       y       z     vdW  Elec       q    Type
REMARK                         _______ _______ _______ _____ _____    ______ ____
ROOT
ATOM      1  C   UNL     1      48.126   7.658  13.686  0.00  0.00    +0.000 C 
ENDROOT
BRANCH   1   2
ATOM      2  C   UNL     1      46.988   6.939  12.974  0.00  0.00    +0.000 A 
ATOM      3  C   UNL     1      46.174   7.684  12.105  0.00  0.00    +0.000 A 
ATOM      4  C   UNL     1      45.179   7.069  11.345  0.00  0.00    +0.000 A 
ATOM      5  C   UNL     1      44.996   5.688  11.419  0.00  0.00    +0.000 A 
ATOM      6  C   UNL     1      45.708   4.954  12.368  0.00  0.00    +0.000 A 
ATOM      7  C   UNL     1      46.693   5.578  13.149  0.00  0.00    +0.000 A 
BRANCH   5   8
ATOM      8  O   UNL     1      44.094   5.010  10.628  0.00  0.00    +0.000 OA
BRANCH   8   9
ATOM      9  C   UNL     1      44.601   4.064   9.736  0.00  0.00    +0.000 A 
ATOM     10  C   UNL     1      45.419   4.540   8.722  0.00  0.00    +0.000 A 
ATOM     11  C   UNL     1      45.988   3.618   7.844  0.00  0.00    +0.000 A 
ATOM     12  C   UNL     1      45.715   2.264   8.003  0.00  0.00    +0.000 A 
ATOM     13  C   UNL     1      44.860   1.885   9.023  0.00  0.00    +0.000 A 
ATOM     14  N   UNL     1      44.286   2.755   9.879  0.00  0.00    +0.000 NA
ENDBRANCH   8   9
ENDBRANCH   5   8
ENDBRANCH   1   2
BRANCH   1  15
ATOM     15  N   UNL     1      47.976   7.462  15.123  0.00  0.00    +0.000 N 
ATOM     16  C   UNL     1      48.554   8.310  16.034  0.00  0.00    +0.000 C 
ATOM     17  O   UNL     1      49.144   9.334  15.701  0.00  0.00    +0.000 OA
ATOM     18  H   UNL     1      47.637   6.555  15.426  0.00  0.00    +0.000 HD
BRANCH  16  19
ATOM     19  C   UNL     1      48.406   7.955  17.449  0.00  0.00    +0.000 A 
ATOM     20  C   UNL     1      48.054   8.933  18.369  0.00  0.00    +0.000 A 
ATOM     21  S   UNL     1      47.956   8.361  19.971  0.00  0.00    +0.000 S 
ATOM     22  C   UNL     1      48.430   6.795  19.497  0.00  0.00    +0.000 A 
ATOM     23  N   UNL     1      48.600   5.811  20.420  0.00  0.00    +0.000 NA
ATOM     24  C   UNL     1      48.996   4.686  19.928  0.00  0.00    +0.000 A 
ATOM     25  N   UNL     1      49.217   4.450  18.596  0.00  0.00    +0.000 N 
ATOM     26  C   UNL     1      49.007   5.399  17.621  0.00  0.00    +0.000 A 
ATOM     27  O   UNL     1      49.129   5.129  16.430  0.00  0.00    +0.000 OA
ATOM     28  C   UNL     1      48.610   6.698  18.129  0.00  0.00    +0.000 A 
ATOM     29  H   UNL     1      49.499   3.535  18.274  0.00  0.00    +0.000 HD
ENDBRANCH  16  19
ENDBRANCH   1  15
BRANCH   1  30
ATOM     30  C   UNL     1      49.557   7.269  13.253  0.00  0.00    +0.000 C 
BRANCH  30  31
ATOM     31  C   UNL     1      50.208   8.191  12.217  0.00  0.00    +0.000 C 
BRANCH  31  32
ATOM     32  N   UNL     1      50.982   7.468  11.216  0.00  0.00    +0.000 NA
ATOM     33  H   UNL     1      51.560   6.766  11.678  0.00  0.00    +0.000 HD
ATOM     34  H   UNL     1      51.627   8.104  10.747  0.00  0.00    +0.000 HD
ENDBRANCH  31  32
ENDBRANCH  30  31
ENDBRANCH   1  30
TORSDOF 8
ENDMDL
MODEL 7
REMARK VINA RESULT:    -6.993      4.820      7.401
REMARK INTER + INTRA:         -10.587
REMARK INTER:                  -9.011
REMARK INTRA:                  -1.576
REMARK UNBOUND:                -0.528
REMARK  Name = 
REMARK  8 active torsions:
REMARK  status: ('A' for Active; 'I' for Inactive)
REMARK    1  A    between atoms: N_1  and  C_2
REMARK    2  A    between atoms: C_2  and  C_3
REMARK    3  A    between atoms: C_3  and  C_4
REMARK    4  A    between atoms: C_4  and  N_5
REMARK    5  A    between atoms: C_4  and  C_18
REMARK    6  A    between atoms: C_6  and  C_8
REMARK    7  A    between atoms: C_21  and  O_22
REMARK    8  A    between atoms: O_22  and  C_23
REMARK                            x       y       z     vdW  Elec       q    Type
REMARK                         _______ _______ _______ _____ _____    ______ ____
ROOT
ATOM      1  C   UNL     1      47.866   8.261  12.503  0.00  0.00    +0.000 C 
ENDROOT
BRANCH   1   2
ATOM      2  C   UNL     1      49.236   8.584  11.921  0.00  0.00    +0.000 A 
ATOM      3  C   UNL     1      50.087   7.516  11.594  0.00  0.00    +0.000 A 
ATOM      4  C   UNL     1      51.312   7.737  10.965  0.00  0.00    +0.000 A 
ATOM      5  C   UNL     1      51.699   9.033  10.623  0.00  0.00    +0.000 A 
ATOM      6  C   UNL     1      50.925  10.112  11.052  0.00  0.00    +0.000 A 
ATOM      7  C   UNL     1      49.704   9.890  11.707  0.00  0.00    +0.000 A 
BRANCH   5   8
ATOM      8  O   UNL     1      52.851   9.309   9.919  0.00  0.00    +0.000 OA
BRANCH   8   9
ATOM      9  C   UNL     1      52.816   9.147   8.534  0.00  0.00    +0.000 A 
ATOM     10  C   UNL     1      52.625  10.294   7.778  0.00  0.00    +0.000 A 
ATOM     11  C   UNL     1      52.639  10.179   6.388  0.00  0.00    +0.000 A 
ATOM     12  C   UNL     1      52.833   8.931   5.807  0.00  0.00    +0.000 A 
ATOM     13  C   UNL     1      52.982   7.837   6.642  0.00  0.00    +0.000 A 
ATOM     14  N   UNL     1      52.961   7.916   7.988  0.00  0.00    +0.000 NA
ENDBRANCH   8   9
ENDBRANCH   5   8
ENDBRANCH   1   2
BRANCH   1  15
ATOM     15  N   UNL     1      47.320   7.107  11.799  0.00  0.00    +0.000 N 
ATOM     16  C   UNL     1      46.000   7.040  11.431  0.00  0.00    +0.000 C 
ATOM     17  O   UNL     1      45.225   7.981  11.582  0.00  0.00    +0.000 OA
ATOM     18  H   UNL     1      47.884   6.263  11.802  0.00  0.00    +0.000 HD
BRANCH  16  19
ATOM     19  C   UNL     1      45.552   5.790  10.809  0.00  0.00    +0.000 A 
ATOM     20  C   UNL     1      45.799   5.566   9.462  0.00  0.00    +0.000 A 
ATOM     21  S   UNL     1      45.186   4.082   8.891  0.00  0.00    +0.000 S 
ATOM     22  C   UNL     1      44.525   3.709  10.416  0.00  0.00    +0.000 A 
ATOM     23  N   UNL     1      43.801   2.573  10.600  0.00  0.00    +0.000 NA
ATOM     24  C   UNL     1      43.328   2.434  11.792  0.00  0.00    +0.000 A 
ATOM     25  N   UNL     1      43.530   3.316  12.822  0.00  0.00    +0.000 N 
ATOM     26  C   UNL     1      44.299   4.451  12.696  0.00  0.00    +0.000 A 
ATOM     27  O   UNL     1      44.534   5.172  13.660  0.00  0.00    +0.000 OA
ATOM     28  C   UNL     1      44.812   4.679  11.359  0.00  0.00    +0.000 A 
ATOM     29  H   UNL     1      43.154   3.131  13.741  0.00  0.00    +0.000 HD
ENDBRANCH  16  19
ENDBRANCH   1  15
BRANCH   1  30
ATOM     30  C   UNL     1      47.812   8.015  14.027  0.00  0.00    +0.000 C 
BRANCH  30  31
ATOM     31  C   UNL     1      48.299   6.640  14.494  0.00  0.00    +0.000 C 
BRANCH  31  32
ATOM     32  N   UNL     1      47.235   5.646  14.547  0.00  0.00    +0.000 NA
ATOM     33  H   UNL     1      46.733   5.734  15.430  0.00  0.00    +0.000 HD
ATOM     34  H   UNL     1      47.633   4.707  14.538  0.00  0.00    +0.000 HD
ENDBRANCH  31  32
ENDBRANCH  30  31
ENDBRANCH   1  30
TORSDOF 8
ENDMDL
MODEL 8
REMARK VINA RESULT:    -6.971      3.807      8.345
REMARK INTER + INTRA:         -10.555
REMARK INTER:                  -9.011
REMARK INTRA:                  -1.544
REMARK UNBOUND:                -0.528
REMARK  Name = 
REMARK  8 active torsions:
REMARK  status: ('A' for Active; 'I' for Inactive)
REMARK    1  A    between atoms: N_1  and  C_2
REMARK    2  A    between atoms: C_2  and  C_3
REMARK    3  A    between atoms: C_3  and  C_4
REMARK    4  A    between atoms: C_4  and  N_5
REMARK    5  A    between atoms: C_4  and  C_18
REMARK    6  A    between atoms: C_6  and  C_8
REMARK    7  A    between atoms: C_21  and  O_22
REMARK    8  A    between atoms: O_22  and  C_23
REMARK                            x       y       z     vdW  Elec       q    Type
REMARK                         _______ _______ _______ _____ _____    ______ ____
ROOT
ATOM      1  C   UNL     1      49.091   6.843  16.276  0.00  0.00    +0.000 C 
ENDROOT
BRANCH   1   2
ATOM      2  C   UNL     1      50.041   5.817  16.878  0.00  0.00    +0.000 A 
ATOM      3  C   UNL     1      51.418   6.098  16.861  0.00  0.00    +0.000 A 
ATOM      4  C   UNL     1      52.334   5.251  17.484  0.00  0.00    +0.000 A 
ATOM      5  C   UNL     1      51.888   4.117  18.163  0.00  0.00    +0.000 A 
ATOM      6  C   UNL     1      50.542   3.758  18.083  0.00  0.00    +0.000 A 
ATOM      7  C   UNL     1      49.624   4.599  17.435  0.00  0.00    +0.000 A 
BRANCH   5   8
ATOM      8  O   UNL     1      52.731   3.292  18.876  0.00  0.00    +0.000 OA
BRANCH   8   9
ATOM      9  C   UNL     1      53.361   2.258  18.182  0.00  0.00    +0.000 A 
ATOM     10  C   UNL     1      54.551   2.573  17.542  0.00  0.00    +0.000 A 
ATOM     11  C   UNL     1      55.238   1.554  16.883  0.00  0.00    +0.000 A 
ATOM     12  C   UNL     1      54.711   0.267  16.880  0.00  0.00    +0.000 A 
ATOM     13  C   UNL     1      53.501   0.054  17.516  0.00  0.00    +0.000 A 
ATOM     14  N   UNL     1      52.809   1.022  18.151  0.00  0.00    +0.000 NA
ENDBRANCH   8   9
ENDBRANCH   5   8
ENDBRANCH   1   2
BRANCH   1  15
ATOM     15  N   UNL     1      48.042   6.138  15.549  0.00  0.00    +0.000 N 
ATOM     16  C   UNL     1      48.037   6.060  14.178  0.00  0.00    +0.000 C 
ATOM     17  O   UNL     1      48.959   6.489  13.489  0.00  0.00    +0.000 OA
ATOM     18  H   UNL     1      47.199   5.915  16.067  0.00  0.00    +0.000 HD
BRANCH  16  19
ATOM     19  C   UNL     1      46.881   5.401  13.561  0.00  0.00    +0.000 A 
ATOM     20  C   UNL     1      46.823   4.015  13.518  0.00  0.00    +0.000 A 
ATOM     21  S   UNL     1      45.432   3.413  12.740  0.00  0.00    +0.000 S 
ATOM     22  C   UNL     1      44.882   4.986  12.389  0.00  0.00    +0.000 A 
ATOM     23  N   UNL     1      43.744   5.181  11.671  0.00  0.00    +0.000 NA
ATOM     24  C   UNL     1      43.466   6.421  11.446  0.00  0.00    +0.000 A 
ATOM     25  N   UNL     1      44.210   7.483  11.891  0.00  0.00    +0.000 N 
ATOM     26  C   UNL     1      45.338   7.335  12.665  0.00  0.00    +0.000 A 
ATOM     27  O   UNL     1      45.931   8.308  13.122  0.00  0.00    +0.000 OA
ATOM     28  C   UNL     1      45.723   5.958  12.903  0.00  0.00    +0.000 A 
ATOM     29  H   UNL     1      43.918   8.431  11.704  0.00  0.00    +0.000 HD
ENDBRANCH  16  19
ENDBRANCH   1  15
BRANCH   1  30
ATOM     30  C   UNL     1      48.457   7.849  17.261  0.00  0.00    +0.000 C 
BRANCH  30  31
ATOM     31  C   UNL     1      48.213   9.256  16.705  0.00  0.00    +0.000 C 
BRANCH  31  32
ATOM     32  N   UNL     1      47.478   9.252  15.446  0.00  0.00    +0.000 NA
ATOM     33  H   UNL     1      47.195  10.205  15.217  0.00  0.00    +0.000 HD
ATOM     34  H   UNL     1      46.616   8.715  15.547  0.00  0.00    +0.000 HD
ENDBRANCH  31  32
ENDBRANCH  30  31
ENDBRANCH   1  30
TORSDOF 8
ENDMDL
MODEL 9
REMARK VINA RESULT:    -6.864      3.619      8.134
REMARK INTER + INTRA:         -10.401
REMARK INTER:                  -8.894
REMARK INTRA:                  -1.508
REMARK UNBOUND:                -0.528
REMARK  Name = 
REMARK  8 active torsions:
REMARK  status: ('A' for Active; 'I' for Inactive)
REMARK    1  A    between atoms: N_1  and  C_2
REMARK    2  A    between atoms: C_2  and  C_3
REMARK    3  A    between atoms: C_3  and  C_4
REMARK    4  A    between atoms: C_4  and  N_5
REMARK    5  A    between atoms: C_4  and  C_18
REMARK    6  A    between atoms: C_6  and  C_8
REMARK    7  A    between atoms: C_21  and  O_22
REMARK    8  A    between atoms: O_22  and  C_23
REMARK                            x       y       z     vdW  Elec       q    Type
REMARK                         _______ _______ _______ _____ _____    ______ ____
ROOT
ATOM      1  C   UNL     1      49.037   7.894  15.288  0.00  0.00    +0.000 C 
ENDROOT
BRANCH   1   2
ATOM      2  C   UNL     1      49.574   6.765  16.157  0.00  0.00    +0.000 A 
ATOM      3  C   UNL     1      50.966   6.594  16.236  0.00  0.00    +0.000 A 
ATOM      4  C   UNL     1      51.527   5.645  17.091  0.00  0.00    +0.000 A 
ATOM      5  C   UNL     1      50.707   4.866  17.907  0.00  0.00    +0.000 A 
ATOM      6  C   UNL     1      49.322   4.936  17.749  0.00  0.00    +0.000 A 
ATOM      7  C   UNL     1      48.758   5.874  16.871  0.00  0.00    +0.000 A 
BRANCH   5   8
ATOM      8  O   UNL     1      51.203   3.979  18.837  0.00  0.00    +0.000 OA
BRANCH   8   9
ATOM      9  C   UNL     1      52.086   2.996  18.386  0.00  0.00    +0.000 A 
ATOM     10  C   UNL     1      51.529   1.927  17.701  0.00  0.00    +0.000 A 
ATOM     11  C   UNL     1      52.384   0.952  17.187  0.00  0.00    +0.000 A 
ATOM     12  C   UNL     1      53.755   1.076  17.382  0.00  0.00    +0.000 A 
ATOM     13  C   UNL     1      54.218   2.160  18.108  0.00  0.00    +0.000 A 
ATOM     14  N   UNL     1      53.413   3.110  18.627  0.00  0.00    +0.000 NA
ENDBRANCH   8   9
ENDBRANCH   5   8
ENDBRANCH   1   2
BRANCH   1  15
ATOM     15  N   UNL     1      47.857   7.415  14.576  0.00  0.00    +0.000 N 
ATOM     16  C   UNL     1      47.954   6.746  13.382  0.00  0.00    +0.000 C 
ATOM     17  O   UNL     1      49.033   6.424  12.891  0.00  0.00    +0.000 OA
ATOM     18  H   UNL     1      46.963   7.797  14.867  0.00  0.00    +0.000 HD
BRANCH  16  19
ATOM     19  C   UNL     1      46.693   6.396  12.720  0.00  0.00    +0.000 A 
ATOM     20  C   UNL     1      45.936   7.390  12.115  0.00  0.00    +0.000 A 
ATOM     21  S   UNL     1      44.487   6.820  11.422  0.00  0.00    +0.000 S 
ATOM     22  C   UNL     1      44.797   5.231  11.952  0.00  0.00    +0.000 A 
ATOM     23  N   UNL     1      43.897   4.237  11.730  0.00  0.00    +0.000 NA
ATOM     24  C   UNL     1      44.241   3.093  12.217  0.00  0.00    +0.000 A 
ATOM     25  N   UNL     1      45.412   2.848  12.886  0.00  0.00    +0.000 N 
ATOM     26  C   UNL     1      46.376   3.811  13.088  0.00  0.00    +0.000 A 
ATOM     27  O   UNL     1      47.451   3.537  13.612  0.00  0.00    +0.000 OA
ATOM     28  C   UNL     1      46.014   5.128  12.603  0.00  0.00    +0.000 A 
ATOM     29  H   UNL     1      45.633   1.920  13.217  0.00  0.00    +0.000 HD
ENDBRANCH  16  19
ENDBRANCH   1  15
BRANCH   1  30
ATOM     30  C   UNL     1      48.707   9.217  16.013  0.00  0.00    +0.000 C 
BRANCH  30  31
ATOM     31  C   UNL     1      49.033  10.497  15.235  0.00  0.00    +0.000 C 
BRANCH  31  32
ATOM     32  N   UNL     1      48.912  10.333  13.792  0.00  0.00    +0.000 NA
ATOM     33  H   UNL     1      48.530  11.187  13.385  0.00  0.00    +0.000 HD
ATOM     34  H   UNL     1      48.243   9.593  13.579  0.00  0.00    +0.000 HD
ENDBRANCH  31  32
ENDBRANCH  30  31
ENDBRANCH   1  30
TORSDOF 8
ENDMDL
