MODEL 1
REMARK VINA RESULT:    -7.282      0.000      0.000
REMARK INTER + INTRA:         -10.106
REMARK INTER:                  -9.623
REMARK INTRA:                  -0.483
REMARK UNBOUND:                -0.483
REMARK  Name = 
REMARK  6 active torsions:
REMARK  status: ('A' for Active; 'I' for Inactive)
REMARK    1  A    between atoms: N_1  and  C_2
REMARK    2  A    between atoms: C_2  and  C_3
REMARK    3  A    between atoms: C_3  and  C_4
REMARK    4  A    between atoms: C_7  and  O_8
REMARK    5  A    between atoms: O_8  and  C_9
REMARK    6  A    between atoms: C_9  and  C_10
REMARK                            x       y       z     vdW  Elec       q    Type
REMARK                         _______ _______ _______ _____ _____    ______ ____
ROOT
ATOM      1  C   UNL     1      46.165   2.182   7.969  0.00  0.00    +0.000 A 
ATOM      2  C   UNL     1      45.240   1.597   8.843  0.00  0.00    +0.000 A 
ATOM      3  C   UNL     1      44.350   2.397   9.565  0.00  0.00    +0.000 A 
ATOM      4  C   UNL     1      44.379   3.785   9.426  0.00  0.00    +0.000 A 
ATOM      5  C   UNL     1      45.250   4.364   8.504  0.00  0.00    +0.000 A 
ATOM      6  C   UNL     1      46.143   3.570   7.790  0.00  0.00    +0.000 A 
ENDROOT
BRANCH   1   7
ATOM      7  C   UNL     1      47.176   1.351   7.220  0.00  0.00    +0.000 C 
BRANCH   7   8
ATOM      8  C   UNL     1      48.298   2.203   6.621  0.00  0.00    +0.000 C 
BRANCH   8   9
ATOM      9  N   UNL     1      48.385   2.001   5.174  0.00  0.00    +0.000 NA
ATOM     10  H   UNL     1      49.346   1.773   4.924  0.00  0.00    +0.000 HD
ATOM     11  H   UNL     1      48.163   2.871   4.692  0.00  0.00    +0.000 HD
ENDBRANCH   8   9
ENDBRANCH   7   8
ENDBRANCH   1   7
BRANCH   4  12
ATOM     12  O   UNL     1      43.532   4.490  10.239  0.00  0.00    +0.000 OA
BRANCH  12  13
ATOM     13  C   UNL     1      43.541   4.069  11.610  0.00  0.00    +0.000 C 
BRANCH  13  14
ATOM     14  C   UNL     1      44.787   4.557  12.307  0.00  0.00    +0.000 A 
ATOM     15  C   UNL     1      45.084   5.919  12.324  0.00  0.00    +0.000 A 
ATOM     16  C   UNL     1      46.199   6.354  13.031  0.00  0.00    +0.000 A 
ATOM     17  C   UNL     1      46.983   5.422  13.702  0.00  0.00    +0.000 A 
ATOM     18  C   UNL     1      46.614   4.089  13.642  0.00  0.00    +0.000 A 
ATOM     19  N   UNL     1      45.535   3.637  12.969  0.00  0.00    +0.000 NA
ENDBRANCH  13  14
ENDBRANCH  12  13
ENDBRANCH   4  12
TORSDOF 6
ENDMDL
MODEL 2
REMARK VINA RESULT:    -6.753      1.976      6.180
REMARK INTER + INTRA:          -9.408
REMARK INTER:                  -8.967
REMARK INTRA:                  -0.441
REMARK UNBOUND:                -0.483
REMARK  Name = 
REMARK  6 active torsions:
REMARK  status: ('A' for Active; 'I' for Inactive)
REMARK    1  A    between atoms: N_1  and  C_2
REMARK    2  A    between atoms: C_2  and  C_3
REMARK    3  A    between atoms: C_3  and  C_4
REMARK    4  A    between atoms: C_7  and  O_8
REMARK    5  A    between atoms: O_8  and  C_9
REMARK    6  A    between atoms: C_9  and  C_10
REMARK                            x       y       z     vdW  Elec       q    Type
REMARK                         _______ _______ _______ _____ _____    ______ ____
ROOT
ATOM      1  C   UNL     1      46.536   5.773  12.636  0.00  0.00    +0.000 A 
ATOM      2  C   UNL     1      46.362   6.337  11.365  0.00  0.00    +0.000 A 
ATOM      3  C   UNL     1      45.558   5.699  10.417  0.00  0.00    +0.000 A 
ATOM      4  C   UNL     1      44.926   4.495  10.724  0.00  0.00    +0.000 A 
ATOM      5  C   UNL     1      45.039   3.969  12.011  0.00  0.00    +0.000 A 
ATOM      6  C   UNL     1      45.847   4.598  12.955  0.00  0.00    +0.000 A 
ENDROOT
BRANCH   1   7
ATOM      7  C   UNL     1      47.443   6.406  13.662  0.00  0.00    +0.000 C 
BRANCH   7   8
ATOM      8  C   UNL     1      47.686   7.891  13.384  0.00  0.00    +0.000 C 
BRANCH   8   9
ATOM      9  N   UNL     1      46.652   8.712  14.015  0.00  0.00    +0.000 NA
ATOM     10  H   UNL     1      46.717   8.614  15.028  0.00  0.00    +0.000 HD
ATOM     11  H   UNL     1      45.731   8.365  13.753  0.00  0.00    +0.000 HD
ENDBRANCH   8   9
ENDBRANCH   7   8
ENDBRANCH   1   7
BRANCH   4  12
ATOM     12  O   UNL     1      44.232   3.900   9.704  0.00  0.00    +0.000 OA
BRANCH  12  13
ATOM     13  C   UNL     1      44.532   2.510   9.516  0.00  0.00    +0.000 C 
BRANCH  13  14
ATOM     14  C   UNL     1      45.499   2.326   8.372  0.00  0.00    +0.000 A 
ATOM     15  C   UNL     1      45.683   3.352   7.447  0.00  0.00    +0.000 A 
ATOM     16  C   UNL     1      46.629   3.187   6.441  0.00  0.00    +0.000 A 
ATOM     17  C   UNL     1      47.364   2.009   6.388  0.00  0.00    +0.000 A 
ATOM     18  C   UNL     1      47.126   1.042   7.351  0.00  0.00    +0.000 A 
ATOM     19  N   UNL     1      46.220   1.176   8.342  0.00  0.00    +0.000 NA
ENDBRANCH  13  14
ENDBRANCH  12  13
ENDBRANCH   4  12
TORSDOF 6
ENDMDL
MODEL 3
REMARK VINA RESULT:    -6.441      1.614      2.167
REMARK INTER + INTRA:          -8.995
REMARK INTER:                  -8.591
REMARK INTRA:                  -0.404
REMARK UNBOUND:                -0.483
REMARK  Name = 
REMARK  6 active torsions:
REMARK  status: ('A' for Active; 'I' for Inactive)
REMARK    1  A    between atoms: N_1  and  C_2
REMARK    2  A    between atoms: C_2  and  C_3
REMARK    3  A    between atoms: C_3  and  C_4
REMARK    4  A    between atoms: C_7  and  O_8
REMARK    5  A    between atoms: O_8  and  C_9
REMARK    6  A    between atoms: C_9  and  C_10
REMARK                            x       y       z     vdW  Elec       q    Type
REMARK                         _______ _______ _______ _____ _____    ______ ____
ROOT
ATOM      1  C   UNL     1      45.807   2.969   8.006  0.00  0.00    +0.000 A 
ATOM      2  C   UNL     1      45.069   2.273   8.972  0.00  0.00    +0.000 A 
ATOM      3  C   UNL     1      44.583   2.938  10.101  0.00  0.00    +0.000 A 
ATOM      4  C   UNL     1      44.834   4.298  10.279  0.00  0.00    +0.000 A 
ATOM      5  C   UNL     1      45.506   5.008   9.285  0.00  0.00    +0.000 A 
ATOM      6  C   UNL     1      45.998   4.346   8.163  0.00  0.00    +0.000 A 
ENDROOT
BRANCH   1   7
ATOM      7  C   UNL     1      46.394   2.268   6.807  0.00  0.00    +0.000 C 
BRANCH   7   8
ATOM      8  C   UNL     1      47.920   2.180   6.875  0.00  0.00    +0.000 C 
BRANCH   8   9
ATOM      9  N   UNL     1      48.484   1.918   5.550  0.00  0.00    +0.000 NA
ATOM     10  H   UNL     1      48.164   2.636   4.901  0.00  0.00    +0.000 HD
ATOM     11  H   UNL     1      48.127   1.033   5.194  0.00  0.00    +0.000 HD
ENDBRANCH   8   9
ENDBRANCH   7   8
ENDBRANCH   1   7
BRANCH   4  12
ATOM     12  O   UNL     1      44.396   4.843  11.457  0.00  0.00    +0.000 OA
BRANCH  12  13
ATOM     13  C   UNL     1      45.404   4.947  12.471  0.00  0.00    +0.000 C 
BRANCH  13  14
ATOM     14  C   UNL     1      45.983   6.340  12.504  0.00  0.00    +0.000 A 
ATOM     15  C   UNL     1      47.316   6.546  12.150  0.00  0.00    +0.000 A 
ATOM     16  C   UNL     1      47.809   7.846  12.120  0.00  0.00    +0.000 A 
ATOM     17  C   UNL     1      46.962   8.900  12.440  0.00  0.00    +0.000 A 
ATOM     18  C   UNL     1      45.649   8.610  12.772  0.00  0.00    +0.000 A 
ATOM     19  N   UNL     1      45.141   7.361  12.805  0.00  0.00    +0.000 NA
ENDBRANCH  13  14
ENDBRANCH  12  13
ENDBRANCH   4  12
TORSDOF 6
ENDMDL
MODEL 4
REMARK VINA RESULT:    -6.326      2.106      6.301
REMARK INTER + INTRA:          -8.843
REMARK INTER:                  -8.465
REMARK INTRA:                  -0.378
REMARK UNBOUND:                -0.483
REMARK  Name = 
REMARK  6 active torsions:
REMARK  status: ('A' for Active; 'I' for Inactive)
REMARK    1  A    between atoms: N_1  and  C_2
REMARK    2  A    between atoms: C_2  and  C_3
REMARK    3  A    between atoms: C_3  and  C_4
REMARK    4  A    between atoms: C_7  and  O_8
REMARK    5  A    between atoms: O_8  and  C_9
REMARK    6  A    between atoms: C_9  and  C_10
REMARK                            x       y       z     vdW  Elec       q    Type
REMARK                         _______ _______ _______ _____ _____    ______ ____
ROOT
ATOM      1  C   UNL     1      46.934   6.118  12.966  0.00  0.00    +0.000 A 
ATOM      2  C   UNL     1      46.509   4.847  13.373  0.00  0.00    +0.000 A 
ATOM      3  C   UNL     1      45.642   4.103  12.568  0.00  0.00    +0.000 A 
ATOM      4  C   UNL     1      45.187   4.621  11.356  0.00  0.00    +0.000 A 
ATOM      5  C   UNL     1      45.665   5.855  10.915  0.00  0.00    +0.000 A 
ATOM      6  C   UNL     1      46.523   6.601  11.719  0.00  0.00    +0.000 A 
ENDROOT
BRANCH   1   7
ATOM      7  C   UNL     1      47.823   6.969  13.838  0.00  0.00    +0.000 C 
BRANCH   7   8
ATOM      8  C   UNL     1      47.405   8.441  13.830  0.00  0.00    +0.000 C 
BRANCH   8   9
ATOM      9  N   UNL     1      47.482   9.008  15.177  0.00  0.00    +0.000 NA
ATOM     10  H   UNL     1      47.378   8.260  15.862  0.00  0.00    +0.000 HD
ATOM     11  H   UNL     1      46.700   9.643  15.327  0.00  0.00    +0.000 HD
ENDBRANCH   8   9
ENDBRANCH   7   8
ENDBRANCH   1   7
BRANCH   4  12
ATOM     12  O   UNL     1      44.272   3.859  10.680  0.00  0.00    +0.000 OA
BRANCH  12  13
ATOM     13  C   UNL     1      44.221   4.111   9.269  0.00  0.00    +0.000 C 
BRANCH  13  14
ATOM     14  C   UNL     1      45.294   3.331   8.551  0.00  0.00    +0.000 A 
ATOM     15  C   UNL     1      45.438   1.965   8.791  0.00  0.00    +0.000 A 
ATOM     16  C   UNL     1      46.388   1.253   8.068  0.00  0.00    +0.000 A 
ATOM     17  C   UNL     1      47.164   1.919   7.126  0.00  0.00    +0.000 A 
ATOM     18  C   UNL     1      46.952   3.275   6.942  0.00  0.00    +0.000 A 
ATOM     19  N   UNL     1      46.035   3.992   7.625  0.00  0.00    +0.000 NA
ENDBRANCH  13  14
ENDBRANCH  12  13
ENDBRANCH   4  12
TORSDOF 6
ENDMDL
MODEL 5
REMARK VINA RESULT:    -6.025      1.353      2.073
REMARK INTER + INTRA:          -8.445
REMARK INTER:                  -8.382
REMARK INTRA:                  -0.062
REMARK UNBOUND:                -0.483
REMARK  Name = 
REMARK  6 active torsions:
REMARK  status: ('A' for Active; 'I' for Inactive)
REMARK    1  A    between atoms: N_1  and  C_2
REMARK    2  A    between atoms: C_2  and  C_3
REMARK    3  A    between atoms: C_3  and  C_4
REMARK    4  A    between atoms: C_7  and  O_8
REMARK    5  A    between atoms: O_8  and  C_9
REMARK    6  A    between atoms: C_9  and  C_10
REMARK                            x       y       z     vdW  Elec       q    Type
REMARK                         _______ _______ _______ _____ _____    ______ ____
ROOT
ATOM      1  C   UNL     1      45.651   3.339   8.058  0.00  0.00    +0.000 A 
ATOM      2  C   UNL     1      45.688   4.628   8.603  0.00  0.00    +0.000 A 
ATOM      3  C   UNL     1      45.079   4.890   9.834  0.00  0.00    +0.000 A 
ATOM      4  C   UNL     1      44.426   3.872  10.528  0.00  0.00    +0.000 A 
ATOM      5  C   UNL     1      44.449   2.573  10.022  0.00  0.00    +0.000 A 
ATOM      6  C   UNL     1      45.047   2.311   8.792  0.00  0.00    +0.000 A 
ENDROOT
BRANCH   1   7
ATOM      7  C   UNL     1      46.247   3.037   6.707  0.00  0.00    +0.000 C 
BRANCH   7   8
ATOM      8  C   UNL     1      47.740   2.714   6.790  0.00  0.00    +0.000 C 
BRANCH   8   9
ATOM      9  N   UNL     1      47.954   1.267   6.857  0.00  0.00    +0.000 NA
ATOM     10  H   UNL     1      48.344   0.945   5.972  0.00  0.00    +0.000 HD
ATOM     11  H   UNL     1      47.060   0.793   6.965  0.00  0.00    +0.000 HD
ENDBRANCH   8   9
ENDBRANCH   7   8
ENDBRANCH   1   7
BRANCH   4  12
ATOM     12  O   UNL     1      43.784   4.243  11.679  0.00  0.00    +0.000 OA
BRANCH  12  13
ATOM     13  C   UNL     1      43.988   5.612  12.056  0.00  0.00    +0.000 C 
BRANCH  13  14
ATOM     14  C   UNL     1      45.276   5.764  12.827  0.00  0.00    +0.000 A 
ATOM     15  C   UNL     1      45.735   4.717  13.624  0.00  0.00    +0.000 A 
ATOM     16  C   UNL     1      46.959   4.853  14.270  0.00  0.00    +0.000 A 
ATOM     17  C   UNL     1      47.689   6.024  14.103  0.00  0.00    +0.000 A 
ATOM     18  C   UNL     1      47.165   7.013  13.287  0.00  0.00    +0.000 A 
ATOM     19  N   UNL     1      45.984   6.908  12.643  0.00  0.00    +0.000 NA
ENDBRANCH  13  14
ENDBRANCH  12  13
ENDBRANCH   4  12
TORSDOF 6
ENDMDL
MODEL 6
REMARK VINA RESULT:    -5.943      1.645      5.946
REMARK INTER + INTRA:          -8.337
REMARK INTER:                  -8.028
REMARK INTRA:                  -0.309
REMARK UNBOUND:                -0.483
REMARK  Name = 
REMARK  6 active torsions:
REMARK  status: ('A' for Active; 'I' for Inactive)
REMARK    1  A    between atoms: N_1  and  C_2
REMARK    2  A    between atoms: C_2  and  C_3
REMARK    3  A    between atoms: C_3  and  C_4
REMARK    4  A    between atoms: C_7  and  O_8
REMARK    5  A    between atoms: O_8  and  C_9
REMARK    6  A    between atoms: C_9  and  C_10
REMARK                            x       y       z     vdW  Elec       q    Type
REMARK                         _______ _______ _______ _____ _____    ______ ____
ROOT
ATOM      1  C   UNL     1      45.590   4.796  12.761  0.00  0.00    +0.000 A 
ATOM      2  C   UNL     1      44.978   3.724  12.100  0.00  0.00    +0.000 A 
ATOM      3  C   UNL     1      44.827   3.747  10.711  0.00  0.00    +0.000 A 
ATOM      4  C   UNL     1      45.278   4.841   9.971  0.00  0.00    +0.000 A 
ATOM      5  C   UNL     1      45.951   5.876  10.619  0.00  0.00    +0.000 A 
ATOM      6  C   UNL     1      46.096   5.859  12.004  0.00  0.00    +0.000 A 
ENDROOT
BRANCH   1   7
ATOM      7  C   UNL     1      45.717   4.827  14.264  0.00  0.00    +0.000 C 
BRANCH   7   8
ATOM      8  C   UNL     1      47.121   4.442  14.736  0.00  0.00    +0.000 C 
BRANCH   8   9
ATOM      9  N   UNL     1      47.460   3.087  14.299  0.00  0.00    +0.000 NA
ATOM     10  H   UNL     1      48.310   2.785  14.773  0.00  0.00    +0.000 HD
ATOM     11  H   UNL     1      47.675   3.092  13.303  0.00  0.00    +0.000 HD
ENDBRANCH   8   9
ENDBRANCH   7   8
ENDBRANCH   1   7
BRANCH   4  12
ATOM     12  O   UNL     1      45.006   4.814   8.630  0.00  0.00    +0.000 OA
BRANCH  12  13
ATOM     13  C   UNL     1      44.578   3.537   8.138  0.00  0.00    +0.000 C 
BRANCH  13  14
ATOM     14  C   UNL     1      45.730   2.800   7.501  0.00  0.00    +0.000 A 
ATOM     15  C   UNL     1      46.420   3.378   6.437  0.00  0.00    +0.000 A 
ATOM     16  C   UNL     1      47.522   2.712   5.911  0.00  0.00    +0.000 A 
ATOM     17  C   UNL     1      47.905   1.494   6.460  0.00  0.00    +0.000 A 
ATOM     18  C   UNL     1      47.170   0.993   7.522  0.00  0.00    +0.000 A 
ATOM     19  N   UNL     1      46.100   1.618   8.057  0.00  0.00    +0.000 NA
ENDBRANCH  13  14
ENDBRANCH  12  13
ENDBRANCH   4  12
TORSDOF 6
ENDMDL
MODEL 7
REMARK VINA RESULT:    -5.641      2.646      4.043
REMARK INTER + INTRA:          -7.937
REMARK INTER:                  -7.554
REMARK INTRA:                  -0.384
REMARK UNBOUND:                -0.483
REMARK  Name = 
REMARK  6 active torsions:
REMARK  status: ('A' for Active; 'I' for Inactive)
REMARK    1  A    between atoms: N_1  and  C_2
REMARK    2  A    between atoms: C_2  and  C_3
REMARK    3  A    between atoms: C_3  and  C_4
REMARK    4  A    between atoms: C_7  and  O_8
REMARK    5  A    between atoms: O_8  and  C_9
REMARK    6  A    between atoms: C_9  and  C_10
REMARK                            x       y       z     vdW  Elec       q    Type
REMARK                         _______ _______ _______ _____ _____    ______ ____
ROOT
ATOM      1  C   UNL     1      45.079   4.283   9.734  0.00  0.00    +0.000 A 
ATOM      2  C   UNL     1      45.624   5.528  10.071  0.00  0.00    +0.000 A 
ATOM      3  C   UNL     1      45.913   5.833  11.404  0.00  0.00    +0.000 A 
ATOM      4  C   UNL     1      45.656   4.903  12.411  0.00  0.00    +0.000 A 
ATOM      5  C   UNL     1      45.180   3.637  12.071  0.00  0.00    +0.000 A 
ATOM      6  C   UNL     1      44.883   3.334  10.744  0.00  0.00    +0.000 A 
ENDROOT
BRANCH   1   7
ATOM      7  C   UNL     1      44.702   3.945   8.313  0.00  0.00    +0.000 C 
BRANCH   7   8
ATOM      8  C   UNL     1      45.832   3.232   7.568  0.00  0.00    +0.000 C 
BRANCH   8   9
ATOM      9  N   UNL     1      46.683   4.197   6.870  0.00  0.00    +0.000 NA
ATOM     10  H   UNL     1      47.581   4.259   7.349  0.00  0.00    +0.000 HD
ATOM     11  H   UNL     1      46.265   5.124   6.924  0.00  0.00    +0.000 HD
ENDBRANCH   8   9
ENDBRANCH   7   8
ENDBRANCH   1   7
BRANCH   4  12
ATOM     12  O   UNL     1      45.887   5.323  13.693  0.00  0.00    +0.000 OA
BRANCH  12  13
ATOM     13  C   UNL     1      47.252   5.671  13.964  0.00  0.00    +0.000 C 
BRANCH  13  14
ATOM     14  C   UNL     1      47.705   5.068  15.271  0.00  0.00    +0.000 A 
ATOM     15  C   UNL     1      47.167   3.855  15.698  0.00  0.00    +0.000 A 
ATOM     16  C   UNL     1      47.649   3.283  16.870  0.00  0.00    +0.000 A 
ATOM     17  C   UNL     1      48.652   3.933  17.580  0.00  0.00    +0.000 A 
ATOM     18  C   UNL     1      49.138   5.131  17.082  0.00  0.00    +0.000 A 
ATOM     19  N   UNL     1      48.694   5.707  15.946  0.00  0.00    +0.000 NA
ENDBRANCH  13  14
ENDBRANCH  12  13
ENDBRANCH   4  12
TORSDOF 6
ENDMDL
MODEL 8
REMARK VINA RESULT:    -5.252      4.330      5.992
REMARK INTER + INTRA:          -7.423
REMARK INTER:                  -7.100
REMARK INTRA:                  -0.323
REMARK UNBOUND:                -0.483
REMARK  Name = 
REMARK  6 active torsions:
REMARK  status: ('A' for Active; 'I' for Inactive)
REMARK    1  A    between atoms: N_1  and  C_2
REMARK    2  A    between atoms: C_2  and  C_3
REMARK    3  A    between atoms: C_3  and  C_4
REMARK    4  A    between atoms: C_7  and  O_8
REMARK    5  A    between atoms: O_8  and  C_9
REMARK    6  A    between atoms: C_9  and  C_10
REMARK                            x       y       z     vdW  Elec       q    Type
REMARK                         _______ _______ _______ _____ _____    ______ ____
ROOT
ATOM      1  C   UNL     1      45.181   5.346  11.607  0.00  0.00    +0.000 A 
ATOM      2  C   UNL     1      45.382   4.541  12.735  0.00  0.00    +0.000 A 
ATOM      3  C   UNL     1      46.497   4.742  13.554  0.00  0.00    +0.000 A 
ATOM      4  C   UNL     1      47.423   5.740  13.251  0.00  0.00    +0.000 A 
ATOM      5  C   UNL     1      47.188   6.588  12.169  0.00  0.00    +0.000 A 
ATOM      6  C   UNL     1      46.081   6.385  11.347  0.00  0.00    +0.000 A 
ENDROOT
BRANCH   1   7
ATOM      7  C   UNL     1      44.020   5.117  10.672  0.00  0.00    +0.000 C 
BRANCH   7   8
ATOM      8  C   UNL     1      42.694   4.966  11.420  0.00  0.00    +0.000 C 
BRANCH   8   9
ATOM      9  N   UNL     1      42.141   6.276  11.766  0.00  0.00    +0.000 NA
ATOM     10  H   UNL     1      42.365   6.489  12.737  0.00  0.00    +0.000 HD
ATOM     11  H   UNL     1      41.125   6.247  11.706  0.00  0.00    +0.000 HD
ENDBRANCH   8   9
ENDBRANCH   7   8
ENDBRANCH   1   7
BRANCH   4  12
ATOM     12  O   UNL     1      48.527   5.803  14.057  0.00  0.00    +0.000 OA
BRANCH  12  13
ATOM     13  C   UNL     1      48.266   6.291  15.381  0.00  0.00    +0.000 C 
BRANCH  13  14
ATOM     14  C   UNL     1      48.518   5.212  16.404  0.00  0.00    +0.000 A 
ATOM     15  C   UNL     1      47.456   4.443  16.877  0.00  0.00    +0.000 A 
ATOM     16  C   UNL     1      47.721   3.409  17.768  0.00  0.00    +0.000 A 
ATOM     17  C   UNL     1      49.034   3.169  18.159  0.00  0.00    +0.000 A 
ATOM     18  C   UNL     1      50.032   3.974  17.635  0.00  0.00    +0.000 A 
ATOM     19  N   UNL     1      49.806   4.981  16.766  0.00  0.00    +0.000 NA
ENDBRANCH  13  14
ENDBRANCH  12  13
ENDBRANCH   4  12
TORSDOF 6
ENDMDL
MODEL 9
REMARK VINA RESULT:    -5.097      2.595      3.741
REMARK INTER + INTRA:          -7.219
REMARK INTER:                  -6.810
REMARK INTRA:                  -0.409
REMARK UNBOUND:                -0.483
REMARK  Name = 
REMARK  6 active torsions:
REMARK  status: ('A' for Active; 'I' for Inactive)
REMARK    1  A    between atoms: N_1  and  C_2
REMARK    2  A    between atoms: C_2  and  C_3
REMARK    3  A    between atoms: C_3  and  C_4
REMARK    4  A    between atoms: C_7  and  O_8
REMARK    5  A    between atoms: O_8  and  C_9
REMARK    6  A    between atoms: C_9  and  C_10
REMARK                            x       y       z     vdW  Elec       q    Type
REMARK                         _______ _______ _______ _____ _____    ______ ____
ROOT
ATOM      1  C   UNL     1      44.958   3.278  10.136  0.00  0.00    +0.000 A 
ATOM      2  C   UNL     1      45.161   4.578   9.655  0.00  0.00    +0.000 A 
ATOM      3  C   UNL     1      45.247   5.652  10.546  0.00  0.00    +0.000 A 
ATOM      4  C   UNL     1      45.125   5.440  11.919  0.00  0.00    +0.000 A 
ATOM      5  C   UNL     1      44.994   4.139  12.403  0.00  0.00    +0.000 A 
ATOM      6  C   UNL     1      44.900   3.068  11.518  0.00  0.00    +0.000 A 
ENDROOT
BRANCH   1   7
ATOM      7  C   UNL     1      44.803   2.107   9.198  0.00  0.00    +0.000 C 
BRANCH   7   8
ATOM      8  C   UNL     1      45.976   1.985   8.223  0.00  0.00    +0.000 C 
BRANCH   8   9
ATOM      9  N   UNL     1      46.380   0.586   8.071  0.00  0.00    +0.000 NA
ATOM     10  H   UNL     1      47.354   0.549   7.773  0.00  0.00    +0.000 HD
ATOM     11  H   UNL     1      45.837   0.152   7.327  0.00  0.00    +0.000 HD
ENDBRANCH   8   9
ENDBRANCH   7   8
ENDBRANCH   1   7
BRANCH   4  12
ATOM     12  O   UNL     1      45.132   6.562  12.705  0.00  0.00    +0.000 OA
BRANCH  12  13
ATOM     13  C   UNL     1      45.819   7.682  12.130  0.00  0.00    +0.000 C 
BRANCH  13  14
ATOM     14  C   UNL     1      47.254   7.721  12.594  0.00  0.00    +0.000 A 
ATOM     15  C   UNL     1      48.282   7.456  11.691  0.00  0.00    +0.000 A 
ATOM     16  C   UNL     1      49.600   7.565  12.123  0.00  0.00    +0.000 A 
ATOM     17  C   UNL     1      49.854   7.936  13.438  0.00  0.00    +0.000 A 
ATOM     18  C   UNL     1      48.775   8.190  14.269  0.00  0.00    +0.000 A 
ATOM     19  N   UNL     1      47.487   8.098  13.877  0.00  0.00    +0.000 NA
ENDBRANCH  13  14
ENDBRANCH  12  13
ENDBRANCH   4  12
TORSDOF 6
ENDMDL
