MODEL 1
REMARK VINA RESULT:    -7.423      0.000      0.000
REMARK INTER + INTRA:         -10.347
REMARK INTER:                  -9.593
REMARK INTRA:                  -0.754
REMARK UNBOUND:                -0.754
REMARK  Name = 
REMARK  6 active torsions:
REMARK  status: ('A' for Active; 'I' for Inactive)
REMARK    1  A    between atoms: C_1  and  O_2
REMARK    2  A    between atoms: O_2  and  C_3
REMARK    3  A    between atoms: C_5  and  C_6
REMARK    4  A    between atoms: N_11  and  C_12
REMARK    5  A    between atoms: C_12  and  C_13
REMARK    6  A    between atoms: C_18  and  C_19
REMARK                            x       y       z     vdW  Elec       q    Type
REMARK                         _______ _______ _______ _____ _____    ______ ____
ROOT
ATOM      1  C   UNL     1      49.029   5.216  19.081  0.00  0.00    +0.000 A 
ATOM      2  C   UNL     1      49.454   3.956  18.785  0.00  0.00    +0.000 A 
ATOM      3  C   UNL     1      49.441   3.664  17.445  0.00  0.00    +0.000 A 
ATOM      4  N   UNL     1      49.039   4.523  16.469  0.00  0.00    +0.000 NA
ATOM      5  C   UNL     1      48.621   5.721  16.885  0.00  0.00    +0.000 A 
ATOM      6  N   UNL     1      48.092   6.647  16.005  0.00  0.00    +0.000 N 
ATOM      7  N   UNL     1      48.621   6.106  18.161  0.00  0.00    +0.000 NA
ATOM      8  H   UNL     1      48.073   7.537  16.491  0.00  0.00    +0.000 HD
ENDROOT
BRANCH   3   9
ATOM      9  C   UNL     1      49.875   2.304  16.999  0.00  0.00    +0.000 C 
ATOM     10  N   UNL     1      50.839   1.712  17.768  0.00  0.00    +0.000 N 
ATOM     11  O   UNL     1      49.408   1.752  16.012  0.00  0.00    +0.000 OA
ATOM     12  H   UNL     1      51.234   2.214  18.555  0.00  0.00    +0.000 HD
ATOM     13  H   UNL     1      51.207   0.813  17.495  0.00  0.00    +0.000 HD
ENDBRANCH   3   9
BRANCH   1  15
ATOM     14  C   UNL     1      47.768   6.148  20.819  0.00  0.00    +0.000 C 
ATOM     15  O   UNL     1      49.008   5.564  20.419  0.00  0.00    +0.000 OA
ENDBRANCH   1  15
BRANCH   6  16
ATOM     16  C   UNL     1      48.665   6.690  14.682  0.00  0.00    +0.000 C 
BRANCH  16  17
ATOM     17  C   UNL     1      47.577   7.054  13.690  0.00  0.00    +0.000 A 
ATOM     18  C   UNL     1      47.127   8.374  13.612  0.00  0.00    +0.000 A 
ATOM     19  C   UNL     1      46.088   8.706  12.748  0.00  0.00    +0.000 A 
ATOM     20  C   UNL     1      45.499   7.735  11.924  0.00  0.00    +0.000 A 
ATOM     21 CL   UNL     1      44.114   8.276  11.031  0.00  0.00    +0.000 Cl
ATOM     22  C   UNL     1      45.980   6.405  11.899  0.00  0.00    +0.000 A 
ATOM     23  C   UNL     1      47.017   6.097  12.820  0.00  0.00    +0.000 A 
BRANCH  22  24
ATOM     24  C   UNL     1      45.474   5.336  10.997  0.00  0.00    +0.000 A 
ATOM     25  C   UNL     1      45.669   5.321   9.614  0.00  0.00    +0.000 A 
ATOM     26  C   UNL     1      45.147   4.281   8.845  0.00  0.00    +0.000 A 
ATOM     27  C   UNL     1      44.481   3.242   9.473  0.00  0.00    +0.000 A 
ATOM     28  C   UNL     1      44.362   3.293  10.849  0.00  0.00    +0.000 A 
ATOM     29  N   UNL     1      44.834   4.306  11.614  0.00  0.00    +0.000 NA
ENDBRANCH  22  24
ENDBRANCH  16  17
ENDBRANCH   6  16
TORSDOF 5
ENDMDL
MODEL 2
REMARK VINA RESULT:    -7.161      3.211      7.818
REMARK INTER + INTRA:         -10.008
REMARK INTER:                  -9.118
REMARK INTRA:                  -0.890
REMARK UNBOUND:                -0.754
REMARK  Name = 
REMARK  6 active torsions:
REMARK  status: ('A' for Active; 'I' for Inactive)
REMARK    1  A    between atoms: C_1  and  O_2
REMARK    2  A    between atoms: O_2  and  C_3
REMARK    3  A    between atoms: C_5  and  C_6
REMARK    4  A    between atoms: N_11  and  C_12
REMARK    5  A    between atoms: C_12  and  C_13
REMARK    6  A    between atoms: C_18  and  C_19
REMARK                            x       y       z     vdW  Elec       q    Type
REMARK                         _______ _______ _______ _____ _____    ______ ____
ROOT
ATOM      1  C   UNL     1      45.150   4.339   8.985  0.00  0.00    +0.000 A 
ATOM      2  C   UNL     1      44.425   3.559   9.834  0.00  0.00    +0.000 A 
ATOM      3  C   UNL     1      44.527   3.928  11.152  0.00  0.00    +0.000 A 
ATOM      4  N   UNL     1      45.277   4.965  11.610  0.00  0.00    +0.000 NA
ATOM      5  C   UNL     1      45.962   5.641  10.684  0.00  0.00    +0.000 A 
ATOM      6  N   UNL     1      46.840   6.652  11.029  0.00  0.00    +0.000 N 
ATOM      7  N   UNL     1      45.909   5.375   9.379  0.00  0.00    +0.000 NA
ATOM      8  H   UNL     1      47.050   7.163  10.179  0.00  0.00    +0.000 HD
ENDROOT
BRANCH   3   9
ATOM      9  C   UNL     1      43.784   3.136  12.180  0.00  0.00    +0.000 C 
ATOM     10  N   UNL     1      43.327   1.914  11.767  0.00  0.00    +0.000 N 
ATOM     11  O   UNL     1      43.589   3.546  13.316  0.00  0.00    +0.000 OA
ATOM     12  H   UNL     1      43.470   1.622  10.807  0.00  0.00    +0.000 HD
ATOM     13  H   UNL     1      42.780   1.349  12.400  0.00  0.00    +0.000 HD
ENDBRANCH   3   9
BRANCH   1  15
ATOM     14  C   UNL     1      46.360   3.578   7.131  0.00  0.00    +0.000 C 
ATOM     15  O   UNL     1      45.098   4.008   7.643  0.00  0.00    +0.000 OA
ENDBRANCH   1  15
BRANCH   6  16
ATOM     16  C   UNL     1      46.477   7.473  12.158  0.00  0.00    +0.000 C 
BRANCH  16  17
ATOM     17  C   UNL     1      47.571   7.375  13.205  0.00  0.00    +0.000 A 
ATOM     18  C   UNL     1      48.646   8.267  13.166  0.00  0.00    +0.000 A 
ATOM     19  C   UNL     1      49.683   8.148  14.086  0.00  0.00    +0.000 A 
ATOM     20  C   UNL     1      49.654   7.157  15.079  0.00  0.00    +0.000 A 
ATOM     21 CL   UNL     1      51.095   7.040  16.037  0.00  0.00    +0.000 Cl
ATOM     22  C   UNL     1      48.545   6.290  15.218  0.00  0.00    +0.000 A 
ATOM     23  C   UNL     1      47.523   6.419  14.239  0.00  0.00    +0.000 A 
BRANCH  22  24
ATOM     24  C   UNL     1      48.392   5.272  16.292  0.00  0.00    +0.000 A 
ATOM     25  C   UNL     1      48.423   5.565  17.657  0.00  0.00    +0.000 A 
ATOM     26  C   UNL     1      48.282   4.542  18.595  0.00  0.00    +0.000 A 
ATOM     27  C   UNL     1      48.060   3.246  18.157  0.00  0.00    +0.000 A 
ATOM     28  C   UNL     1      47.994   3.032  16.793  0.00  0.00    +0.000 A 
ATOM     29  N   UNL     1      48.157   4.002  15.863  0.00  0.00    +0.000 NA
ENDBRANCH  22  24
ENDBRANCH  16  17
ENDBRANCH   6  16
TORSDOF 5
ENDMDL
MODEL 3
REMARK VINA RESULT:    -6.828      3.877      8.344
REMARK INTER + INTRA:          -9.578
REMARK INTER:                  -9.098
REMARK INTRA:                  -0.479
REMARK UNBOUND:                -0.754
REMARK  Name = 
REMARK  6 active torsions:
REMARK  status: ('A' for Active; 'I' for Inactive)
REMARK    1  A    between atoms: C_1  and  O_2
REMARK    2  A    between atoms: O_2  and  C_3
REMARK    3  A    between atoms: C_5  and  C_6
REMARK    4  A    between atoms: N_11  and  C_12
REMARK    5  A    between atoms: C_12  and  C_13
REMARK    6  A    between atoms: C_18  and  C_19
REMARK                            x       y       z     vdW  Elec       q    Type
REMARK                         _______ _______ _______ _____ _____    ______ ____
ROOT
ATOM      1  C   UNL     1      45.164   6.614  12.086  0.00  0.00    +0.000 A 
ATOM      2  C   UNL     1      44.549   5.616  11.393  0.00  0.00    +0.000 A 
ATOM      3  C   UNL     1      44.775   4.363  11.905  0.00  0.00    +0.000 A 
ATOM      4  N   UNL     1      45.543   4.099  12.996  0.00  0.00    +0.000 NA
ATOM      5  C   UNL     1      46.113   5.158  13.575  0.00  0.00    +0.000 A 
ATOM      6  N   UNL     1      46.998   5.017  14.630  0.00  0.00    +0.000 N 
ATOM      7  N   UNL     1      45.934   6.414  13.168  0.00  0.00    +0.000 NA
ATOM      8  H   UNL     1      47.107   5.933  15.047  0.00  0.00    +0.000 HD
ENDROOT
BRANCH   3   9
ATOM      9  C   UNL     1      44.162   3.184  11.220  0.00  0.00    +0.000 C 
ATOM     10  N   UNL     1      44.977   2.520  10.345  0.00  0.00    +0.000 N 
ATOM     11  O   UNL     1      43.007   2.831  11.419  0.00  0.00    +0.000 OA
ATOM     12  H   UNL     1      45.915   2.862  10.172  0.00  0.00    +0.000 HD
ATOM     13  H   UNL     1      44.609   1.742   9.817  0.00  0.00    +0.000 HD
ENDBRANCH   3   9
BRANCH   1  15
ATOM     14  C   UNL     1      45.456   8.897  12.515  0.00  0.00    +0.000 C 
ATOM     15  O   UNL     1      44.983   7.900  11.609  0.00  0.00    +0.000 OA
ENDBRANCH   1  15
BRANCH   6  16
ATOM     16  C   UNL     1      46.732   3.950  15.564  0.00  0.00    +0.000 C 
BRANCH  16  17
ATOM     17  C   UNL     1      47.676   4.088  16.743  0.00  0.00    +0.000 A 
ATOM     18  C   UNL     1      47.284   4.835  17.858  0.00  0.00    +0.000 A 
ATOM     19  C   UNL     1      48.165   5.017  18.919  0.00  0.00    +0.000 A 
ATOM     20  C   UNL     1      49.441   4.433  18.903  0.00  0.00    +0.000 A 
ATOM     21 CL   UNL     1      50.471   4.891  20.221  0.00  0.00    +0.000 Cl
ATOM     22  C   UNL     1      49.850   3.593  17.841  0.00  0.00    +0.000 A 
ATOM     23  C   UNL     1      48.937   3.461  16.761  0.00  0.00    +0.000 A 
BRANCH  22  24
ATOM     24  C   UNL     1      51.147   2.867  17.785  0.00  0.00    +0.000 A 
ATOM     25  C   UNL     1      51.267   1.499  17.531  0.00  0.00    +0.000 A 
ATOM     26  C   UNL     1      52.527   0.900  17.508  0.00  0.00    +0.000 A 
ATOM     27  C   UNL     1      53.655   1.685  17.686  0.00  0.00    +0.000 A 
ATOM     28  C   UNL     1      53.469   3.040  17.886  0.00  0.00    +0.000 A 
ATOM     29  N   UNL     1      52.256   3.640  17.942  0.00  0.00    +0.000 NA
ENDBRANCH  22  24
ENDBRANCH  16  17
ENDBRANCH   6  16
TORSDOF 5
ENDMDL
MODEL 4
REMARK VINA RESULT:    -6.479      3.951      8.257
REMARK INTER + INTRA:          -9.127
REMARK INTER:                  -8.311
REMARK INTRA:                  -0.816
REMARK UNBOUND:                -0.754
REMARK  Name = 
REMARK  6 active torsions:
REMARK  status: ('A' for Active; 'I' for Inactive)
REMARK    1  A    between atoms: C_1  and  O_2
REMARK    2  A    between atoms: O_2  and  C_3
REMARK    3  A    between atoms: C_5  and  C_6
REMARK    4  A    between atoms: N_11  and  C_12
REMARK    5  A    between atoms: C_12  and  C_13
REMARK    6  A    between atoms: C_18  and  C_19
REMARK                            x       y       z     vdW  Elec       q    Type
REMARK                         _______ _______ _______ _____ _____    ______ ____
ROOT
ATOM      1  C   UNL     1      45.128   6.542  12.021  0.00  0.00    +0.000 A 
ATOM      2  C   UNL     1      44.456   5.600  11.303  0.00  0.00    +0.000 A 
ATOM      3  C   UNL     1      44.757   4.309  11.660  0.00  0.00    +0.000 A 
ATOM      4  N   UNL     1      45.644   3.961  12.630  0.00  0.00    +0.000 NA
ATOM      5  C   UNL     1      46.257   4.973  13.247  0.00  0.00    +0.000 A 
ATOM      6  N   UNL     1      47.254   4.753  14.181  0.00  0.00    +0.000 N 
ATOM      7  N   UNL     1      46.015   6.258  12.989  0.00  0.00    +0.000 NA
ATOM      8  H   UNL     1      47.394   5.627  14.674  0.00  0.00    +0.000 HD
ENDROOT
BRANCH   3   9
ATOM      9  C   UNL     1      44.090   3.187  10.931  0.00  0.00    +0.000 C 
ATOM     10  N   UNL     1      43.410   2.296  11.716  0.00  0.00    +0.000 N 
ATOM     11  O   UNL     1      44.147   3.062   9.715  0.00  0.00    +0.000 OA
ATOM     12  H   UNL     1      43.416   2.406  12.723  0.00  0.00    +0.000 HD
ATOM     13  H   UNL     1      42.975   1.491  11.289  0.00  0.00    +0.000 HD
ENDBRANCH   3   9
BRANCH   1  15
ATOM     14  C   UNL     1      45.420   8.778  12.648  0.00  0.00    +0.000 C 
ATOM     15  O   UNL     1      44.877   7.863  11.697  0.00  0.00    +0.000 OA
ENDBRANCH   1  15
BRANCH   6  16
ATOM     16  C   UNL     1      47.109   3.594  15.028  0.00  0.00    +0.000 C 
BRANCH  16  17
ATOM     17  C   UNL     1      47.668   3.919  16.400  0.00  0.00    +0.000 A 
ATOM     18  C   UNL     1      48.065   2.881  17.247  0.00  0.00    +0.000 A 
ATOM     19  C   UNL     1      48.524   3.167  18.529  0.00  0.00    +0.000 A 
ATOM     20  C   UNL     1      48.624   4.492  18.980  0.00  0.00    +0.000 A 
ATOM     21 CL   UNL     1      49.054   4.665  20.651  0.00  0.00    +0.000 Cl
ATOM     22  C   UNL     1      48.322   5.580  18.129  0.00  0.00    +0.000 A 
ATOM     23  C   UNL     1      47.824   5.248  16.841  0.00  0.00    +0.000 A 
BRANCH  22  24
ATOM     24  C   UNL     1      48.482   7.013  18.495  0.00  0.00    +0.000 A 
ATOM     25  C   UNL     1      47.436   7.830  18.932  0.00  0.00    +0.000 A 
ATOM     26  C   UNL     1      47.678   9.169  19.243  0.00  0.00    +0.000 A 
ATOM     27  C   UNL     1      48.971   9.660  19.164  0.00  0.00    +0.000 A 
ATOM     28  C   UNL     1      49.967   8.787  18.770  0.00  0.00    +0.000 A 
ATOM     29  N   UNL     1      49.754   7.493  18.435  0.00  0.00    +0.000 NA
ENDBRANCH  22  24
ENDBRANCH  16  17
ENDBRANCH   6  16
TORSDOF 5
ENDMDL
MODEL 5
REMARK VINA RESULT:    -6.432      5.278      8.132
REMARK INTER + INTRA:          -9.065
REMARK INTER:                  -8.351
REMARK INTRA:                  -0.714
REMARK UNBOUND:                -0.754
REMARK  Name = 
REMARK  6 active torsions:
REMARK  status: ('A' for Active; 'I' for Inactive)
REMARK    1  A    between atoms: C_1  and  O_2
REMARK    2  A    between atoms: O_2  and  C_3
REMARK    3  A    between atoms: C_5  and  C_6
REMARK    4  A    between atoms: N_11  and  C_12
REMARK    5  A    between atoms: C_12  and  C_13
REMARK    6  A    between atoms: C_18  and  C_19
REMARK                            x       y       z     vdW  Elec       q    Type
REMARK                         _______ _______ _______ _____ _____    ______ ____
ROOT
ATOM      1  C   UNL     1      45.103   4.291   8.804  0.00  0.00    +0.000 A 
ATOM      2  C   UNL     1      44.330   3.499   9.598  0.00  0.00    +0.000 A 
ATOM      3  C   UNL     1      44.341   3.859  10.922  0.00  0.00    +0.000 A 
ATOM      4  N   UNL     1      45.053   4.898  11.436  0.00  0.00    +0.000 NA
ATOM      5  C   UNL     1      45.793   5.584  10.563  0.00  0.00    +0.000 A 
ATOM      6  N   UNL     1      46.640   6.598  10.972  0.00  0.00    +0.000 N 
ATOM      7  N   UNL     1      45.827   5.328   9.255  0.00  0.00    +0.000 NA
ATOM      8  H   UNL     1      46.901   7.117  10.142  0.00  0.00    +0.000 HD
ENDROOT
BRANCH   3   9
ATOM      9  C   UNL     1      43.539   3.054  11.894  0.00  0.00    +0.000 C 
ATOM     10  N   UNL     1      43.602   3.468  13.196  0.00  0.00    +0.000 N 
ATOM     11  O   UNL     1      42.872   2.085  11.557  0.00  0.00    +0.000 OA
ATOM     12  H   UNL     1      44.196   4.250  13.448  0.00  0.00    +0.000 HD
ATOM     13  H   UNL     1      43.118   2.941  13.908  0.00  0.00    +0.000 HD
ENDBRANCH   3   9
BRANCH   1  15
ATOM     14  C   UNL     1      46.228   3.104   7.129  0.00  0.00    +0.000 C 
ATOM     15  O   UNL     1      45.141   3.969   7.459  0.00  0.00    +0.000 OA
ENDBRANCH   1  15
BRANCH   6  16
ATOM     16  C   UNL     1      46.198   7.408  12.081  0.00  0.00    +0.000 C 
BRANCH  16  17
ATOM     17  C   UNL     1      47.378   8.205  12.605  0.00  0.00    +0.000 A 
ATOM     18  C   UNL     1      47.395   8.616  13.940  0.00  0.00    +0.000 A 
ATOM     19  C   UNL     1      48.444   9.397  14.414  0.00  0.00    +0.000 A 
ATOM     20  C   UNL     1      49.510   9.757  13.575  0.00  0.00    +0.000 A 
ATOM     21 CL   UNL     1      50.647  10.865  14.273  0.00  0.00    +0.000 Cl
ATOM     22  C   UNL     1      49.584   9.289  12.243  0.00  0.00    +0.000 A 
ATOM     23  C   UNL     1      48.478   8.525  11.785  0.00  0.00    +0.000 A 
BRANCH  22  24
ATOM     24  C   UNL     1      50.717   9.550  11.313  0.00  0.00    +0.000 A 
ATOM     25  C   UNL     1      51.724   8.625  11.028  0.00  0.00    +0.000 A 
ATOM     26  C   UNL     1      52.755   8.962  10.151  0.00  0.00    +0.000 A 
ATOM     27  C   UNL     1      52.738  10.200   9.528  0.00  0.00    +0.000 A 
ATOM     28  C   UNL     1      51.688  11.050   9.818  0.00  0.00    +0.000 A 
ATOM     29  N   UNL     1      50.692  10.758  10.688  0.00  0.00    +0.000 NA
ENDBRANCH  22  24
ENDBRANCH  16  17
ENDBRANCH   6  16
TORSDOF 5
ENDMDL
MODEL 6
REMARK VINA RESULT:    -6.267      4.524      8.422
REMARK INTER + INTRA:          -8.853
REMARK INTER:                  -8.158
REMARK INTRA:                  -0.695
REMARK UNBOUND:                -0.754
REMARK  Name = 
REMARK  6 active torsions:
REMARK  status: ('A' for Active; 'I' for Inactive)
REMARK    1  A    between atoms: C_1  and  O_2
REMARK    2  A    between atoms: O_2  and  C_3
REMARK    3  A    between atoms: C_5  and  C_6
REMARK    4  A    between atoms: N_11  and  C_12
REMARK    5  A    between atoms: C_12  and  C_13
REMARK    6  A    between atoms: C_18  and  C_19
REMARK                            x       y       z     vdW  Elec       q    Type
REMARK                         _______ _______ _______ _____ _____    ______ ____
ROOT
ATOM      1  C   UNL     1      45.045   4.289   8.826  0.00  0.00    +0.000 A 
ATOM      2  C   UNL     1      44.278   3.531   9.657  0.00  0.00    +0.000 A 
ATOM      3  C   UNL     1      44.322   3.927  10.970  0.00  0.00    +0.000 A 
ATOM      4  N   UNL     1      45.058   4.970  11.440  0.00  0.00    +0.000 NA
ATOM      5  C   UNL     1      45.788   5.622  10.533  0.00  0.00    +0.000 A 
ATOM      6  N   UNL     1      46.656   6.635  10.897  0.00  0.00    +0.000 N 
ATOM      7  N   UNL     1      45.792   5.329   9.233  0.00  0.00    +0.000 NA
ATOM      8  H   UNL     1      46.908   7.127  10.047  0.00  0.00    +0.000 HD
ENDROOT
BRANCH   3   9
ATOM      9  C   UNL     1      43.529   3.160  11.980  0.00  0.00    +0.000 C 
ATOM     10  N   UNL     1      43.504   3.695  13.239  0.00  0.00    +0.000 N 
ATOM     11  O   UNL     1      42.942   2.121  11.709  0.00  0.00    +0.000 OA
ATOM     12  H   UNL     1      44.034   4.535  13.440  0.00  0.00    +0.000 HD
ATOM     13  H   UNL     1      43.023   3.202  13.977  0.00  0.00    +0.000 HD
ENDBRANCH   3   9
BRANCH   1  15
ATOM     14  C   UNL     1      46.126   3.049   7.160  0.00  0.00    +0.000 C 
ATOM     15  O   UNL     1      45.052   3.930   7.490  0.00  0.00    +0.000 OA
ENDBRANCH   1  15
BRANCH   6  16
ATOM     16  C   UNL     1      46.248   7.481  11.992  0.00  0.00    +0.000 C 
BRANCH  16  17
ATOM     17  C   UNL     1      47.487   8.041  12.665  0.00  0.00    +0.000 A 
ATOM     18  C   UNL     1      48.638   8.276  11.908  0.00  0.00    +0.000 A 
ATOM     19  C   UNL     1      49.796   8.733  12.527  0.00  0.00    +0.000 A 
ATOM     20  C   UNL     1      49.822   8.993  13.906  0.00  0.00    +0.000 A 
ATOM     21 CL   UNL     1      51.382   9.397  14.545  0.00  0.00    +0.000 Cl
ATOM     22  C   UNL     1      48.658   8.859  14.698  0.00  0.00    +0.000 A 
ATOM     23  C   UNL     1      47.505   8.357  14.038  0.00  0.00    +0.000 A 
BRANCH  22  24
ATOM     24  C   UNL     1      48.573   9.195  16.145  0.00  0.00    +0.000 A 
ATOM     25  C   UNL     1      48.524   8.245  17.167  0.00  0.00    +0.000 A 
ATOM     26  C   UNL     1      48.434   8.653  18.499  0.00  0.00    +0.000 A 
ATOM     27  C   UNL     1      48.447  10.006  18.794  0.00  0.00    +0.000 A 
ATOM     28  C   UNL     1      48.545  10.894  17.740  0.00  0.00    +0.000 A 
ATOM     29  N   UNL     1      48.603  10.524  16.439  0.00  0.00    +0.000 NA
ENDBRANCH  22  24
ENDBRANCH  16  17
ENDBRANCH   6  16
TORSDOF 5
ENDMDL
MODEL 7
REMARK VINA RESULT:    -6.174      2.545      4.048
REMARK INTER + INTRA:          -8.733
REMARK INTER:                  -8.008
REMARK INTRA:                  -0.724
REMARK UNBOUND:                -0.754
REMARK  Name = 
REMARK  6 active torsions:
REMARK  status: ('A' for Active; 'I' for Inactive)
REMARK    1  A    between atoms: C_1  and  O_2
REMARK    2  A    between atoms: O_2  and  C_3
REMARK    3  A    between atoms: C_5  and  C_6
REMARK    4  A    between atoms: N_11  and  C_12
REMARK    5  A    between atoms: C_12  and  C_13
REMARK    6  A    between atoms: C_18  and  C_19
REMARK                            x       y       z     vdW  Elec       q    Type
REMARK                         _______ _______ _______ _____ _____    ______ ____
ROOT
ATOM      1  C   UNL     1      51.950   1.458  17.806  0.00  0.00    +0.000 A 
ATOM      2  C   UNL     1      52.751   2.542  18.002  0.00  0.00    +0.000 A 
ATOM      3  C   UNL     1      52.132   3.742  17.760  0.00  0.00    +0.000 A 
ATOM      4  N   UNL     1      50.842   3.880  17.351  0.00  0.00    +0.000 NA
ATOM      5  C   UNL     1      50.165   2.744  17.169  0.00  0.00    +0.000 A 
ATOM      6  N   UNL     1      48.880   2.742  16.659  0.00  0.00    +0.000 N 
ATOM      7  N   UNL     1      50.670   1.533  17.403  0.00  0.00    +0.000 NA
ATOM      8  H   UNL     1      48.495   1.821  16.834  0.00  0.00    +0.000 HD
ENDROOT
BRANCH   3   9
ATOM      9  C   UNL     1      52.917   5.004  17.930  0.00  0.00    +0.000 C 
ATOM     10  N   UNL     1      53.085   5.750  16.796  0.00  0.00    +0.000 N 
ATOM     11  O   UNL     1      53.385   5.350  19.006  0.00  0.00    +0.000 OA
ATOM     12  H   UNL     1      52.720   5.414  15.913  0.00  0.00    +0.000 HD
ATOM     13  H   UNL     1      53.643   6.591  16.834  0.00  0.00    +0.000 HD
ENDBRANCH   3   9
BRANCH   1  15
ATOM     14  C   UNL     1      53.937   0.221  17.833  0.00  0.00    +0.000 C 
ATOM     15  O   UNL     1      52.522   0.217  18.022  0.00  0.00    +0.000 OA
ENDBRANCH   1  15
BRANCH   6  16
ATOM     16  C   UNL     1      48.026   3.840  17.040  0.00  0.00    +0.000 C 
BRANCH  16  17
ATOM     17  C   UNL     1      47.722   4.672  15.809  0.00  0.00    +0.000 A 
ATOM     18  C   UNL     1      48.522   5.777  15.507  0.00  0.00    +0.000 A 
ATOM     19  C   UNL     1      48.215   6.581  14.414  0.00  0.00    +0.000 A 
ATOM     20  C   UNL     1      47.124   6.282  13.584  0.00  0.00    +0.000 A 
ATOM     21 CL   UNL     1      46.783   7.471  12.369  0.00  0.00    +0.000 Cl
ATOM     22  C   UNL     1      46.340   5.124  13.793  0.00  0.00    +0.000 A 
ATOM     23  C   UNL     1      46.662   4.348  14.939  0.00  0.00    +0.000 A 
BRANCH  22  24
ATOM     24  C   UNL     1      45.222   4.685  12.915  0.00  0.00    +0.000 A 
ATOM     25  C   UNL     1      45.271   3.559  12.090  0.00  0.00    +0.000 A 
ATOM     26  C   UNL     1      44.176   3.231  11.289  0.00  0.00    +0.000 A 
ATOM     27  C   UNL     1      43.028   4.001  11.363  0.00  0.00    +0.000 A 
ATOM     28  C   UNL     1      43.028   5.074  12.234  0.00  0.00    +0.000 A 
ATOM     29  N   UNL     1      44.087   5.431  12.998  0.00  0.00    +0.000 NA
ENDBRANCH  22  24
ENDBRANCH  16  17
ENDBRANCH   6  16
TORSDOF 5
ENDMDL
MODEL 8
REMARK VINA RESULT:    -5.716      4.627      8.340
REMARK INTER + INTRA:          -8.141
REMARK INTER:                  -7.402
REMARK INTRA:                  -0.739
REMARK UNBOUND:                -0.754
REMARK  Name = 
REMARK  6 active torsions:
REMARK  status: ('A' for Active; 'I' for Inactive)
REMARK    1  A    between atoms: C_1  and  O_2
REMARK    2  A    between atoms: O_2  and  C_3
REMARK    3  A    between atoms: C_5  and  C_6
REMARK    4  A    between atoms: N_11  and  C_12
REMARK    5  A    between atoms: C_12  and  C_13
REMARK    6  A    between atoms: C_18  and  C_19
REMARK                            x       y       z     vdW  Elec       q    Type
REMARK                         _______ _______ _______ _____ _____    ______ ____
ROOT
ATOM      1  C   UNL     1      44.985   4.612   9.310  0.00  0.00    +0.000 A 
ATOM      2  C   UNL     1      44.158   4.008  10.207  0.00  0.00    +0.000 A 
ATOM      3  C   UNL     1      44.353   4.412  11.504  0.00  0.00    +0.000 A 
ATOM      4  N   UNL     1      45.283   5.322  11.900  0.00  0.00    +0.000 NA
ATOM      5  C   UNL     1      46.052   5.826  10.932  0.00  0.00    +0.000 A 
ATOM      6  N   UNL     1      47.100   6.683  11.214  0.00  0.00    +0.000 N 
ATOM      7  N   UNL     1      45.921   5.517   9.642  0.00  0.00    +0.000 NA
ATOM      8  H   UNL     1      47.374   7.112  10.337  0.00  0.00    +0.000 HD
ENDROOT
BRANCH   3   9
ATOM      9  C   UNL     1      43.511   3.807  12.581  0.00  0.00    +0.000 C 
ATOM     10  N   UNL     1      43.607   2.449  12.713  0.00  0.00    +0.000 N 
ATOM     11  O   UNL     1      42.777   4.474  13.299  0.00  0.00    +0.000 OA
ATOM     12  H   UNL     1      44.192   1.922  12.075  0.00  0.00    +0.000 HD
ATOM     13  H   UNL     1      43.030   1.974  13.392  0.00  0.00    +0.000 HD
ENDBRANCH   3   9
BRANCH   1  15
ATOM     14  C   UNL     1      45.934   3.442   7.518  0.00  0.00    +0.000 C 
ATOM     15  O   UNL     1      44.844   4.236   7.987  0.00  0.00    +0.000 OA
ENDBRANCH   1  15
BRANCH   6  16
ATOM     16  C   UNL     1      46.913   7.604  12.308  0.00  0.00    +0.000 C 
BRANCH  16  17
ATOM     17  C   UNL     1      48.175   7.628  13.148  0.00  0.00    +0.000 A 
ATOM     18  C   UNL     1      48.222   6.911  14.347  0.00  0.00    +0.000 A 
ATOM     19  C   UNL     1      49.353   6.974  15.153  0.00  0.00    +0.000 A 
ATOM     20  C   UNL     1      50.472   7.728  14.766  0.00  0.00    +0.000 A 
ATOM     21 CL   UNL     1      51.729   7.834  15.955  0.00  0.00    +0.000 Cl
ATOM     22  C   UNL     1      50.510   8.396  13.520  0.00  0.00    +0.000 A 
ATOM     23  C   UNL     1      49.323   8.337  12.742  0.00  0.00    +0.000 A 
BRANCH  22  24
ATOM     24  C   UNL     1      51.683   9.144  12.994  0.00  0.00    +0.000 A 
ATOM     25  C   UNL     1      51.758  10.537  12.929  0.00  0.00    +0.000 A 
ATOM     26  C   UNL     1      52.896  11.153  12.408  0.00  0.00    +0.000 A 
ATOM     27  C   UNL     1      53.967  10.371  12.008  0.00  0.00    +0.000 A 
ATOM     28  C   UNL     1      53.847   9.001  12.142  0.00  0.00    +0.000 A 
ATOM     29  N   UNL     1      52.742   8.378  12.616  0.00  0.00    +0.000 NA
ENDBRANCH  22  24
ENDBRANCH  16  17
ENDBRANCH   6  16
TORSDOF 5
ENDMDL
MODEL 9
REMARK VINA RESULT:    -5.494      5.281      7.228
REMARK INTER + INTRA:          -7.854
REMARK INTER:                  -7.232
REMARK INTRA:                  -0.622
REMARK UNBOUND:                -0.754
REMARK  Name = 
REMARK  6 active torsions:
REMARK  status: ('A' for Active; 'I' for Inactive)
REMARK    1  A    between atoms: C_1  and  O_2
REMARK    2  A    between atoms: O_2  and  C_3
REMARK    3  A    between atoms: C_5  and  C_6
REMARK    4  A    between atoms: N_11  and  C_12
REMARK    5  A    between atoms: C_12  and  C_13
REMARK    6  A    between atoms: C_18  and  C_19
REMARK                            x       y       z     vdW  Elec       q    Type
REMARK                         _______ _______ _______ _____ _____    ______ ____
ROOT
ATOM      1  C   UNL     1      47.633   9.440  12.214  0.00  0.00    +0.000 A 
ATOM      2  C   UNL     1      46.596  10.221  11.805  0.00  0.00    +0.000 A 
ATOM      3  C   UNL     1      45.423   9.535  11.614  0.00  0.00    +0.000 A 
ATOM      4  N   UNL     1      45.272   8.195  11.796  0.00  0.00    +0.000 NA
ATOM      5  C   UNL     1      46.367   7.533  12.174  0.00  0.00    +0.000 A 
ATOM      6  N   UNL     1      46.372   6.155  12.295  0.00  0.00    +0.000 N 
ATOM      7  N   UNL     1      47.543   8.113  12.410  0.00  0.00    +0.000 NA
ATOM      8  H   UNL     1      47.209   5.907  12.810  0.00  0.00    +0.000 HD
ENDROOT
BRANCH   3   9
ATOM      9  C   UNL     1      44.216  10.286  11.152  0.00  0.00    +0.000 C 
ATOM     10  N   UNL     1      43.363  10.696  12.139  0.00  0.00    +0.000 N 
ATOM     11  O   UNL     1      43.994  10.519   9.971  0.00  0.00    +0.000 OA
ATOM     12  H   UNL     1      43.554  10.451  13.104  0.00  0.00    +0.000 HD
ATOM     13  H   UNL     1      42.507  11.169  11.890  0.00  0.00    +0.000 HD
ENDBRANCH   3   9
BRANCH   1  15
ATOM     14  C   UNL     1      49.825   9.710  11.438  0.00  0.00    +0.000 C 
ATOM     15  O   UNL     1      48.846  10.074  12.412  0.00  0.00    +0.000 OA
ENDBRANCH   1  15
BRANCH   6  16
ATOM     16  C   UNL     1      45.159   5.538  12.773  0.00  0.00    +0.000 C 
BRANCH  16  17
ATOM     17  C   UNL     1      44.787   4.402  11.839  0.00  0.00    +0.000 A 
ATOM     18  C   UNL     1      43.712   3.569  12.158  0.00  0.00    +0.000 A 
ATOM     19  C   UNL     1      43.400   2.490  11.338  0.00  0.00    +0.000 A 
ATOM     20  C   UNL     1      44.135   2.237  10.170  0.00  0.00    +0.000 A 
ATOM     21 CL   UNL     1      43.726   0.764   9.352  0.00  0.00    +0.000 Cl
ATOM     22  C   UNL     1      45.173   3.104   9.755  0.00  0.00    +0.000 A 
ATOM     23  C   UNL     1      45.485   4.174  10.636  0.00  0.00    +0.000 A 
BRANCH  22  24
ATOM     24  C   UNL     1      45.945   2.961   8.491  0.00  0.00    +0.000 A 
ATOM     25  C   UNL     1      46.447   1.748   8.014  0.00  0.00    +0.000 A 
ATOM     26  C   UNL     1      47.170   1.711   6.821  0.00  0.00    +0.000 A 
ATOM     27  C   UNL     1      47.337   2.878   6.093  0.00  0.00    +0.000 A 
ATOM     28  C   UNL     1      46.775   4.036   6.597  0.00  0.00    +0.000 A 
ATOM     29  N   UNL     1      46.095   4.103   7.766  0.00  0.00    +0.000 NA
ENDBRANCH  22  24
ENDBRANCH  16  17
ENDBRANCH   6  16
TORSDOF 5
ENDMDL
