MODEL 1
REMARK VINA RESULT:    -8.048      0.000      0.000
REMARK INTER + INTRA:          -9.125
REMARK INTER:                  -8.989
REMARK INTRA:                  -0.136
REMARK UNBOUND:                -0.136
REMARK  Name = 
REMARK  2 active torsions:
REMARK  status: ('A' for Active; 'I' for Inactive)
REMARK    1  A    between atoms: N_11  and  C_12
REMARK    2  A    between atoms: C_12  and  C_13
REMARK                            x       y       z     vdW  Elec       q    Type
REMARK                         _______ _______ _______ _____ _____    ______ ____
ROOT
ATOM      1  N   UNL     1      48.003   5.831  14.761  0.00  0.00    +0.000 NA
ATOM      2  C   UNL     1      47.136   4.943  14.421  0.00  0.00    +0.000 C 
ATOM      3  N   UNL     1      47.281   3.652  14.791  0.00  0.00    +0.000 N 
ATOM      4  N   UNL     1      46.063   5.206  13.628  0.00  0.00    +0.000 N 
ATOM      5  C   UNL     1      46.084   6.322  12.662  0.00  0.00    +0.000 C 
ATOM      6  C   UNL     1      46.052   5.770  11.211  0.00  0.00    +0.000 C 
ATOM      7  C   UNL     1      44.985   4.720  11.089  0.00  0.00    +0.000 A 
ATOM      8  C   UNL     1      44.404   4.094  12.180  0.00  0.00    +0.000 A 
ATOM      9  C   UNL     1      43.451   3.179  11.684  0.00  0.00    +0.000 A 
ATOM     10  C   UNL     1      43.509   3.244  10.307  0.00  0.00    +0.000 A 
ATOM     11  N   UNL     1      44.459   4.177   9.946  0.00  0.00    +0.000 N 
ATOM     12  C   UNL     1      44.814   4.425  13.587  0.00  0.00    +0.000 C 
ATOM     13  H   UNL     1      48.701   5.410  15.373  0.00  0.00    +0.000 HD
ATOM     14  H   UNL     1      48.201   3.421  15.138  0.00  0.00    +0.000 HD
ATOM     15  H   UNL     1      47.024   3.018  14.042  0.00  0.00    +0.000 HD
ENDROOT
BRANCH  11  16
ATOM     16  C   UNL     1      44.894   4.417   8.573  0.00  0.00    +0.000 C 
BRANCH  16  17
ATOM     17  C   UNL     1      45.810   3.329   8.071  0.00  0.00    +0.000 A 
ATOM     18  C   UNL     1      46.857   3.630   7.189  0.00  0.00    +0.000 A 
ATOM     19  C   UNL     1      47.683   2.620   6.693  0.00  0.00    +0.000 A 
ATOM     20  C   UNL     1      47.479   1.299   7.084  0.00  0.00    +0.000 A 
ATOM     21  C   UNL     1      46.453   0.987   7.973  0.00  0.00    +0.000 A 
ATOM     22  C   UNL     1      45.623   1.996   8.466  0.00  0.00    +0.000 A 
ENDBRANCH  16  17
ENDBRANCH  11  16
TORSDOF 2
ENDMDL
MODEL 2
REMARK VINA RESULT:    -8.007      1.761      2.569
REMARK INTER + INTRA:          -9.079
REMARK INTER:                  -8.505
REMARK INTRA:                  -0.574
REMARK UNBOUND:                -0.136
REMARK  Name = 
REMARK  2 active torsions:
REMARK  status: ('A' for Active; 'I' for Inactive)
REMARK    1  A    between atoms: N_11  and  C_12
REMARK    2  A    between atoms: C_12  and  C_13
REMARK                            x       y       z     vdW  Elec       q    Type
REMARK                         _______ _______ _______ _____ _____    ______ ____
ROOT
ATOM      1  N   UNL     1      48.469   8.983  11.862  0.00  0.00    +0.000 NA
ATOM      2  C   UNL     1      48.384   7.774  12.294  0.00  0.00    +0.000 C 
ATOM      3  N   UNL     1      49.489   7.013  12.451  0.00  0.00    +0.000 N 
ATOM      4  N   UNL     1      47.205   7.154  12.563  0.00  0.00    +0.000 N 
ATOM      5  C   UNL     1      45.958   7.562  11.887  0.00  0.00    +0.000 C 
ATOM      6  C   UNL     1      45.462   6.426  10.953  0.00  0.00    +0.000 C 
ATOM      7  C   UNL     1      45.500   5.114  11.682  0.00  0.00    +0.000 A 
ATOM      8  C   UNL     1      46.216   4.912  12.852  0.00  0.00    +0.000 A 
ATOM      9  C   UNL     1      46.014   3.572  13.245  0.00  0.00    +0.000 A 
ATOM     10  C   UNL     1      45.217   2.986  12.283  0.00  0.00    +0.000 A 
ATOM     11  N   UNL     1      44.916   3.928  11.321  0.00  0.00    +0.000 N 
ATOM     12  C   UNL     1      47.024   6.013  13.477  0.00  0.00    +0.000 C 
ATOM     13  H   UNL     1      49.450   9.240  11.755  0.00  0.00    +0.000 HD
ATOM     14  H   UNL     1      50.314   7.381  11.999  0.00  0.00    +0.000 HD
ATOM     15  H   UNL     1      49.329   6.057  12.153  0.00  0.00    +0.000 HD
ENDROOT
BRANCH  11  16
ATOM     16  C   UNL     1      44.207   3.634  10.079  0.00  0.00    +0.000 C 
BRANCH  16  17
ATOM     17  C   UNL     1      45.141   3.170   8.989  0.00  0.00    +0.000 A 
ATOM     18  C   UNL     1      45.491   1.817   8.879  0.00  0.00    +0.000 A 
ATOM     19  C   UNL     1      46.384   1.390   7.895  0.00  0.00    +0.000 A 
ATOM     20  C   UNL     1      46.927   2.310   7.002  0.00  0.00    +0.000 A 
ATOM     21  C   UNL     1      46.576   3.655   7.089  0.00  0.00    +0.000 A 
ATOM     22  C   UNL     1      45.687   4.085   8.076  0.00  0.00    +0.000 A 
ENDBRANCH  16  17
ENDBRANCH  11  16
TORSDOF 2
ENDMDL
MODEL 3
REMARK VINA RESULT:    -7.371      2.081      3.064
REMARK INTER + INTRA:          -8.369
REMARK INTER:                  -7.811
REMARK INTRA:                  -0.558
REMARK UNBOUND:                -0.136
REMARK  Name = 
REMARK  2 active torsions:
REMARK  status: ('A' for Active; 'I' for Inactive)
REMARK    1  A    between atoms: N_11  and  C_12
REMARK    2  A    between atoms: C_12  and  C_13
REMARK                            x       y       z     vdW  Elec       q    Type
REMARK                         _______ _______ _______ _____ _____    ______ ____
ROOT
ATOM      1  N   UNL     1      44.066   9.408  11.288  0.00  0.00    +0.000 NA
ATOM      2  C   UNL     1      44.802   8.452  11.735  0.00  0.00    +0.000 C 
ATOM      3  N   UNL     1      46.140   8.599  11.848  0.00  0.00    +0.000 N 
ATOM      4  N   UNL     1      44.319   7.224  12.064  0.00  0.00    +0.000 N 
ATOM      5  C   UNL     1      43.088   6.698  11.442  0.00  0.00    +0.000 C 
ATOM      6  C   UNL     1      43.425   5.478  10.542  0.00  0.00    +0.000 C 
ATOM      7  C   UNL     1      44.330   4.534  11.281  0.00  0.00    +0.000 A 
ATOM      8  C   UNL     1      45.038   4.890  12.418  0.00  0.00    +0.000 A 
ATOM      9  C   UNL     1      45.769   3.757  12.833  0.00  0.00    +0.000 A 
ATOM     10  C   UNL     1      45.519   2.758  11.914  0.00  0.00    +0.000 A 
ATOM     11  N   UNL     1      44.649   3.242  10.958  0.00  0.00    +0.000 N 
ATOM     12  C   UNL     1      44.951   6.275  12.996  0.00  0.00    +0.000 C 
ATOM     13  H   UNL     1      44.639  10.237  11.134  0.00  0.00    +0.000 HD
ATOM     14  H   UNL     1      46.512   9.398  11.355  0.00  0.00    +0.000 HD
ATOM     15  H   UNL     1      46.632   7.758  11.566  0.00  0.00    +0.000 HD
ENDROOT
BRANCH  11  16
ATOM     16  C   UNL     1      44.267   2.512   9.753  0.00  0.00    +0.000 C 
BRANCH  16  17
ATOM     17  C   UNL     1      45.345   2.555   8.699  0.00  0.00    +0.000 A 
ATOM     18  C   UNL     1      46.034   1.388   8.337  0.00  0.00    +0.000 A 
ATOM     19  C   UNL     1      47.057   1.431   7.389  0.00  0.00    +0.000 A 
ATOM     20  C   UNL     1      47.394   2.639   6.782  0.00  0.00    +0.000 A 
ATOM     21  C   UNL     1      46.707   3.802   7.119  0.00  0.00    +0.000 A 
ATOM     22  C   UNL     1      45.686   3.762   8.071  0.00  0.00    +0.000 A 
ENDBRANCH  16  17
ENDBRANCH  11  16
TORSDOF 2
ENDMDL
MODEL 4
REMARK VINA RESULT:    -6.651      2.038      3.492
REMARK INTER + INTRA:          -7.565
REMARK INTER:                  -7.213
REMARK INTRA:                  -0.353
REMARK UNBOUND:                -0.136
REMARK  Name = 
REMARK  2 active torsions:
REMARK  status: ('A' for Active; 'I' for Inactive)
REMARK    1  A    between atoms: N_11  and  C_12
REMARK    2  A    between atoms: C_12  and  C_13
REMARK                            x       y       z     vdW  Elec       q    Type
REMARK                         _______ _______ _______ _____ _____    ______ ____
ROOT
ATOM      1  N   UNL     1      49.477   7.788  15.355  0.00  0.00    +0.000 NA
ATOM      2  C   UNL     1      48.386   8.248  14.850  0.00  0.00    +0.000 C 
ATOM      3  N   UNL     1      47.543   9.003  15.587  0.00  0.00    +0.000 N 
ATOM      4  N   UNL     1      47.969   7.971  13.586  0.00  0.00    +0.000 N 
ATOM      5  C   UNL     1      48.389   6.734  12.899  0.00  0.00    +0.000 C 
ATOM      6  C   UNL     1      47.166   5.801  12.686  0.00  0.00    +0.000 C 
ATOM      7  C   UNL     1      46.016   6.590  12.129  0.00  0.00    +0.000 A 
ATOM      8  C   UNL     1      45.950   7.973  12.168  0.00  0.00    +0.000 A 
ATOM      9  C   UNL     1      44.738   8.356  11.554  0.00  0.00    +0.000 A 
ATOM     10  C   UNL     1      44.083   7.195  11.199  0.00  0.00    +0.000 A 
ATOM     11  N   UNL     1      44.860   6.116  11.565  0.00  0.00    +0.000 N 
ATOM     12  C   UNL     1      47.045   8.794  12.787  0.00  0.00    +0.000 C 
ATOM     13  H   UNL     1      49.593   8.147  16.302  0.00  0.00    +0.000 HD
ATOM     14  H   UNL     1      47.722   8.975  16.581  0.00  0.00    +0.000 HD
ATOM     15  H   UNL     1      46.574   8.766  15.404  0.00  0.00    +0.000 HD
ENDROOT
BRANCH  11  16
ATOM     16  C   UNL     1      44.428   4.724  11.472  0.00  0.00    +0.000 C 
BRANCH  16  17
ATOM     17  C   UNL     1      44.904   4.068  10.201  0.00  0.00    +0.000 A 
ATOM     18  C   UNL     1      44.813   2.678  10.040  0.00  0.00    +0.000 A 
ATOM     19  C   UNL     1      45.287   2.062   8.880  0.00  0.00    +0.000 A 
ATOM     20  C   UNL     1      45.844   2.833   7.862  0.00  0.00    +0.000 A 
ATOM     21  C   UNL     1      45.925   4.216   8.001  0.00  0.00    +0.000 A 
ATOM     22  C   UNL     1      45.457   4.832   9.162  0.00  0.00    +0.000 A 
ENDBRANCH  16  17
ENDBRANCH  11  16
TORSDOF 2
ENDMDL
MODEL 5
REMARK VINA RESULT:    -6.298      2.652      6.154
REMARK INTER + INTRA:          -7.171
REMARK INTER:                  -6.840
REMARK INTRA:                  -0.331
REMARK UNBOUND:                -0.136
REMARK  Name = 
REMARK  2 active torsions:
REMARK  status: ('A' for Active; 'I' for Inactive)
REMARK    1  A    between atoms: N_11  and  C_12
REMARK    2  A    between atoms: C_12  and  C_13
REMARK                            x       y       z     vdW  Elec       q    Type
REMARK                         _______ _______ _______ _____ _____    ______ ____
ROOT
ATOM      1  N   UNL     1      44.532   1.771   9.468  0.00  0.00    +0.000 NA
ATOM      2  C   UNL     1      44.525   3.057   9.513  0.00  0.00    +0.000 C 
ATOM      3  N   UNL     1      44.749   3.793   8.403  0.00  0.00    +0.000 N 
ATOM      4  N   UNL     1      44.359   3.766  10.661  0.00  0.00    +0.000 N 
ATOM      5  C   UNL     1      44.723   3.192  11.971  0.00  0.00    +0.000 C 
ATOM      6  C   UNL     1      45.929   3.965  12.574  0.00  0.00    +0.000 C 
ATOM      7  C   UNL     1      45.691   5.443  12.466  0.00  0.00    +0.000 A 
ATOM      8  C   UNL     1      44.738   6.003  11.629  0.00  0.00    +0.000 A 
ATOM      9  C   UNL     1      44.800   7.403  11.796  0.00  0.00    +0.000 A 
ATOM     10  C   UNL     1      45.814   7.657  12.696  0.00  0.00    +0.000 A 
ATOM     11  N   UNL     1      46.367   6.457  13.093  0.00  0.00    +0.000 N 
ATOM     12  C   UNL     1      43.867   5.152  10.750  0.00  0.00    +0.000 C 
ATOM     13  H   UNL     1      44.648   1.463   8.503  0.00  0.00    +0.000 HD
ATOM     14  H   UNL     1      45.135   3.270   7.630  0.00  0.00    +0.000 HD
ATOM     15  H   UNL     1      45.333   4.598   8.602  0.00  0.00    +0.000 HD
ENDROOT
BRANCH  11  16
ATOM     16  C   UNL     1      47.554   6.339  13.935  0.00  0.00    +0.000 C 
BRANCH  16  17
ATOM     17  C   UNL     1      48.738   7.066  13.349  0.00  0.00    +0.000 A 
ATOM     18  C   UNL     1      49.614   7.783  14.176  0.00  0.00    +0.000 A 
ATOM     19  C   UNL     1      50.690   8.488  13.633  0.00  0.00    +0.000 A 
ATOM     20  C   UNL     1      50.909   8.472  12.257  0.00  0.00    +0.000 A 
ATOM     21  C   UNL     1      50.057   7.749  11.425  0.00  0.00    +0.000 A 
ATOM     22  C   UNL     1      48.978   7.048  11.966  0.00  0.00    +0.000 A 
ENDBRANCH  16  17
ENDBRANCH  11  16
TORSDOF 2
ENDMDL
MODEL 6
REMARK VINA RESULT:    -6.046      3.030      5.499
REMARK INTER + INTRA:          -6.890
REMARK INTER:                  -6.414
REMARK INTRA:                  -0.476
REMARK UNBOUND:                -0.136
REMARK  Name = 
REMARK  2 active torsions:
REMARK  status: ('A' for Active; 'I' for Inactive)
REMARK    1  A    between atoms: N_11  and  C_12
REMARK    2  A    between atoms: C_12  and  C_13
REMARK                            x       y       z     vdW  Elec       q    Type
REMARK                         _______ _______ _______ _____ _____    ______ ____
ROOT
ATOM      1  N   UNL     1      47.571   5.500  19.952  0.00  0.00    +0.000 NA
ATOM      2  C   UNL     1      47.610   6.162  18.849  0.00  0.00    +0.000 C 
ATOM      3  N   UNL     1      47.036   7.380  18.748  0.00  0.00    +0.000 N 
ATOM      4  N   UNL     1      48.161   5.679  17.704  0.00  0.00    +0.000 N 
ATOM      5  C   UNL     1      48.250   4.228  17.453  0.00  0.00    +0.000 C 
ATOM      6  C   UNL     1      47.328   3.834  16.267  0.00  0.00    +0.000 C 
ATOM      7  C   UNL     1      47.535   4.786  15.124  0.00  0.00    +0.000 A 
ATOM      8  C   UNL     1      48.157   6.017  15.260  0.00  0.00    +0.000 A 
ATOM      9  C   UNL     1      48.174   6.624  13.986  0.00  0.00    +0.000 A 
ATOM     10  C   UNL     1      47.525   5.767  13.122  0.00  0.00    +0.000 A 
ATOM     11  N   UNL     1      47.122   4.649  13.825  0.00  0.00    +0.000 N 
ATOM     12  C   UNL     1      48.672   6.494  16.588  0.00  0.00    +0.000 C 
ATOM     13  H   UNL     1      47.134   6.068  20.676  0.00  0.00    +0.000 HD
ATOM     14  H   UNL     1      46.405   7.605  19.506  0.00  0.00    +0.000 HD
ATOM     15  H   UNL     1      46.563   7.497  17.859  0.00  0.00    +0.000 HD
ENDROOT
BRANCH  11  16
ATOM     16  C   UNL     1      46.285   3.589  13.270  0.00  0.00    +0.000 C 
BRANCH  16  17
ATOM     17  C   UNL     1      45.058   4.136  12.584  0.00  0.00    +0.000 A 
ATOM     18  C   UNL     1      44.917   4.038  11.192  0.00  0.00    +0.000 A 
ATOM     19  C   UNL     1      43.801   4.576  10.550  0.00  0.00    +0.000 A 
ATOM     20  C   UNL     1      42.807   5.207  11.294  0.00  0.00    +0.000 A 
ATOM     21  C   UNL     1      42.926   5.298  12.679  0.00  0.00    +0.000 A 
ATOM     22  C   UNL     1      44.044   4.764  13.322  0.00  0.00    +0.000 A 
ENDBRANCH  16  17
ENDBRANCH  11  16
TORSDOF 2
ENDMDL
MODEL 7
REMARK VINA RESULT:    -5.973      2.189      3.767
REMARK INTER + INTRA:          -6.808
REMARK INTER:                  -6.720
REMARK INTRA:                  -0.088
REMARK UNBOUND:                -0.136
REMARK  Name = 
REMARK  2 active torsions:
REMARK  status: ('A' for Active; 'I' for Inactive)
REMARK    1  A    between atoms: N_11  and  C_12
REMARK    2  A    between atoms: C_12  and  C_13
REMARK                            x       y       z     vdW  Elec       q    Type
REMARK                         _______ _______ _______ _____ _____    ______ ____
ROOT
ATOM      1  N   UNL     1      50.181   9.750  14.288  0.00  0.00    +0.000 NA
ATOM      2  C   UNL     1      49.942   8.487  14.238  0.00  0.00    +0.000 C 
ATOM      3  N   UNL     1      50.926   7.604  13.962  0.00  0.00    +0.000 N 
ATOM      4  N   UNL     1      48.702   7.952  14.390  0.00  0.00    +0.000 N 
ATOM      5  C   UNL     1      47.490   8.732  14.073  0.00  0.00    +0.000 C 
ATOM      6  C   UNL     1      46.766   8.117  12.844  0.00  0.00    +0.000 C 
ATOM      7  C   UNL     1      46.652   6.630  13.013  0.00  0.00    +0.000 A 
ATOM      8  C   UNL     1      47.404   5.906  13.925  0.00  0.00    +0.000 A 
ATOM      9  C   UNL     1      47.026   4.551  13.803  0.00  0.00    +0.000 A 
ATOM     10  C   UNL     1      46.088   4.484  12.794  0.00  0.00    +0.000 A 
ATOM     11  N   UNL     1      45.872   5.755  12.303  0.00  0.00    +0.000 N 
ATOM     12  C   UNL     1      48.409   6.573  14.820  0.00  0.00    +0.000 C 
ATOM     13  H   UNL     1      51.180   9.914  14.170  0.00  0.00    +0.000 HD
ATOM     14  H   UNL     1      51.766   8.022  13.587  0.00  0.00    +0.000 HD
ATOM     15  H   UNL     1      50.602   6.866  13.346  0.00  0.00    +0.000 HD
ENDROOT
BRANCH  11  16
ATOM     16  C   UNL     1      45.047   6.055  11.136  0.00  0.00    +0.000 C 
BRANCH  16  17
ATOM     17  C   UNL     1      45.120   4.965  10.096  0.00  0.00    +0.000 A 
ATOM     18  C   UNL     1      44.353   3.799  10.231  0.00  0.00    +0.000 A 
ATOM     19  C   UNL     1      44.445   2.772   9.290  0.00  0.00    +0.000 A 
ATOM     20  C   UNL     1      45.297   2.906   8.196  0.00  0.00    +0.000 A 
ATOM     21  C   UNL     1      46.052   4.066   8.039  0.00  0.00    +0.000 A 
ATOM     22  C   UNL     1      45.964   5.092   8.983  0.00  0.00    +0.000 A 
ENDBRANCH  16  17
ENDBRANCH  11  16
TORSDOF 2
ENDMDL
MODEL 8
REMARK VINA RESULT:    -5.971      3.542      6.332
REMARK INTER + INTRA:          -6.805
REMARK INTER:                  -6.336
REMARK INTRA:                  -0.469
REMARK UNBOUND:                -0.136
REMARK  Name = 
REMARK  2 active torsions:
REMARK  status: ('A' for Active; 'I' for Inactive)
REMARK    1  A    between atoms: N_11  and  C_12
REMARK    2  A    between atoms: C_12  and  C_13
REMARK                            x       y       z     vdW  Elec       q    Type
REMARK                         _______ _______ _______ _____ _____    ______ ____
ROOT
ATOM      1  N   UNL     1      42.653   5.891  10.903  0.00  0.00    +0.000 NA
ATOM      2  C   UNL     1      43.304   5.589  11.970  0.00  0.00    +0.000 C 
ATOM      3  N   UNL     1      42.675   5.473  13.160  0.00  0.00    +0.000 N 
ATOM      4  N   UNL     1      44.654   5.428  12.005  0.00  0.00    +0.000 N 
ATOM      5  C   UNL     1      45.528   6.101  11.025  0.00  0.00    +0.000 C 
ATOM      6  C   UNL     1      46.406   7.165  11.737  0.00  0.00    +0.000 C 
ATOM      7  C   UNL     1      47.018   6.575  12.974  0.00  0.00    +0.000 A 
ATOM      8  C   UNL     1      46.563   5.408  13.568  0.00  0.00    +0.000 A 
ATOM      9  C   UNL     1      47.375   5.163  14.695  0.00  0.00    +0.000 A 
ATOM     10  C   UNL     1      48.272   6.208  14.780  0.00  0.00    +0.000 A 
ATOM     11  N   UNL     1      48.042   7.077  13.734  0.00  0.00    +0.000 N 
ATOM     12  C   UNL     1      45.399   4.643  13.005  0.00  0.00    +0.000 C 
ATOM     13  H   UNL     1      41.656   5.936  11.112  0.00  0.00    +0.000 HD
ATOM     14  H   UNL     1      41.740   5.855  13.173  0.00  0.00    +0.000 HD
ATOM     15  H   UNL     1      43.223   5.874  13.912  0.00  0.00    +0.000 HD
ENDROOT
BRANCH  11  16
ATOM     16  C   UNL     1      48.707   8.368  13.578  0.00  0.00    +0.000 C 
BRANCH  16  17
ATOM     17  C   UNL     1      50.011   8.245  12.829  0.00  0.00    +0.000 A 
ATOM     18  C   UNL     1      51.222   8.585  13.448  0.00  0.00    +0.000 A 
ATOM     19  C   UNL     1      52.427   8.509  12.746  0.00  0.00    +0.000 A 
ATOM     20  C   UNL     1      52.434   8.078  11.421  0.00  0.00    +0.000 A 
ATOM     21  C   UNL     1      51.240   7.721  10.799  0.00  0.00    +0.000 A 
ATOM     22  C   UNL     1      50.034   7.802  11.498  0.00  0.00    +0.000 A 
ENDBRANCH  16  17
ENDBRANCH  11  16
TORSDOF 2
ENDMDL
MODEL 9
REMARK VINA RESULT:    -5.662      3.083      7.048
REMARK INTER + INTRA:          -6.460
REMARK INTER:                  -6.025
REMARK INTRA:                  -0.436
REMARK UNBOUND:                -0.136
REMARK  Name = 
REMARK  2 active torsions:
REMARK  status: ('A' for Active; 'I' for Inactive)
REMARK    1  A    between atoms: N_11  and  C_12
REMARK    2  A    between atoms: C_12  and  C_13
REMARK                            x       y       z     vdW  Elec       q    Type
REMARK                         _______ _______ _______ _____ _____    ______ ____
ROOT
ATOM      1  N   UNL     1      44.022   2.683  10.851  0.00  0.00    +0.000 NA
ATOM      2  C   UNL     1      44.077   3.967  10.929  0.00  0.00    +0.000 C 
ATOM      3  N   UNL     1      43.751   4.742   9.872  0.00  0.00    +0.000 N 
ATOM      4  N   UNL     1      44.515   4.633  12.029  0.00  0.00    +0.000 N 
ATOM      5  C   UNL     1      45.457   4.006  12.976  0.00  0.00    +0.000 C 
ATOM      6  C   UNL     1      46.826   4.739  12.931  0.00  0.00    +0.000 C 
ATOM      7  C   UNL     1      46.610   6.223  12.994  0.00  0.00    +0.000 A 
ATOM      8  C   UNL     1      45.387   6.827  12.746  0.00  0.00    +0.000 A 
ATOM      9  C   UNL     1      45.565   8.219  12.900  0.00  0.00    +0.000 A 
ATOM     10  C   UNL     1      46.897   8.425  13.194  0.00  0.00    +0.000 A 
ATOM     11  N   UNL     1      47.537   7.203  13.236  0.00  0.00    +0.000 N 
ATOM     12  C   UNL     1      44.172   6.021  12.385  0.00  0.00    +0.000 C 
ATOM     13  H   UNL     1      43.642   2.412   9.945  0.00  0.00    +0.000 HD
ATOM     14  H   UNL     1      43.693   4.244   8.995  0.00  0.00    +0.000 HD
ATOM     15  H   UNL     1      44.381   5.531   9.780  0.00  0.00    +0.000 HD
ENDROOT
BRANCH  11  16
ATOM     16  C   UNL     1      48.980   7.038  13.384  0.00  0.00    +0.000 C 
BRANCH  16  17
ATOM     17  C   UNL     1      49.404   7.032  14.831  0.00  0.00    +0.000 A 
ATOM     18  C   UNL     1      50.594   7.659  15.227  0.00  0.00    +0.000 A 
ATOM     19  C   UNL     1      51.008   7.624  16.559  0.00  0.00    +0.000 A 
ATOM     20  C   UNL     1      50.231   6.971  17.513  0.00  0.00    +0.000 A 
ATOM     21  C   UNL     1      49.038   6.357  17.137  0.00  0.00    +0.000 A 
ATOM     22  C   UNL     1      48.625   6.388  15.804  0.00  0.00    +0.000 A 
ENDBRANCH  16  17
ENDBRANCH  11  16
TORSDOF 2
ENDMDL
