MODEL 1
REMARK VINA RESULT:    -8.474      0.000      0.000
REMARK INTER + INTRA:         -13.395
REMARK INTER:                 -12.438
REMARK INTRA:                  -0.958
REMARK UNBOUND:                -0.958
REMARK  Name = 
REMARK  9 active torsions:
REMARK  status: ('A' for Active; 'I' for Inactive)
REMARK    1  A    between atoms: C_1  and  C_2
REMARK    2  A    between atoms: C_2  and  C_3
REMARK    3  A    between atoms: C_7  and  C_8
REMARK    4  A    between atoms: C_8  and  C_9
REMARK    5  A    between atoms: C_9  and  N_10
REMARK    6  A    between atoms: N_10  and  C_11
REMARK    7  A    between atoms: C_14  and  C_15
REMARK    8  A    between atoms: N_23  and  C_24
REMARK    9  A    between atoms: C_24  and  C_25
REMARK                            x       y       z     vdW  Elec       q    Type
REMARK                         _______ _______ _______ _____ _____    ______ ____
ROOT
ATOM      1  C   UNL     1      45.671   5.812  11.633  0.00  0.00    +0.000 A 
ATOM      2  C   UNL     1      45.644   7.207  11.487  0.00  0.00    +0.000 A 
ATOM      3  C   UNL     1      46.337   8.037  12.374  0.00  0.00    +0.000 A 
ATOM      4  C   UNL     1      47.066   7.492  13.434  0.00  0.00    +0.000 A 
ATOM      5  C   UNL     1      47.124   6.109  13.609  0.00  0.00    +0.000 A 
ATOM      6  C   UNL     1      46.445   5.298  12.681  0.00  0.00    +0.000 A 
ENDROOT
BRANCH   1   8
ATOM      7  C   UNL     1      43.343   5.382  10.904  0.00  0.00    +0.000 C 
ATOM      8  C   UNL     1      44.801   4.885  10.752  0.00  0.00    +0.000 C 
ATOM      9  C   UNL     1      45.266   4.984   9.276  0.00  0.00    +0.000 C 
ATOM     10  C   UNL     1      44.556   3.982   8.356  0.00  0.00    +0.000 C 
ATOM     11  N   UNL     1      44.685   2.582   8.781  0.00  0.00    +0.000 NA
ATOM     12  C   UNL     1      44.200   2.432  10.162  0.00  0.00    +0.000 C 
ATOM     13  C   UNL     1      44.867   3.380  11.165  0.00  0.00    +0.000 C 
ATOM     14  F   UNL     1      44.271   3.200  12.381  0.00  0.00    +0.000 F 
BRANCH  11  15
ATOM     15  C   UNL     1      46.063   2.036   8.617  0.00  0.00    +0.000 C 
BRANCH  15  16
ATOM     16  C   UNL     1      46.832   2.281   7.296  0.00  0.00    +0.000 C 
ATOM     17  F   UNL     1      47.627   3.370   7.327  0.00  0.00    +0.000 F 
ATOM     18  F   UNL     1      47.618   1.215   7.009  0.00  0.00    +0.000 F 
ATOM     19  F   UNL     1      45.973   2.436   6.262  0.00  0.00    +0.000 F 
ENDBRANCH  15  16
ENDBRANCH  11  15
ENDBRANCH   1   8
BRANCH   5  20
ATOM     20  C   UNL     1      47.846   5.515  14.809  0.00  0.00    +0.000 C 
BRANCH  20  21
ATOM     21  C   UNL     1      47.043   4.411  15.512  0.00  0.00    +0.000 C 
BRANCH  21  22
ATOM     22  N   UNL     1      47.440   4.181  16.899  0.00  0.00    +0.000 N 
ATOM     23  H   UNL     1      46.726   3.674  17.421  0.00  0.00    +0.000 HD
BRANCH  22  24
ATOM     24  C   UNL     1      48.707   3.571  17.052  0.00  0.00    +0.000 A 
ATOM     25  C   UNL     1      49.718   4.099  17.868  0.00  0.00    +0.000 A 
ATOM     26  C   UNL     1      50.920   3.417  18.049  0.00  0.00    +0.000 A 
ATOM     27  C   UNL     1      51.075   2.194  17.429  0.00  0.00    +0.000 A 
ATOM     28  N   UNL     1      50.123   1.611  16.646  0.00  0.00    +0.000 NA
ATOM     29  C   UNL     1      48.968   2.313  16.500  0.00  0.00    +0.000 A 
BRANCH  27  30
ATOM     30  C   UNL     1      52.341   1.422  17.646  0.00  0.00    +0.000 C 
ATOM     31  N   UNL     1      52.178   0.181  18.198  0.00  0.00    +0.000 N 
ATOM     32  O   UNL     1      53.445   1.865  17.364  0.00  0.00    +0.000 OA
ATOM     33  H   UNL     1      51.248  -0.129  18.455  0.00  0.00    +0.000 HD
ATOM     34  H   UNL     1      52.989  -0.372  18.425  0.00  0.00    +0.000 HD
ENDBRANCH  27  30
ENDBRANCH  22  24
ENDBRANCH  21  22
ENDBRANCH  20  21
ENDBRANCH   5  20
TORSDOF 8
ENDMDL
MODEL 2
REMARK VINA RESULT:    -8.142      4.993      8.584
REMARK INTER + INTRA:         -12.907
REMARK INTER:                 -11.559
REMARK INTRA:                  -1.349
REMARK UNBOUND:                -0.958
REMARK  Name = 
REMARK  9 active torsions:
REMARK  status: ('A' for Active; 'I' for Inactive)
REMARK    1  A    between atoms: C_1  and  C_2
REMARK    2  A    between atoms: C_2  and  C_3
REMARK    3  A    between atoms: C_7  and  C_8
REMARK    4  A    between atoms: C_8  and  C_9
REMARK    5  A    between atoms: C_9  and  N_10
REMARK    6  A    between atoms: N_10  and  C_11
REMARK    7  A    between atoms: C_14  and  C_15
REMARK    8  A    between atoms: N_23  and  C_24
REMARK    9  A    between atoms: C_24  and  C_25
REMARK                            x       y       z     vdW  Elec       q    Type
REMARK                         _______ _______ _______ _____ _____    ______ ____
ROOT
ATOM      1  C   UNL     1      46.910   6.630  13.055  0.00  0.00    +0.000 A 
ATOM      2  C   UNL     1      47.480   5.520  13.697  0.00  0.00    +0.000 A 
ATOM      3  C   UNL     1      46.753   4.339  13.871  0.00  0.00    +0.000 A 
ATOM      4  C   UNL     1      45.435   4.241  13.418  0.00  0.00    +0.000 A 
ATOM      5  C   UNL     1      44.835   5.321  12.769  0.00  0.00    +0.000 A 
ATOM      6  C   UNL     1      45.602   6.484  12.576  0.00  0.00    +0.000 A 
ENDROOT
BRANCH   1   8
ATOM      7  C   UNL     1      46.711   8.942  12.190  0.00  0.00    +0.000 C 
ATOM      8  C   UNL     1      47.644   7.989  12.976  0.00  0.00    +0.000 C 
ATOM      9  C   UNL     1      47.898   8.526  14.408  0.00  0.00    +0.000 C 
ATOM     10  C   UNL     1      48.756   9.798  14.428  0.00  0.00    +0.000 C 
ATOM     11  N   UNL     1      50.055   9.655  13.757  0.00  0.00    +0.000 NA
ATOM     12  C   UNL     1      49.856   9.201  12.372  0.00  0.00    +0.000 C 
ATOM     13  C   UNL     1      49.024   7.919  12.249  0.00  0.00    +0.000 C 
ATOM     14  F   UNL     1      48.842   7.657  10.920  0.00  0.00    +0.000 F 
BRANCH  11  15
ATOM     15  C   UNL     1      51.011   8.780  14.493  0.00  0.00    +0.000 C 
BRANCH  15  16
ATOM     16  C   UNL     1      52.534   8.996  14.325  0.00  0.00    +0.000 C 
ATOM     17  F   UNL     1      53.153   7.997  13.662  0.00  0.00    +0.000 F 
ATOM     18  F   UNL     1      52.770  10.142  13.639  0.00  0.00    +0.000 F 
ATOM     19  F   UNL     1      53.139   9.118  15.529  0.00  0.00    +0.000 F 
ENDBRANCH  15  16
ENDBRANCH  11  15
ENDBRANCH   1   8
BRANCH   5  20
ATOM     20  C   UNL     1      43.374   5.250  12.348  0.00  0.00    +0.000 C 
BRANCH  20  21
ATOM     21  C   UNL     1      43.147   4.396  11.093  0.00  0.00    +0.000 C 
BRANCH  21  22
ATOM     22  N   UNL     1      43.795   4.919   9.893  0.00  0.00    +0.000 N 
ATOM     23  H   UNL     1      44.335   5.762  10.088  0.00  0.00    +0.000 HD
BRANCH  22  24
ATOM     24  C   UNL     1      44.572   3.972   9.186  0.00  0.00    +0.000 A 
ATOM     25  C   UNL     1      45.440   4.319   8.142  0.00  0.00    +0.000 A 
ATOM     26  C   UNL     1      46.244   3.358   7.531  0.00  0.00    +0.000 A 
ATOM     27  C   UNL     1      46.186   2.063   8.005  0.00  0.00    +0.000 A 
ATOM     28  N   UNL     1      45.387   1.664   9.034  0.00  0.00    +0.000 NA
ATOM     29  C   UNL     1      44.620   2.636   9.598  0.00  0.00    +0.000 A 
BRANCH  27  30
ATOM     30  C   UNL     1      47.075   1.024   7.394  0.00  0.00    +0.000 C 
ATOM     31  N   UNL     1      46.748  -0.270   7.693  0.00  0.00    +0.000 N 
ATOM     32  O   UNL     1      48.033   1.302   6.686  0.00  0.00    +0.000 OA
ATOM     33  H   UNL     1      45.971  -0.454   8.318  0.00  0.00    +0.000 HD
ATOM     34  H   UNL     1      47.336  -1.021   7.363  0.00  0.00    +0.000 HD
ENDBRANCH  27  30
ENDBRANCH  22  24
ENDBRANCH  21  22
ENDBRANCH  20  21
ENDBRANCH   5  20
TORSDOF 8
ENDMDL
MODEL 3
REMARK VINA RESULT:    -7.902      4.969      7.185
REMARK INTER + INTRA:         -12.556
REMARK INTER:                 -11.651
REMARK INTRA:                  -0.905
REMARK UNBOUND:                -0.958
REMARK  Name = 
REMARK  9 active torsions:
REMARK  status: ('A' for Active; 'I' for Inactive)
REMARK    1  A    between atoms: C_1  and  C_2
REMARK    2  A    between atoms: C_2  and  C_3
REMARK    3  A    between atoms: C_7  and  C_8
REMARK    4  A    between atoms: C_8  and  C_9
REMARK    5  A    between atoms: C_9  and  N_10
REMARK    6  A    between atoms: N_10  and  C_11
REMARK    7  A    between atoms: C_14  and  C_15
REMARK    8  A    between atoms: N_23  and  C_24
REMARK    9  A    between atoms: C_24  and  C_25
REMARK                            x       y       z     vdW  Elec       q    Type
REMARK                         _______ _______ _______ _____ _____    ______ ____
ROOT
ATOM      1  C   UNL     1      45.956   5.386  11.818  0.00  0.00    +0.000 A 
ATOM      2  C   UNL     1      46.131   4.917  13.129  0.00  0.00    +0.000 A 
ATOM      3  C   UNL     1      47.081   5.493  13.978  0.00  0.00    +0.000 A 
ATOM      4  C   UNL     1      47.887   6.544  13.534  0.00  0.00    +0.000 A 
ATOM      5  C   UNL     1      47.739   7.044  12.239  0.00  0.00    +0.000 A 
ATOM      6  C   UNL     1      46.751   6.468  11.419  0.00  0.00    +0.000 A 
ENDROOT
BRANCH   1   8
ATOM      7  C   UNL     1      43.617   5.314  11.008  0.00  0.00    +0.000 C 
ATOM      8  C   UNL     1      45.014   4.676  10.819  0.00  0.00    +0.000 C 
ATOM      9  C   UNL     1      45.528   4.897   9.372  0.00  0.00    +0.000 C 
ATOM     10  C   UNL     1      44.738   4.100   8.327  0.00  0.00    +0.000 C 
ATOM     11  N   UNL     1      44.698   2.653   8.580  0.00  0.00    +0.000 NA
ATOM     12  C   UNL     1      44.160   2.395   9.925  0.00  0.00    +0.000 C 
ATOM     13  C   UNL     1      44.900   3.135  11.046  0.00  0.00    +0.000 C 
ATOM     14  F   UNL     1      44.253   2.880  12.223  0.00  0.00    +0.000 F 
BRANCH  11  15
ATOM     15  C   UNL     1      46.010   1.977   8.371  0.00  0.00    +0.000 C 
BRANCH  15  16
ATOM     16  C   UNL     1      46.792   2.211   7.055  0.00  0.00    +0.000 C 
ATOM     17  F   UNL     1      46.021   2.649   6.039  0.00  0.00    +0.000 F 
ATOM     18  F   UNL     1      47.766   3.134   7.249  0.00  0.00    +0.000 F 
ATOM     19  F   UNL     1      47.394   1.071   6.644  0.00  0.00    +0.000 F 
ENDBRANCH  15  16
ENDBRANCH  11  15
ENDBRANCH   1   8
BRANCH   5  20
ATOM     20  C   UNL     1      48.670   8.131  11.723  0.00  0.00    +0.000 C 
BRANCH  20  21
ATOM     21  C   UNL     1      48.722   9.365  12.635  0.00  0.00    +0.000 C 
BRANCH  21  22
ATOM     22  N   UNL     1      48.297  10.602  11.984  0.00  0.00    +0.000 N 
ATOM     23  H   UNL     1      48.798  10.765  11.111  0.00  0.00    +0.000 HD
BRANCH  22  24
ATOM     24  C   UNL     1      46.900  10.716  11.796  0.00  0.00    +0.000 A 
ATOM     25  C   UNL     1      46.324  11.502  10.788  0.00  0.00    +0.000 A 
ATOM     26  C   UNL     1      44.944  11.516  10.594  0.00  0.00    +0.000 A 
ATOM     27  C   UNL     1      44.164  10.709  11.398  0.00  0.00    +0.000 A 
ATOM     28  N   UNL     1      44.661   9.900  12.375  0.00  0.00    +0.000 NA
ATOM     29  C   UNL     1      46.013   9.920  12.528  0.00  0.00    +0.000 A 
BRANCH  27  30
ATOM     30  C   UNL     1      42.683  10.674  11.175  0.00  0.00    +0.000 C 
ATOM     31  N   UNL     1      41.928  11.162  12.206  0.00  0.00    +0.000 N 
ATOM     32  O   UNL     1      42.175  10.233  10.154  0.00  0.00    +0.000 OA
ATOM     33  H   UNL     1      42.389  11.479  13.051  0.00  0.00    +0.000 HD
ATOM     34  H   UNL     1      40.922  11.118  12.150  0.00  0.00    +0.000 HD
ENDBRANCH  27  30
ENDBRANCH  22  24
ENDBRANCH  21  22
ENDBRANCH  20  21
ENDBRANCH   5  20
TORSDOF 8
ENDMDL
MODEL 4
REMARK VINA RESULT:    -7.530      4.563      8.722
REMARK INTER + INTRA:         -12.009
REMARK INTER:                 -10.661
REMARK INTRA:                  -1.348
REMARK UNBOUND:                -0.958
REMARK  Name = 
REMARK  9 active torsions:
REMARK  status: ('A' for Active; 'I' for Inactive)
REMARK    1  A    between atoms: C_1  and  C_2
REMARK    2  A    between atoms: C_2  and  C_3
REMARK    3  A    between atoms: C_7  and  C_8
REMARK    4  A    between atoms: C_8  and  C_9
REMARK    5  A    between atoms: C_9  and  N_10
REMARK    6  A    between atoms: N_10  and  C_11
REMARK    7  A    between atoms: C_14  and  C_15
REMARK    8  A    between atoms: N_23  and  C_24
REMARK    9  A    between atoms: C_24  and  C_25
REMARK                            x       y       z     vdW  Elec       q    Type
REMARK                         _______ _______ _______ _____ _____    ______ ____
ROOT
ATOM      1  C   UNL     1      46.371   7.708  12.748  0.00  0.00    +0.000 A 
ATOM      2  C   UNL     1      45.638   8.548  11.897  0.00  0.00    +0.000 A 
ATOM      3  C   UNL     1      44.474   8.096  11.267  0.00  0.00    +0.000 A 
ATOM      4  C   UNL     1      44.021   6.789  11.465  0.00  0.00    +0.000 A 
ATOM      5  C   UNL     1      44.718   5.925  12.310  0.00  0.00    +0.000 A 
ATOM      6  C   UNL     1      45.866   6.418  12.957  0.00  0.00    +0.000 A 
ENDROOT
BRANCH   1   8
ATOM      7  C   UNL     1      48.348   9.142  12.338  0.00  0.00    +0.000 C 
ATOM      8  C   UNL     1      47.732   8.139  13.342  0.00  0.00    +0.000 C 
ATOM      9  C   UNL     1      47.508   8.811  14.722  0.00  0.00    +0.000 C 
ATOM     10  C   UNL     1      48.818   9.133  15.452  0.00  0.00    +0.000 C 
ATOM     11  N   UNL     1      49.696   7.972  15.648  0.00  0.00    +0.000 NA
ATOM     12  C   UNL     1      49.982   7.337  14.352  0.00  0.00    +0.000 C 
ATOM     13  C   UNL     1      48.730   6.957  13.553  0.00  0.00    +0.000 C 
ATOM     14  F   UNL     1      49.132   6.460  12.345  0.00  0.00    +0.000 F 
BRANCH  11  15
ATOM     15  C   UNL     1      49.171   6.991  16.641  0.00  0.00    +0.000 C 
BRANCH  15  16
ATOM     16  C   UNL     1      50.160   6.119  17.452  0.00  0.00    +0.000 C 
ATOM     17  F   UNL     1      50.043   4.798  17.206  0.00  0.00    +0.000 F 
ATOM     18  F   UNL     1      51.437   6.471  17.166  0.00  0.00    +0.000 F 
ATOM     19  F   UNL     1      49.981   6.300  18.781  0.00  0.00    +0.000 F 
ENDBRANCH  15  16
ENDBRANCH  11  15
ENDBRANCH   1   8
BRANCH   5  20
ATOM     20  C   UNL     1      44.277   4.477  12.463  0.00  0.00    +0.000 C 
BRANCH  20  21
ATOM     21  C   UNL     1      43.532   3.938  11.233  0.00  0.00    +0.000 C 
BRANCH  21  22
ATOM     22  N   UNL     1      44.035   2.655  10.749  0.00  0.00    +0.000 N 
ATOM     23  H   UNL     1      43.293   1.961  10.667  0.00  0.00    +0.000 HD
BRANCH  22  24
ATOM     24  C   UNL     1      44.790   2.734   9.556  0.00  0.00    +0.000 A 
ATOM     25  C   UNL     1      45.150   3.949   8.956  0.00  0.00    +0.000 A 
ATOM     26  C   UNL     1      45.964   3.974   7.825  0.00  0.00    +0.000 A 
ATOM     27  C   UNL     1      46.433   2.773   7.332  0.00  0.00    +0.000 A 
ATOM     28  N   UNL     1      46.146   1.560   7.883  0.00  0.00    +0.000 NA
ATOM     29  C   UNL     1      45.348   1.586   8.985  0.00  0.00    +0.000 A 
BRANCH  27  30
ATOM     30  C   UNL     1      47.347   2.780   6.145  0.00  0.00    +0.000 C 
ATOM     31  N   UNL     1      48.644   2.434   6.407  0.00  0.00    +0.000 N 
ATOM     32  O   UNL     1      46.972   3.082   5.021  0.00  0.00    +0.000 OA
ATOM     33  H   UNL     1      48.919   2.232   7.361  0.00  0.00    +0.000 HD
ATOM     34  H   UNL     1      49.328   2.471   5.667  0.00  0.00    +0.000 HD
ENDBRANCH  27  30
ENDBRANCH  22  24
ENDBRANCH  21  22
ENDBRANCH  20  21
ENDBRANCH   5  20
TORSDOF 8
ENDMDL
MODEL 5
REMARK VINA RESULT:    -7.473      5.145      8.234
REMARK INTER + INTRA:         -11.926
REMARK INTER:                 -10.873
REMARK INTRA:                  -1.053
REMARK UNBOUND:                -0.958
REMARK  Name = 
REMARK  9 active torsions:
REMARK  status: ('A' for Active; 'I' for Inactive)
REMARK    1  A    between atoms: C_1  and  C_2
REMARK    2  A    between atoms: C_2  and  C_3
REMARK    3  A    between atoms: C_7  and  C_8
REMARK    4  A    between atoms: C_8  and  C_9
REMARK    5  A    between atoms: C_9  and  N_10
REMARK    6  A    between atoms: N_10  and  C_11
REMARK    7  A    between atoms: C_14  and  C_15
REMARK    8  A    between atoms: N_23  and  C_24
REMARK    9  A    between atoms: C_24  and  C_25
REMARK                            x       y       z     vdW  Elec       q    Type
REMARK                         _______ _______ _______ _____ _____    ______ ____
ROOT
ATOM      1  C   UNL     1      47.656   6.596  13.705  0.00  0.00    +0.000 A 
ATOM      2  C   UNL     1      47.972   5.715  14.749  0.00  0.00    +0.000 A 
ATOM      3  C   UNL     1      47.168   4.604  15.022  0.00  0.00    +0.000 A 
ATOM      4  C   UNL     1      46.021   4.354  14.265  0.00  0.00    +0.000 A 
ATOM      5  C   UNL     1      45.676   5.204  13.213  0.00  0.00    +0.000 A 
ATOM      6  C   UNL     1      46.523   6.293  12.940  0.00  0.00    +0.000 A 
ENDROOT
BRANCH   1   8
ATOM      7  C   UNL     1      47.894   8.934  14.487  0.00  0.00    +0.000 C 
ATOM      8  C   UNL     1      48.449   7.904  13.475  0.00  0.00    +0.000 C 
ATOM      9  C   UNL     1      49.958   7.647  13.724  0.00  0.00    +0.000 C 
ATOM     10  C   UNL     1      50.838   8.853  13.371  0.00  0.00    +0.000 C 
ATOM     11  N   UNL     1      50.678   9.328  11.989  0.00  0.00    +0.000 NA
ATOM     12  C   UNL     1      49.264   9.639  11.728  0.00  0.00    +0.000 C 
ATOM     13  C   UNL     1      48.303   8.484  12.032  0.00  0.00    +0.000 C 
ATOM     14  F   UNL     1      47.027   8.928  11.832  0.00  0.00    +0.000 F 
BRANCH  11  15
ATOM     15  C   UNL     1      51.235   8.392  10.972  0.00  0.00    +0.000 C 
BRANCH  15  16
ATOM     16  C   UNL     1      52.585   8.718  10.289  0.00  0.00    +0.000 C 
ATOM     17  F   UNL     1      53.661   8.410  11.041  0.00  0.00    +0.000 F 
ATOM     18  F   UNL     1      52.697   8.033   9.124  0.00  0.00    +0.000 F 
ATOM     19  F   UNL     1      52.666  10.035   9.988  0.00  0.00    +0.000 F 
ENDBRANCH  15  16
ENDBRANCH  11  15
ENDBRANCH   1   8
BRANCH   5  20
ATOM     20  C   UNL     1      44.384   4.984  12.439  0.00  0.00    +0.000 C 
BRANCH  20  21
ATOM     21  C   UNL     1      44.389   5.644  11.053  0.00  0.00    +0.000 C 
BRANCH  21  22
ATOM     22  N   UNL     1      43.821   4.811   9.996  0.00  0.00    +0.000 N 
ATOM     23  H   UNL     1      43.250   5.353   9.349  0.00  0.00    +0.000 HD
BRANCH  22  24
ATOM     24  C   UNL     1      44.767   4.023   9.300  0.00  0.00    +0.000 A 
ATOM     25  C   UNL     1      44.784   2.622   9.352  0.00  0.00    +0.000 A 
ATOM     26  C   UNL     1      45.686   1.888   8.584  0.00  0.00    +0.000 A 
ATOM     27  C   UNL     1      46.538   2.578   7.745  0.00  0.00    +0.000 A 
ATOM     28  N   UNL     1      46.555   3.935   7.625  0.00  0.00    +0.000 NA
ATOM     29  C   UNL     1      45.658   4.607   8.395  0.00  0.00    +0.000 A 
BRANCH  27  30
ATOM     30  C   UNL     1      47.485   1.807   6.876  0.00  0.00    +0.000 C 
ATOM     31  N   UNL     1      48.535   2.528   6.378  0.00  0.00    +0.000 N 
ATOM     32  O   UNL     1      47.332   0.622   6.616  0.00  0.00    +0.000 OA
ATOM     33  H   UNL     1      48.600   3.518   6.585  0.00  0.00    +0.000 HD
ATOM     34  H   UNL     1      49.181   2.089   5.740  0.00  0.00    +0.000 HD
ENDBRANCH  27  30
ENDBRANCH  22  24
ENDBRANCH  21  22
ENDBRANCH  20  21
ENDBRANCH   5  20
TORSDOF 8
ENDMDL
MODEL 6
REMARK VINA RESULT:    -7.292      2.446      3.181
REMARK INTER + INTRA:         -11.661
REMARK INTER:                 -10.504
REMARK INTRA:                  -1.157
REMARK UNBOUND:                -0.958
REMARK  Name = 
REMARK  9 active torsions:
REMARK  status: ('A' for Active; 'I' for Inactive)
REMARK    1  A    between atoms: C_1  and  C_2
REMARK    2  A    between atoms: C_2  and  C_3
REMARK    3  A    between atoms: C_7  and  C_8
REMARK    4  A    between atoms: C_8  and  C_9
REMARK    5  A    between atoms: C_9  and  N_10
REMARK    6  A    between atoms: N_10  and  C_11
REMARK    7  A    between atoms: C_14  and  C_15
REMARK    8  A    between atoms: N_23  and  C_24
REMARK    9  A    between atoms: C_24  and  C_25
REMARK                            x       y       z     vdW  Elec       q    Type
REMARK                         _______ _______ _______ _____ _____    ______ ____
ROOT
ATOM      1  C   UNL     1      45.747   4.985  12.168  0.00  0.00    +0.000 A 
ATOM      2  C   UNL     1      45.965   4.155  13.278  0.00  0.00    +0.000 A 
ATOM      3  C   UNL     1      46.792   4.563  14.329  0.00  0.00    +0.000 A 
ATOM      4  C   UNL     1      47.430   5.805  14.292  0.00  0.00    +0.000 A 
ATOM      5  C   UNL     1      47.233   6.662  13.208  0.00  0.00    +0.000 A 
ATOM      6  C   UNL     1      46.368   6.240  12.182  0.00  0.00    +0.000 A 
ENDROOT
BRANCH   1   8
ATOM      7  C   UNL     1      43.578   5.209  10.994  0.00  0.00    +0.000 C 
ATOM      8  C   UNL     1      44.952   4.500  10.933  0.00  0.00    +0.000 C 
ATOM      9  C   UNL     1      45.714   4.888   9.640  0.00  0.00    +0.000 C 
ATOM     10  C   UNL     1      45.073   4.312   8.371  0.00  0.00    +0.000 C 
ATOM     11  N   UNL     1      44.917   2.851   8.387  0.00  0.00    +0.000 NA
ATOM     12  C   UNL     1      44.146   2.444   9.573  0.00  0.00    +0.000 C 
ATOM     13  C   UNL     1      44.723   2.956  10.898  0.00  0.00    +0.000 C 
ATOM     14  F   UNL     1      43.874   2.584  11.903  0.00  0.00    +0.000 F 
BRANCH  11  15
ATOM     15  C   UNL     1      46.209   2.115   8.288  0.00  0.00    +0.000 C 
BRANCH  15  16
ATOM     16  C   UNL     1      46.951   2.049   6.931  0.00  0.00    +0.000 C 
ATOM     17  F   UNL     1      48.200   2.556   6.972  0.00  0.00    +0.000 F 
ATOM     18  F   UNL     1      47.051   0.762   6.516  0.00  0.00    +0.000 F 
ATOM     19  F   UNL     1      46.270   2.726   5.978  0.00  0.00    +0.000 F 
ENDBRANCH  15  16
ENDBRANCH  11  15
ENDBRANCH   1   8
BRANCH   5  20
ATOM     20  C   UNL     1      47.990   7.980  13.122  0.00  0.00    +0.000 C 
BRANCH  20  21
ATOM     21  C   UNL     1      49.465   7.857  13.528  0.00  0.00    +0.000 C 
BRANCH  21  22
ATOM     22  N   UNL     1      49.811   8.594  14.741  0.00  0.00    +0.000 N 
ATOM     23  H   UNL     1      49.305   9.477  14.808  0.00  0.00    +0.000 HD
BRANCH  22  24
ATOM     24  C   UNL     1      49.686   7.847  15.935  0.00  0.00    +0.000 A 
ATOM     25  C   UNL     1      48.720   8.122  16.914  0.00  0.00    +0.000 A 
ATOM     26  C   UNL     1      48.587   7.305  18.036  0.00  0.00    +0.000 A 
ATOM     27  C   UNL     1      49.409   6.202  18.140  0.00  0.00    +0.000 A 
ATOM     28  N   UNL     1      50.348   5.862  17.213  0.00  0.00    +0.000 NA
ATOM     29  C   UNL     1      50.441   6.688  16.137  0.00  0.00    +0.000 A 
BRANCH  27  30
ATOM     30  C   UNL     1      49.251   5.285  19.315  0.00  0.00    +0.000 C 
ATOM     31  N   UNL     1      49.942   4.107  19.230  0.00  0.00    +0.000 N 
ATOM     32  O   UNL     1      48.551   5.556  20.279  0.00  0.00    +0.000 OA
ATOM     33  H   UNL     1      50.477   3.906  18.393  0.00  0.00    +0.000 HD
ATOM     34  H   UNL     1      49.839   3.417  19.958  0.00  0.00    +0.000 HD
ENDBRANCH  27  30
ENDBRANCH  22  24
ENDBRANCH  21  22
ENDBRANCH  20  21
ENDBRANCH   5  20
TORSDOF 8
ENDMDL
MODEL 7
REMARK VINA RESULT:    -7.287      1.856      2.516
REMARK INTER + INTRA:         -11.653
REMARK INTER:                 -10.673
REMARK INTRA:                  -0.979
REMARK UNBOUND:                -0.958
REMARK  Name = 
REMARK  9 active torsions:
REMARK  status: ('A' for Active; 'I' for Inactive)
REMARK    1  A    between atoms: C_1  and  C_2
REMARK    2  A    between atoms: C_2  and  C_3
REMARK    3  A    between atoms: C_7  and  C_8
REMARK    4  A    between atoms: C_8  and  C_9
REMARK    5  A    between atoms: C_9  and  N_10
REMARK    6  A    between atoms: N_10  and  C_11
REMARK    7  A    between atoms: C_14  and  C_15
REMARK    8  A    between atoms: N_23  and  C_24
REMARK    9  A    between atoms: C_24  and  C_25
REMARK                            x       y       z     vdW  Elec       q    Type
REMARK                         _______ _______ _______ _____ _____    ______ ____
ROOT
ATOM      1  C   UNL     1      45.478   5.744  11.502  0.00  0.00    +0.000 A 
ATOM      2  C   UNL     1      45.195   7.118  11.501  0.00  0.00    +0.000 A 
ATOM      3  C   UNL     1      45.760   7.970  12.454  0.00  0.00    +0.000 A 
ATOM      4  C   UNL     1      46.615   7.468  13.439  0.00  0.00    +0.000 A 
ATOM      5  C   UNL     1      46.927   6.109  13.469  0.00  0.00    +0.000 A 
ATOM      6  C   UNL     1      46.371   5.281  12.477  0.00  0.00    +0.000 A 
ENDROOT
BRANCH   1   8
ATOM      7  C   UNL     1      43.249   5.098  10.638  0.00  0.00    +0.000 C 
ATOM      8  C   UNL     1      44.757   4.763  10.549  0.00  0.00    +0.000 C 
ATOM      9  C   UNL     1      45.281   4.964   9.103  0.00  0.00    +0.000 C 
ATOM     10  C   UNL     1      44.729   3.927   8.116  0.00  0.00    +0.000 C 
ATOM     11  N   UNL     1      44.986   2.533   8.505  0.00  0.00    +0.000 NA
ATOM     12  C   UNL     1      44.451   2.283   9.852  0.00  0.00    +0.000 C 
ATOM     13  C   UNL     1      44.963   3.259  10.918  0.00  0.00    +0.000 C 
ATOM     14  F   UNL     1      44.330   2.974  12.095  0.00  0.00    +0.000 F 
BRANCH  11  15
ATOM     15  C   UNL     1      46.420   2.141   8.397  0.00  0.00    +0.000 C 
BRANCH  15  16
ATOM     16  C   UNL     1      46.945   1.508   7.086  0.00  0.00    +0.000 C 
ATOM     17  F   UNL     1      46.741   0.177   7.009  0.00  0.00    +0.000 F 
ATOM     18  F   UNL     1      46.331   2.072   6.016  0.00  0.00    +0.000 F 
ATOM     19  F   UNL     1      48.273   1.723   6.946  0.00  0.00    +0.000 F 
ENDBRANCH  15  16
ENDBRANCH  11  15
ENDBRANCH   1   8
BRANCH   5  20
ATOM     20  C   UNL     1      47.790   5.543  14.589  0.00  0.00    +0.000 C 
BRANCH  20  21
ATOM     21  C   UNL     1      47.345   4.147  15.048  0.00  0.00    +0.000 C 
BRANCH  21  22
ATOM     22  N   UNL     1      46.757   4.122  16.385  0.00  0.00    +0.000 N 
ATOM     23  H   UNL     1      46.358   3.211  16.609  0.00  0.00    +0.000 HD
BRANCH  22  24
ATOM     24  C   UNL     1      47.621   4.563  17.413  0.00  0.00    +0.000 A 
ATOM     25  C   UNL     1      47.233   5.483  18.398  0.00  0.00    +0.000 A 
ATOM     26  C   UNL     1      48.097   5.824  19.438  0.00  0.00    +0.000 A 
ATOM     27  C   UNL     1      49.330   5.207  19.489  0.00  0.00    +0.000 A 
ATOM     28  N   UNL     1      49.759   4.285  18.582  0.00  0.00    +0.000 NA
ATOM     29  C   UNL     1      48.882   3.984  17.586  0.00  0.00    +0.000 A 
BRANCH  27  30
ATOM     30  C   UNL     1      50.256   5.525  20.624  0.00  0.00    +0.000 C 
ATOM     31  N   UNL     1      50.134   6.786  21.139  0.00  0.00    +0.000 N 
ATOM     32  O   UNL     1      51.072   4.725  21.058  0.00  0.00    +0.000 OA
ATOM     33  H   UNL     1      49.473   7.430  20.720  0.00  0.00    +0.000 HD
ATOM     34  H   UNL     1      50.762   7.089  21.866  0.00  0.00    +0.000 HD
ENDBRANCH  27  30
ENDBRANCH  22  24
ENDBRANCH  21  22
ENDBRANCH  20  21
ENDBRANCH   5  20
TORSDOF 8
ENDMDL
MODEL 8
REMARK VINA RESULT:    -7.062      4.226      5.524
REMARK INTER + INTRA:         -11.323
REMARK INTER:                 -10.250
REMARK INTRA:                  -1.073
REMARK UNBOUND:                -0.958
REMARK  Name = 
REMARK  9 active torsions:
REMARK  status: ('A' for Active; 'I' for Inactive)
REMARK    1  A    between atoms: C_1  and  C_2
REMARK    2  A    between atoms: C_2  and  C_3
REMARK    3  A    between atoms: C_7  and  C_8
REMARK    4  A    between atoms: C_8  and  C_9
REMARK    5  A    between atoms: C_9  and  N_10
REMARK    6  A    between atoms: N_10  and  C_11
REMARK    7  A    between atoms: C_14  and  C_15
REMARK    8  A    between atoms: N_23  and  C_24
REMARK    9  A    between atoms: C_24  and  C_25
REMARK                            x       y       z     vdW  Elec       q    Type
REMARK                         _______ _______ _______ _____ _____    ______ ____
ROOT
ATOM      1  C   UNL     1      45.630   5.479  11.968  0.00  0.00    +0.000 A 
ATOM      2  C   UNL     1      46.471   4.797  12.861  0.00  0.00    +0.000 A 
ATOM      3  C   UNL     1      47.303   5.496  13.740  0.00  0.00    +0.000 A 
ATOM      4  C   UNL     1      47.325   6.892  13.742  0.00  0.00    +0.000 A 
ATOM      5  C   UNL     1      46.498   7.607  12.874  0.00  0.00    +0.000 A 
ATOM      6  C   UNL     1      45.645   6.878  12.025  0.00  0.00    +0.000 A 
ENDROOT
BRANCH   1   8
ATOM      7  C   UNL     1      43.363   5.278  10.992  0.00  0.00    +0.000 C 
ATOM      8  C   UNL     1      44.807   4.732  10.893  0.00  0.00    +0.000 C 
ATOM      9  C   UNL     1      45.407   5.013   9.491  0.00  0.00    +0.000 C 
ATOM     10  C   UNL     1      44.744   4.189   8.379  0.00  0.00    +0.000 C 
ATOM     11  N   UNL     1      44.779   2.738   8.607  0.00  0.00    +0.000 NA
ATOM     12  C   UNL     1      44.165   2.421   9.905  0.00  0.00    +0.000 C 
ATOM     13  C   UNL     1      44.776   3.182  11.088  0.00  0.00    +0.000 C 
ATOM     14  F   UNL     1      44.065   2.864  12.211  0.00  0.00    +0.000 F 
BRANCH  11  15
ATOM     15  C   UNL     1      46.143   2.150   8.481  0.00  0.00    +0.000 C 
BRANCH  15  16
ATOM     16  C   UNL     1      46.809   2.052   7.087  0.00  0.00    +0.000 C 
ATOM     17  F   UNL     1      46.186   2.779   6.137  0.00  0.00    +0.000 F 
ATOM     18  F   UNL     1      48.092   2.486   7.152  0.00  0.00    +0.000 F 
ATOM     19  F   UNL     1      46.841   0.768   6.659  0.00  0.00    +0.000 F 
ENDBRANCH  15  16
ENDBRANCH  11  15
ENDBRANCH   1   8
BRANCH   5  20
ATOM     20  C   UNL     1      46.578   9.126  12.812  0.00  0.00    +0.000 C 
BRANCH  20  21
ATOM     21  C   UNL     1      47.663   9.636  11.854  0.00  0.00    +0.000 C 
BRANCH  21  22
ATOM     22  N   UNL     1      48.984   9.760  12.465  0.00  0.00    +0.000 N 
ATOM     23  H   UNL     1      49.017   9.335  13.391  0.00  0.00    +0.000 HD
BRANCH  22  24
ATOM     24  C   UNL     1      50.049   9.298  11.658  0.00  0.00    +0.000 A 
ATOM     25  C   UNL     1      51.030  10.146  11.124  0.00  0.00    +0.000 A 
ATOM     26  C   UNL     1      52.104   9.631  10.401  0.00  0.00    +0.000 A 
ATOM     27  C   UNL     1      52.194   8.262  10.254  0.00  0.00    +0.000 A 
ATOM     28  N   UNL     1      51.293   7.380  10.771  0.00  0.00    +0.000 NA
ATOM     29  C   UNL     1      50.262   7.929  11.467  0.00  0.00    +0.000 A 
BRANCH  27  30
ATOM     30  C   UNL     1      53.366   7.684   9.520  0.00  0.00    +0.000 C 
ATOM     31  N   UNL     1      53.974   6.625  10.138  0.00  0.00    +0.000 N 
ATOM     32  O   UNL     1      53.764   8.125   8.452  0.00  0.00    +0.000 OA
ATOM     33  H   UNL     1      53.636   6.319  11.043  0.00  0.00    +0.000 HD
ATOM     34  H   UNL     1      54.803   6.221   9.730  0.00  0.00    +0.000 HD
ENDBRANCH  27  30
ENDBRANCH  22  24
ENDBRANCH  21  22
ENDBRANCH  20  21
ENDBRANCH   5  20
TORSDOF 8
ENDMDL
MODEL 9
REMARK VINA RESULT:    -6.765      3.903      4.953
REMARK INTER + INTRA:         -10.887
REMARK INTER:                  -9.830
REMARK INTRA:                  -1.057
REMARK UNBOUND:                -0.958
REMARK  Name = 
REMARK  9 active torsions:
REMARK  status: ('A' for Active; 'I' for Inactive)
REMARK    1  A    between atoms: C_1  and  C_2
REMARK    2  A    between atoms: C_2  and  C_3
REMARK    3  A    between atoms: C_7  and  C_8
REMARK    4  A    between atoms: C_8  and  C_9
REMARK    5  A    between atoms: C_9  and  N_10
REMARK    6  A    between atoms: N_10  and  C_11
REMARK    7  A    between atoms: C_14  and  C_15
REMARK    8  A    between atoms: N_23  and  C_24
REMARK    9  A    between atoms: C_24  and  C_25
REMARK                            x       y       z     vdW  Elec       q    Type
REMARK                         _______ _______ _______ _____ _____    ______ ____
ROOT
ATOM      1  C   UNL     1      45.697   5.174  11.972  0.00  0.00    +0.000 A 
ATOM      2  C   UNL     1      46.066   4.473  13.130  0.00  0.00    +0.000 A 
ATOM      3  C   UNL     1      46.948   5.033  14.059  0.00  0.00    +0.000 A 
ATOM      4  C   UNL     1      47.490   6.303  13.849  0.00  0.00    +0.000 A 
ATOM      5  C   UNL     1      47.142   7.035  12.713  0.00  0.00    +0.000 A 
ATOM      6  C   UNL     1      46.226   6.461  11.813  0.00  0.00    +0.000 A 
ENDROOT
BRANCH   1   8
ATOM      7  C   UNL     1      43.404   5.078  11.040  0.00  0.00    +0.000 C 
ATOM      8  C   UNL     1      44.837   4.521  10.865  0.00  0.00    +0.000 C 
ATOM      9  C   UNL     1      45.407   4.899   9.473  0.00  0.00    +0.000 C 
ATOM     10  C   UNL     1      44.706   4.170   8.320  0.00  0.00    +0.000 C 
ATOM     11  N   UNL     1      44.724   2.705   8.437  0.00  0.00    +0.000 NA
ATOM     12  C   UNL     1      44.136   2.299   9.723  0.00  0.00    +0.000 C 
ATOM     13  C   UNL     1      44.787   2.962  10.944  0.00  0.00    +0.000 C 
ATOM     14  F   UNL     1      44.098   2.570  12.057  0.00  0.00    +0.000 F 
BRANCH  11  15
ATOM     15  C   UNL     1      46.075   2.109   8.234  0.00  0.00    +0.000 C 
BRANCH  15  16
ATOM     16  C   UNL     1      46.790   2.278   6.871  0.00  0.00    +0.000 C 
ATOM     17  F   UNL     1      46.045   2.915   5.945  0.00  0.00    +0.000 F 
ATOM     18  F   UNL     1      47.933   2.990   7.029  0.00  0.00    +0.000 F 
ATOM     19  F   UNL     1      47.133   1.075   6.357  0.00  0.00    +0.000 F 
ENDBRANCH  15  16
ENDBRANCH  11  15
ENDBRANCH   1   8
BRANCH   5  20
ATOM     20  C   UNL     1      47.793   8.383  12.437  0.00  0.00    +0.000 C 
BRANCH  20  21
ATOM     21  C   UNL     1      49.015   8.285  11.513  0.00  0.00    +0.000 C 
BRANCH  21  22
ATOM     22  N   UNL     1      50.162   7.608  12.115  0.00  0.00    +0.000 N 
ATOM     23  H   UNL     1      50.809   7.255  11.411  0.00  0.00    +0.000 HD
BRANCH  22  24
ATOM     24  C   UNL     1      50.843   8.368  13.094  0.00  0.00    +0.000 A 
ATOM     25  C   UNL     1      50.913   7.993  14.443  0.00  0.00    +0.000 A 
ATOM     26  C   UNL     1      51.665   8.734  15.353  0.00  0.00    +0.000 A 
ATOM     27  C   UNL     1      52.365   9.826  14.883  0.00  0.00    +0.000 A 
ATOM     28  N   UNL     1      52.363  10.229  13.581  0.00  0.00    +0.000 NA
ATOM     29  C   UNL     1      51.615   9.476  12.731  0.00  0.00    +0.000 A 
BRANCH  27  30
ATOM     30  C   UNL     1      53.216  10.610  15.835  0.00  0.00    +0.000 C 
ATOM     31  N   UNL     1      52.579  11.040  16.966  0.00  0.00    +0.000 N 
ATOM     32  O   UNL     1      54.394  10.860  15.621  0.00  0.00    +0.000 OA
ATOM     33  H   UNL     1      51.591  10.846  17.083  0.00  0.00    +0.000 HD
ATOM     34  H   UNL     1      53.074  11.621  17.625  0.00  0.00    +0.000 HD
ENDBRANCH  27  30
ENDBRANCH  22  24
ENDBRANCH  21  22
ENDBRANCH  20  21
ENDBRANCH   5  20
TORSDOF 8
ENDMDL
