MODEL 1
REMARK VINA RESULT:    -8.547      0.000      0.000
REMARK INTER + INTRA:         -12.162
REMARK INTER:                 -11.046
REMARK INTRA:                  -1.116
REMARK UNBOUND:                -1.116
REMARK  Name = 
REMARK  5 active torsions:
REMARK  status: ('A' for Active; 'I' for Inactive)
REMARK    1  A    between atoms: C_2  and  C_4
REMARK    2  A    between atoms: C_7  and  O_8
REMARK    3  A    between atoms: O_8  and  C_9
REMARK    4  A    between atoms: C_9  and  C_10
REMARK    5  A    between atoms: C_14  and  C_15
REMARK                            x       y       z     vdW  Elec       q    Type
REMARK                         _______ _______ _______ _____ _____    ______ ____
ROOT
ATOM      1  C   UNL     1      43.794   4.955  11.166  0.00  0.00    +0.000 C 
ATOM      2  C   UNL     1      42.482   5.396  11.805  0.00  0.00    +0.000 C 
ATOM      3  C   UNL     1      43.212   6.329  10.897  0.00  0.00    +0.000 C 
ENDROOT
BRANCH   1   4
ATOM      4  C   UNL     1      45.035   4.824  12.035  0.00  0.00    +0.000 A 
ATOM      5  C   UNL     1      45.298   3.658  12.766  0.00  0.00    +0.000 A 
ATOM      6  C   UNL     1      46.468   3.524  13.516  0.00  0.00    +0.000 A 
ATOM      7  C   UNL     1      47.405   4.559  13.546  0.00  0.00    +0.000 A 
ATOM      8  C   UNL     1      47.201   5.744  12.823  0.00  0.00    +0.000 A 
ATOM      9  C   UNL     1      46.003   5.850  12.089  0.00  0.00    +0.000 A 
BRANCH   8  10
ATOM     10  C   UNL     1      48.220   6.814  12.776  0.00  0.00    +0.000 A 
ATOM     11  C   UNL     1      48.433   7.609  11.639  0.00  0.00    +0.000 A 
ATOM     12  C   UNL     1      49.446   8.569  11.617  0.00  0.00    +0.000 A 
ATOM     13  C   UNL     1      50.225   8.727  12.750  0.00  0.00    +0.000 A 
ATOM     14  N   UNL     1      50.057   8.007  13.875  0.00  0.00    +0.000 NA
ATOM     15  C   UNL     1      49.073   7.072  13.854  0.00  0.00    +0.000 A 
ENDBRANCH   8  10
ENDBRANCH   1   4
BRANCH   1  16
ATOM     16  O   UNL     1      43.536   3.890  10.221  0.00  0.00    +0.000 OA
BRANCH  16  20
ATOM     17  C   UNL     1      46.467   2.701   7.590  0.00  0.00    +0.000 A 
ATOM     18  C   UNL     1      45.865   1.771   8.437  0.00  0.00    +0.000 A 
ATOM     19  C   UNL     1      44.886   2.207   9.324  0.00  0.00    +0.000 A 
ATOM     20  C   UNL     1      44.536   3.551   9.329  0.00  0.00    +0.000 A 
ATOM     21  N   UNL     1      45.092   4.477   8.522  0.00  0.00    +0.000 NA
ATOM     22  C   UNL     1      46.066   4.030   7.682  0.00  0.00    +0.000 A 
BRANCH  17  24
ATOM     23  N   UNL     1      47.580   3.043   5.453  0.00  0.00    +0.000 N 
ATOM     24  C   UNL     1      47.526   2.334   6.622  0.00  0.00    +0.000 C 
ATOM     25  O   UNL     1      48.336   1.454   6.867  0.00  0.00    +0.000 OA
ATOM     26  H   UNL     1      48.358   2.835   4.839  0.00  0.00    +0.000 HD
ATOM     27  H   UNL     1      47.104   3.921   5.318  0.00  0.00    +0.000 HD
ENDBRANCH  17  24
ENDBRANCH  16  20
ENDBRANCH   1  16
TORSDOF 5
ENDMDL
MODEL 2
REMARK VINA RESULT:    -8.194      1.968      2.974
REMARK INTER + INTRA:         -11.705
REMARK INTER:                 -11.964
REMARK INTRA:                   0.259
REMARK UNBOUND:                -1.116
REMARK  Name = 
REMARK  5 active torsions:
REMARK  status: ('A' for Active; 'I' for Inactive)
REMARK    1  A    between atoms: C_2  and  C_4
REMARK    2  A    between atoms: C_7  and  O_8
REMARK    3  A    between atoms: O_8  and  C_9
REMARK    4  A    between atoms: C_9  and  C_10
REMARK    5  A    between atoms: C_14  and  C_15
REMARK                            x       y       z     vdW  Elec       q    Type
REMARK                         _______ _______ _______ _____ _____    ______ ____
ROOT
ATOM      1  C   UNL     1      43.899   4.901  11.304  0.00  0.00    +0.000 C 
ATOM      2  C   UNL     1      43.227   3.710  11.977  0.00  0.00    +0.000 C 
ATOM      3  C   UNL     1      42.661   5.079  12.159  0.00  0.00    +0.000 C 
ENDROOT
BRANCH   1   4
ATOM      4  C   UNL     1      45.245   5.383  11.823  0.00  0.00    +0.000 A 
ATOM      5  C   UNL     1      45.987   6.357  11.143  0.00  0.00    +0.000 A 
ATOM      6  C   UNL     1      47.193   6.835  11.657  0.00  0.00    +0.000 A 
ATOM      7  C   UNL     1      47.682   6.349  12.872  0.00  0.00    +0.000 A 
ATOM      8  C   UNL     1      46.975   5.382  13.603  0.00  0.00    +0.000 A 
ATOM      9  C   UNL     1      45.769   4.913  13.047  0.00  0.00    +0.000 A 
BRANCH   8  10
ATOM     10  C   UNL     1      47.434   4.918  14.929  0.00  0.00    +0.000 A 
ATOM     11  C   UNL     1      48.224   5.709  15.777  0.00  0.00    +0.000 A 
ATOM     12  C   UNL     1      48.685   5.209  16.996  0.00  0.00    +0.000 A 
ATOM     13  C   UNL     1      48.331   3.920  17.354  0.00  0.00    +0.000 A 
ATOM     14  N   UNL     1      47.563   3.122  16.590  0.00  0.00    +0.000 NA
ATOM     15  C   UNL     1      47.145   3.635  15.405  0.00  0.00    +0.000 A 
ENDBRANCH   8  10
ENDBRANCH   1   4
BRANCH   1  16
ATOM     16  O   UNL     1      43.747   4.791   9.869  0.00  0.00    +0.000 OA
BRANCH  16  20
ATOM     17  C   UNL     1      46.386   2.373   7.839  0.00  0.00    +0.000 A 
ATOM     18  C   UNL     1      45.491   1.821   8.756  0.00  0.00    +0.000 A 
ATOM     19  C   UNL     1      44.620   2.667   9.435  0.00  0.00    +0.000 A 
ATOM     20  C   UNL     1      44.666   4.030   9.171  0.00  0.00    +0.000 A 
ATOM     21  N   UNL     1      45.512   4.597   8.288  0.00  0.00    +0.000 NA
ATOM     22  C   UNL     1      46.373   3.752   7.656  0.00  0.00    +0.000 A 
BRANCH  17  24
ATOM     23  N   UNL     1      48.435   2.203   6.538  0.00  0.00    +0.000 N 
ATOM     24  C   UNL     1      47.358   1.555   7.078  0.00  0.00    +0.000 C 
ATOM     25  O   UNL     1      47.219   0.348   6.959  0.00  0.00    +0.000 OA
ATOM     26  H   UNL     1      49.130   1.618   6.091  0.00  0.00    +0.000 HD
ATOM     27  H   UNL     1      48.716   3.129   6.815  0.00  0.00    +0.000 HD
ENDBRANCH  17  24
ENDBRANCH  16  20
ENDBRANCH   1  16
TORSDOF 5
ENDMDL
MODEL 3
REMARK VINA RESULT:    -7.329      1.155      2.200
REMARK INTER + INTRA:         -10.588
REMARK INTER:                 -10.704
REMARK INTRA:                   0.117
REMARK UNBOUND:                -1.116
REMARK  Name = 
REMARK  5 active torsions:
REMARK  status: ('A' for Active; 'I' for Inactive)
REMARK    1  A    between atoms: C_2  and  C_4
REMARK    2  A    between atoms: C_7  and  O_8
REMARK    3  A    between atoms: O_8  and  C_9
REMARK    4  A    between atoms: C_9  and  C_10
REMARK    5  A    between atoms: C_14  and  C_15
REMARK                            x       y       z     vdW  Elec       q    Type
REMARK                         _______ _______ _______ _____ _____    ______ ____
ROOT
ATOM      1  C   UNL     1      44.157   4.263  11.648  0.00  0.00    +0.000 C 
ATOM      2  C   UNL     1      44.906   3.153  12.375  0.00  0.00    +0.000 C 
ATOM      3  C   UNL     1      43.611   3.653  12.923  0.00  0.00    +0.000 C 
ENDROOT
BRANCH   1   4
ATOM      4  C   UNL     1      44.719   5.676  11.674  0.00  0.00    +0.000 A 
ATOM      5  C   UNL     1      43.935   6.783  11.322  0.00  0.00    +0.000 A 
ATOM      6  C   UNL     1      44.441   8.081  11.405  0.00  0.00    +0.000 A 
ATOM      7  C   UNL     1      45.748   8.299  11.848  0.00  0.00    +0.000 A 
ATOM      8  C   UNL     1      46.574   7.230  12.226  0.00  0.00    +0.000 A 
ATOM      9  C   UNL     1      46.034   5.933  12.116  0.00  0.00    +0.000 A 
BRANCH   8  10
ATOM     10  C   UNL     1      47.928   7.448  12.777  0.00  0.00    +0.000 A 
ATOM     11  C   UNL     1      48.867   8.293  12.166  0.00  0.00    +0.000 A 
ATOM     12  C   UNL     1      50.155   8.424  12.687  0.00  0.00    +0.000 A 
ATOM     13  C   UNL     1      50.478   7.713  13.829  0.00  0.00    +0.000 A 
ATOM     14  N   UNL     1      49.614   6.901  14.467  0.00  0.00    +0.000 NA
ATOM     15  C   UNL     1      48.376   6.785  13.924  0.00  0.00    +0.000 A 
ENDBRANCH   8  10
ENDBRANCH   1   4
BRANCH   1  16
ATOM     16  O   UNL     1      43.679   3.767  10.375  0.00  0.00    +0.000 OA
BRANCH  16  20
ATOM     17  C   UNL     1      46.516   2.771   7.568  0.00  0.00    +0.000 A 
ATOM     18  C   UNL     1      46.168   4.106   7.770  0.00  0.00    +0.000 A 
ATOM     19  C   UNL     1      45.196   4.409   8.718  0.00  0.00    +0.000 A 
ATOM     20  C   UNL     1      44.612   3.373   9.435  0.00  0.00    +0.000 A 
ATOM     21  N   UNL     1      44.928   2.072   9.271  0.00  0.00    +0.000 NA
ATOM     22  C   UNL     1      45.862   1.800   8.319  0.00  0.00    +0.000 A 
BRANCH  17  24
ATOM     23  N   UNL     1      47.528   2.991   5.365  0.00  0.00    +0.000 N 
ATOM     24  C   UNL     1      47.531   2.350   6.574  0.00  0.00    +0.000 C 
ATOM     25  O   UNL     1      48.353   1.486   6.830  0.00  0.00    +0.000 OA
ATOM     26  H   UNL     1      48.277   2.748   4.728  0.00  0.00    +0.000 HD
ATOM     27  H   UNL     1      47.043   3.859   5.203  0.00  0.00    +0.000 HD
ENDBRANCH  17  24
ENDBRANCH  16  20
ENDBRANCH   1  16
TORSDOF 5
ENDMDL
MODEL 4
REMARK VINA RESULT:    -7.283      2.907      7.048
REMARK INTER + INTRA:         -10.528
REMARK INTER:                  -9.914
REMARK INTRA:                  -0.614
REMARK UNBOUND:                -1.116
REMARK  Name = 
REMARK  5 active torsions:
REMARK  status: ('A' for Active; 'I' for Inactive)
REMARK    1  A    between atoms: C_2  and  C_4
REMARK    2  A    between atoms: C_7  and  O_8
REMARK    3  A    between atoms: O_8  and  C_9
REMARK    4  A    between atoms: C_9  and  C_10
REMARK    5  A    between atoms: C_14  and  C_15
REMARK                            x       y       z     vdW  Elec       q    Type
REMARK                         _______ _______ _______ _____ _____    ______ ____
ROOT
ATOM      1  C   UNL     1      46.212   7.274  12.251  0.00  0.00    +0.000 C 
ATOM      2  C   UNL     1      46.356   8.692  11.710  0.00  0.00    +0.000 C 
ATOM      3  C   UNL     1      45.586   8.455  12.965  0.00  0.00    +0.000 C 
ENDROOT
BRANCH   1   4
ATOM      4  C   UNL     1      45.322   6.287  11.513  0.00  0.00    +0.000 A 
ATOM      5  C   UNL     1      43.931   6.279  11.689  0.00  0.00    +0.000 A 
ATOM      6  C   UNL     1      43.117   5.408  10.964  0.00  0.00    +0.000 A 
ATOM      7  C   UNL     1      43.680   4.525  10.040  0.00  0.00    +0.000 A 
ATOM      8  C   UNL     1      45.064   4.497   9.812  0.00  0.00    +0.000 A 
ATOM      9  C   UNL     1      45.856   5.381  10.572  0.00  0.00    +0.000 A 
BRANCH   8  10
ATOM     10  C   UNL     1      45.667   3.630   8.779  0.00  0.00    +0.000 A 
ATOM     11  C   UNL     1      46.229   4.136   7.597  0.00  0.00    +0.000 A 
ATOM     12  C   UNL     1      46.735   3.277   6.620  0.00  0.00    +0.000 A 
ATOM     13  C   UNL     1      46.683   1.914   6.854  0.00  0.00    +0.000 A 
ATOM     14  N   UNL     1      46.172   1.371   7.975  0.00  0.00    +0.000 NA
ATOM     15  C   UNL     1      45.675   2.236   8.895  0.00  0.00    +0.000 A 
ENDBRANCH   8  10
ENDBRANCH   1   4
BRANCH   1  16
ATOM     16  O   UNL     1      47.503   6.795  12.694  0.00  0.00    +0.000 OA
BRANCH  16  20
ATOM     17  C   UNL     1      47.574   4.334  15.991  0.00  0.00    +0.000 A 
ATOM     18  C   UNL     1      46.782   4.010  14.891  0.00  0.00    +0.000 A 
ATOM     19  C   UNL     1      46.770   4.869  13.797  0.00  0.00    +0.000 A 
ATOM     20  C   UNL     1      47.554   6.015  13.834  0.00  0.00    +0.000 A 
ATOM     21  N   UNL     1      48.337   6.357  14.877  0.00  0.00    +0.000 NA
ATOM     22  C   UNL     1      48.310   5.514  15.947  0.00  0.00    +0.000 A 
BRANCH  17  24
ATOM     23  N   UNL     1      48.805   3.522  17.928  0.00  0.00    +0.000 N 
ATOM     24  C   UNL     1      47.643   3.489  17.205  0.00  0.00    +0.000 C 
ATOM     25  O   UNL     1      46.693   2.811  17.564  0.00  0.00    +0.000 OA
ATOM     26  H   UNL     1      48.806   3.002  18.797  0.00  0.00    +0.000 HD
ATOM     27  H   UNL     1      49.504   4.238  17.814  0.00  0.00    +0.000 HD
ENDBRANCH  17  24
ENDBRANCH  16  20
ENDBRANCH   1  16
TORSDOF 5
ENDMDL
MODEL 5
REMARK VINA RESULT:    -6.620      3.454      7.782
REMARK INTER + INTRA:          -9.671
REMARK INTER:                  -8.787
REMARK INTRA:                  -0.884
REMARK UNBOUND:                -1.116
REMARK  Name = 
REMARK  5 active torsions:
REMARK  status: ('A' for Active; 'I' for Inactive)
REMARK    1  A    between atoms: C_2  and  C_4
REMARK    2  A    between atoms: C_7  and  O_8
REMARK    3  A    between atoms: O_8  and  C_9
REMARK    4  A    between atoms: C_9  and  C_10
REMARK    5  A    between atoms: C_14  and  C_15
REMARK                            x       y       z     vdW  Elec       q    Type
REMARK                         _______ _______ _______ _____ _____    ______ ____
ROOT
ATOM      1  C   UNL     1      48.346   7.809  12.665  0.00  0.00    +0.000 C 
ATOM      2  C   UNL     1      49.227   8.637  11.737  0.00  0.00    +0.000 C 
ATOM      3  C   UNL     1      48.707   9.242  12.998  0.00  0.00    +0.000 C 
ENDROOT
BRANCH   1   4
ATOM      4  C   UNL     1      46.926   7.475  12.236  0.00  0.00    +0.000 A 
ATOM      5  C   UNL     1      45.859   8.348  12.489  0.00  0.00    +0.000 A 
ATOM      6  C   UNL     1      44.569   8.059  12.040  0.00  0.00    +0.000 A 
ATOM      7  C   UNL     1      44.320   6.888  11.322  0.00  0.00    +0.000 A 
ATOM      8  C   UNL     1      45.352   5.984  11.027  0.00  0.00    +0.000 A 
ATOM      9  C   UNL     1      46.638   6.300  11.508  0.00  0.00    +0.000 A 
BRANCH   8  10
ATOM     10  C   UNL     1      45.123   4.783  10.197  0.00  0.00    +0.000 A 
ATOM     11  C   UNL     1      45.574   4.680   8.872  0.00  0.00    +0.000 A 
ATOM     12  C   UNL     1      45.284   3.551   8.104  0.00  0.00    +0.000 A 
ATOM     13  C   UNL     1      44.556   2.529   8.687  0.00  0.00    +0.000 A 
ATOM     14  N   UNL     1      44.111   2.564   9.957  0.00  0.00    +0.000 NA
ATOM     15  C   UNL     1      44.397   3.684  10.669  0.00  0.00    +0.000 A 
ENDBRANCH   8  10
ENDBRANCH   1   4
BRANCH   1  16
ATOM     16  O   UNL     1      49.129   6.738  13.244  0.00  0.00    +0.000 OA
BRANCH  16  20
ATOM     17  C   UNL     1      48.109   5.482  17.026  0.00  0.00    +0.000 A 
ATOM     18  C   UNL     1      48.967   6.567  16.855  0.00  0.00    +0.000 A 
ATOM     19  C   UNL     1      49.303   6.960  15.564  0.00  0.00    +0.000 A 
ATOM     20  C   UNL     1      48.765   6.263  14.490  0.00  0.00    +0.000 A 
ATOM     21  N   UNL     1      47.928   5.214  14.616  0.00  0.00    +0.000 NA
ATOM     22  C   UNL     1      47.636   4.833  15.891  0.00  0.00    +0.000 A 
BRANCH  17  24
ATOM     23  N   UNL     1      46.558   5.501  18.902  0.00  0.00    +0.000 N 
ATOM     24  C   UNL     1      47.704   4.984  18.361  0.00  0.00    +0.000 C 
ATOM     25  O   UNL     1      48.349   4.128  18.945  0.00  0.00    +0.000 OA
ATOM     26  H   UNL     1      46.253   5.092  19.777  0.00  0.00    +0.000 HD
ATOM     27  H   UNL     1      45.875   6.010  18.364  0.00  0.00    +0.000 HD
ENDBRANCH  17  24
ENDBRANCH  16  20
ENDBRANCH   1  16
TORSDOF 5
ENDMDL
MODEL 6
REMARK VINA RESULT:    -6.301      3.077      5.684
REMARK INTER + INTRA:          -9.259
REMARK INTER:                  -8.396
REMARK INTRA:                  -0.863
REMARK UNBOUND:                -1.116
REMARK  Name = 
REMARK  5 active torsions:
REMARK  status: ('A' for Active; 'I' for Inactive)
REMARK    1  A    between atoms: C_2  and  C_4
REMARK    2  A    between atoms: C_7  and  O_8
REMARK    3  A    between atoms: O_8  and  C_9
REMARK    4  A    between atoms: C_9  and  C_10
REMARK    5  A    between atoms: C_14  and  C_15
REMARK                            x       y       z     vdW  Elec       q    Type
REMARK                         _______ _______ _______ _____ _____    ______ ____
ROOT
ATOM      1  C   UNL     1      47.953   8.136  12.527  0.00  0.00    +0.000 C 
ATOM      2  C   UNL     1      48.711   9.153  11.681  0.00  0.00    +0.000 C 
ATOM      3  C   UNL     1      49.007   7.699  11.530  0.00  0.00    +0.000 C 
ENDROOT
BRANCH   1   4
ATOM      4  C   UNL     1      48.247   8.046  14.016  0.00  0.00    +0.000 A 
ATOM      5  C   UNL     1      48.209   9.178  14.841  0.00  0.00    +0.000 A 
ATOM      6  C   UNL     1      48.423   9.076  16.217  0.00  0.00    +0.000 A 
ATOM      7  C   UNL     1      48.676   7.832  16.799  0.00  0.00    +0.000 A 
ATOM      8  C   UNL     1      48.713   6.662  16.024  0.00  0.00    +0.000 A 
ATOM      9  C   UNL     1      48.507   6.805  14.638  0.00  0.00    +0.000 A 
BRANCH   8  10
ATOM     10  C   UNL     1      48.896   5.328  16.634  0.00  0.00    +0.000 A 
ATOM     11  C   UNL     1      50.070   4.957  17.306  0.00  0.00    +0.000 A 
ATOM     12  C   UNL     1      50.224   3.666  17.816  0.00  0.00    +0.000 A 
ATOM     13  C   UNL     1      49.183   2.769  17.656  0.00  0.00    +0.000 A 
ATOM     14  N   UNL     1      48.028   3.073  17.036  0.00  0.00    +0.000 NA
ATOM     15  C   UNL     1      47.919   4.331  16.538  0.00  0.00    +0.000 A 
ENDBRANCH   8  10
ENDBRANCH   1   4
BRANCH   1  16
ATOM     16  O   UNL     1      46.563   8.118  12.127  0.00  0.00    +0.000 OA
BRANCH  16  20
ATOM     17  C   UNL     1      44.679   4.491  11.654  0.00  0.00    +0.000 A 
ATOM     18  C   UNL     1      44.674   5.128  12.894  0.00  0.00    +0.000 A 
ATOM     19  C   UNL     1      45.330   6.347  13.025  0.00  0.00    +0.000 A 
ATOM     20  C   UNL     1      45.961   6.892  11.914  0.00  0.00    +0.000 A 
ATOM     21  N   UNL     1      45.981   6.309  10.698  0.00  0.00    +0.000 NA
ATOM     22  C   UNL     1      45.354   5.103  10.603  0.00  0.00    +0.000 A 
BRANCH  17  24
ATOM     23  N   UNL     1      43.716   2.431  12.521  0.00  0.00    +0.000 N 
ATOM     24  C   UNL     1      44.018   3.186  11.421  0.00  0.00    +0.000 C 
ATOM     25  O   UNL     1      43.729   2.810  10.296  0.00  0.00    +0.000 OA
ATOM     26  H   UNL     1      43.193   1.581  12.350  0.00  0.00    +0.000 HD
ATOM     27  H   UNL     1      43.707   2.801  13.458  0.00  0.00    +0.000 HD
ENDBRANCH  17  24
ENDBRANCH  16  20
ENDBRANCH   1  16
TORSDOF 5
ENDMDL
MODEL 7
REMARK VINA RESULT:    -5.920      5.210      8.478
REMARK INTER + INTRA:          -8.766
REMARK INTER:                  -8.745
REMARK INTRA:                  -0.021
REMARK UNBOUND:                -1.116
REMARK  Name = 
REMARK  5 active torsions:
REMARK  status: ('A' for Active; 'I' for Inactive)
REMARK    1  A    between atoms: C_2  and  C_4
REMARK    2  A    between atoms: C_7  and  O_8
REMARK    3  A    between atoms: O_8  and  C_9
REMARK    4  A    between atoms: C_9  and  C_10
REMARK    5  A    between atoms: C_14  and  C_15
REMARK                            x       y       z     vdW  Elec       q    Type
REMARK                         _______ _______ _______ _____ _____    ______ ____
ROOT
ATOM      1  C   UNL     1      48.187   4.691  16.779  0.00  0.00    +0.000 C 
ATOM      2  C   UNL     1      47.140   4.774  17.884  0.00  0.00    +0.000 C 
ATOM      3  C   UNL     1      47.388   3.473  17.196  0.00  0.00    +0.000 C 
ENDROOT
BRANCH   1   4
ATOM      4  C   UNL     1      47.904   5.351  15.439  0.00  0.00    +0.000 A 
ATOM      5  C   UNL     1      48.672   6.427  14.974  0.00  0.00    +0.000 A 
ATOM      6  C   UNL     1      48.441   6.988  13.717  0.00  0.00    +0.000 A 
ATOM      7  C   UNL     1      47.434   6.480  12.894  0.00  0.00    +0.000 A 
ATOM      8  C   UNL     1      46.642   5.396  13.301  0.00  0.00    +0.000 A 
ATOM      9  C   UNL     1      46.894   4.863  14.581  0.00  0.00    +0.000 A 
BRANCH   8  10
ATOM     10  C   UNL     1      45.630   4.791  12.410  0.00  0.00    +0.000 A 
ATOM     11  C   UNL     1      45.335   3.419  12.419  0.00  0.00    +0.000 A 
ATOM     12  C   UNL     1      44.414   2.881  11.519  0.00  0.00    +0.000 A 
ATOM     13  C   UNL     1      43.787   3.736  10.630  0.00  0.00    +0.000 A 
ATOM     14  N   UNL     1      44.017   5.062  10.586  0.00  0.00    +0.000 NA
ATOM     15  C   UNL     1      44.930   5.548  11.465  0.00  0.00    +0.000 A 
ENDBRANCH   8  10
ENDBRANCH   1   4
BRANCH   1  16
ATOM     16  O   UNL     1      49.503   4.890  17.347  0.00  0.00    +0.000 OA
BRANCH  16  20
ATOM     17  C   UNL     1      52.163   1.763  17.626  0.00  0.00    +0.000 A 
ATOM     18  C   UNL     1      52.498   3.017  18.136  0.00  0.00    +0.000 A 
ATOM     19  C   UNL     1      51.583   4.057  18.015  0.00  0.00    +0.000 A 
ATOM     20  C   UNL     1      50.363   3.809  17.398  0.00  0.00    +0.000 A 
ATOM     21  N   UNL     1      50.002   2.609  16.899  0.00  0.00    +0.000 NA
ATOM     22  C   UNL     1      50.927   1.615  17.006  0.00  0.00    +0.000 A 
BRANCH  17  24
ATOM     23  N   UNL     1      52.674  -0.469  18.452  0.00  0.00    +0.000 N 
ATOM     24  C   UNL     1      53.077   0.600  17.697  0.00  0.00    +0.000 C 
ATOM     25  O   UNL     1      54.133   0.581  17.087  0.00  0.00    +0.000 OA
ATOM     26  H   UNL     1      53.271  -1.286  18.424  0.00  0.00    +0.000 HD
ATOM     27  H   UNL     1      51.724  -0.598  18.761  0.00  0.00    +0.000 HD
ENDBRANCH  17  24
ENDBRANCH  16  20
ENDBRANCH   1  16
TORSDOF 5
ENDMDL
MODEL 8
REMARK VINA RESULT:    -5.892      5.457      7.730
REMARK INTER + INTRA:          -8.731
REMARK INTER:                  -7.986
REMARK INTRA:                  -0.745
REMARK UNBOUND:                -1.116
REMARK  Name = 
REMARK  5 active torsions:
REMARK  status: ('A' for Active; 'I' for Inactive)
REMARK    1  A    between atoms: C_2  and  C_4
REMARK    2  A    between atoms: C_7  and  O_8
REMARK    3  A    between atoms: O_8  and  C_9
REMARK    4  A    between atoms: C_9  and  C_10
REMARK    5  A    between atoms: C_14  and  C_15
REMARK                            x       y       z     vdW  Elec       q    Type
REMARK                         _______ _______ _______ _____ _____    ______ ____
ROOT
ATOM      1  C   UNL     1      48.003   3.830  16.626  0.00  0.00    +0.000 C 
ATOM      2  C   UNL     1      47.184   2.881  17.494  0.00  0.00    +0.000 C 
ATOM      3  C   UNL     1      46.826   4.329  17.440  0.00  0.00    +0.000 C 
ENDROOT
BRANCH   1   4
ATOM      4  C   UNL     1      49.417   4.191  17.053  0.00  0.00    +0.000 A 
ATOM      5  C   UNL     1      49.797   5.520  17.283  0.00  0.00    +0.000 A 
ATOM      6  C   UNL     1      51.080   5.837  17.731  0.00  0.00    +0.000 A 
ATOM      7  C   UNL     1      52.013   4.824  17.964  0.00  0.00    +0.000 A 
ATOM      8  C   UNL     1      51.685   3.474  17.764  0.00  0.00    +0.000 A 
ATOM      9  C   UNL     1      50.385   3.193  17.298  0.00  0.00    +0.000 A 
BRANCH   8  10
ATOM     10  C   UNL     1      52.631   2.386  18.086  0.00  0.00    +0.000 A 
ATOM     11  C   UNL     1      52.542   1.109  17.511  0.00  0.00    +0.000 A 
ATOM     12  C   UNL     1      53.421   0.092  17.887  0.00  0.00    +0.000 A 
ATOM     13  C   UNL     1      54.392   0.379  18.830  0.00  0.00    +0.000 A 
ATOM     14  N   UNL     1      54.537   1.588  19.403  0.00  0.00    +0.000 NA
ATOM     15  C   UNL     1      53.655   2.548  19.025  0.00  0.00    +0.000 A 
ENDBRANCH   8  10
ENDBRANCH   1   4
BRANCH   1  16
ATOM     16  O   UNL     1      47.799   3.502  15.231  0.00  0.00    +0.000 OA
BRANCH  16  20
ATOM     17  C   UNL     1      45.817   6.236  12.880  0.00  0.00    +0.000 A 
ATOM     18  C   UNL     1      47.088   6.527  13.375  0.00  0.00    +0.000 A 
ATOM     19  C   UNL     1      47.726   5.587  14.177  0.00  0.00    +0.000 A 
ATOM     20  C   UNL     1      47.080   4.389  14.451  0.00  0.00    +0.000 A 
ATOM     21  N   UNL     1      45.855   4.071  13.986  0.00  0.00    +0.000 NA
ATOM     22  C   UNL     1      45.240   5.018  13.225  0.00  0.00    +0.000 A 
BRANCH  17  24
ATOM     23  N   UNL     1      43.857   6.743  11.528  0.00  0.00    +0.000 N 
ATOM     24  C   UNL     1      45.054   7.178  12.029  0.00  0.00    +0.000 C 
ATOM     25  O   UNL     1      45.462   8.307  11.805  0.00  0.00    +0.000 OA
ATOM     26  H   UNL     1      43.312   7.426  11.016  0.00  0.00    +0.000 HD
ATOM     27  H   UNL     1      43.374   5.933  11.882  0.00  0.00    +0.000 HD
ENDBRANCH  17  24
ENDBRANCH  16  20
ENDBRANCH   1  16
TORSDOF 5
ENDMDL
MODEL 9
REMARK VINA RESULT:    -5.607      3.672      6.335
REMARK INTER + INTRA:          -8.362
REMARK INTER:                  -7.460
REMARK INTRA:                  -0.902
REMARK UNBOUND:                -1.116
REMARK  Name = 
REMARK  5 active torsions:
REMARK  status: ('A' for Active; 'I' for Inactive)
REMARK    1  A    between atoms: C_2  and  C_4
REMARK    2  A    between atoms: C_7  and  O_8
REMARK    3  A    between atoms: O_8  and  C_9
REMARK    4  A    between atoms: C_9  and  C_10
REMARK    5  A    between atoms: C_14  and  C_15
REMARK                            x       y       z     vdW  Elec       q    Type
REMARK                         _______ _______ _______ _____ _____    ______ ____
ROOT
ATOM      1  C   UNL     1      49.043   7.236  13.805  0.00  0.00    +0.000 C 
ATOM      2  C   UNL     1      49.797   6.993  15.107  0.00  0.00    +0.000 C 
ATOM      3  C   UNL     1      48.505   7.739  15.129  0.00  0.00    +0.000 C 
ENDROOT
BRANCH   1   4
ATOM      4  C   UNL     1      49.603   8.228  12.798  0.00  0.00    +0.000 A 
ATOM      5  C   UNL     1      49.200   9.570  12.789  0.00  0.00    +0.000 A 
ATOM      6  C   UNL     1      49.763  10.486  11.899  0.00  0.00    +0.000 A 
ATOM      7  C   UNL     1      50.749  10.077  10.998  0.00  0.00    +0.000 A 
ATOM      8  C   UNL     1      51.201   8.749  10.971  0.00  0.00    +0.000 A 
ATOM      9  C   UNL     1      50.600   7.849  11.874  0.00  0.00    +0.000 A 
BRANCH   8  10
ATOM     10  C   UNL     1      52.301   8.318  10.083  0.00  0.00    +0.000 A 
ATOM     11  C   UNL     1      53.343   9.175   9.697  0.00  0.00    +0.000 A 
ATOM     12  C   UNL     1      54.330   8.744   8.809  0.00  0.00    +0.000 A 
ATOM     13  C   UNL     1      54.265   7.447   8.333  0.00  0.00    +0.000 A 
ATOM     14  N   UNL     1      53.300   6.575   8.682  0.00  0.00    +0.000 NA
ATOM     15  C   UNL     1      52.348   7.033   9.533  0.00  0.00    +0.000 A 
ENDBRANCH   8  10
ENDBRANCH   1   4
BRANCH   1  16
ATOM     16  O   UNL     1      48.557   5.974  13.287  0.00  0.00    +0.000 OA
BRANCH  16  20
ATOM     17  C   UNL     1      44.659   5.804  11.983  0.00  0.00    +0.000 A 
ATOM     18  C   UNL     1      45.594   6.579  11.299  0.00  0.00    +0.000 A 
ATOM     19  C   UNL     1      46.901   6.626  11.772  0.00  0.00    +0.000 A 
ATOM     20  C   UNL     1      47.232   5.893  12.905  0.00  0.00    +0.000 A 
ATOM     21  N   UNL     1      46.356   5.128  13.588  0.00  0.00    +0.000 NA
ATOM     22  C   UNL     1      45.077   5.120  13.120  0.00  0.00    +0.000 A 
BRANCH  17  24
ATOM     23  N   UNL     1      42.620   6.855  11.171  0.00  0.00    +0.000 N 
ATOM     24  C   UNL     1      43.242   5.701  11.562  0.00  0.00    +0.000 C 
ATOM     25  O   UNL     1      42.661   4.628  11.539  0.00  0.00    +0.000 OA
ATOM     26  H   UNL     1      41.679   6.755  10.810  0.00  0.00    +0.000 HD
ATOM     27  H   UNL     1      43.118   7.699  10.940  0.00  0.00    +0.000 HD
ENDBRANCH  17  24
ENDBRANCH  16  20
ENDBRANCH   1  16
TORSDOF 5
ENDMDL
