MODEL 1
REMARK VINA RESULT:    -8.475      0.000      0.000
REMARK INTER + INTRA:         -11.832
REMARK INTER:                 -11.448
REMARK INTRA:                  -0.384
REMARK UNBOUND:                -0.384
REMARK  Name = 
REMARK  6 active torsions:
REMARK  status: ('A' for Active; 'I' for Inactive)
REMARK    1  A    between atoms: C_2  and  C_25
REMARK    2  A    between atoms: N_3  and  C_4
REMARK    3  A    between atoms: C_4  and  C_5
REMARK    4  A    between atoms: C_8  and  C_9
REMARK    5  A    between atoms: C_9  and  N_10
REMARK    6  A    between atoms: C_11  and  C_13
REMARK                            x       y       z     vdW  Elec       q    Type
REMARK                         _______ _______ _______ _____ _____    ______ ____
ROOT
ATOM      1  C   UNL     1      43.573   4.450  11.761  0.00  0.00    +0.000 C 
ATOM      2  C   UNL     1      44.390   3.265  12.302  0.00  0.00    +0.000 C 
ATOM      3  C   UNL     1      45.886   3.567  12.331  0.00  0.00    +0.000 C 
ATOM      4  C   UNL     1      46.217   4.823  13.154  0.00  0.00    +0.000 C 
ATOM      5  C   UNL     1      45.407   6.018  12.626  0.00  0.00    +0.000 C 
ATOM      6  C   UNL     1      43.905   5.732  12.547  0.00  0.00    +0.000 C 
ENDROOT
BRANCH   1   7
ATOM      7  C   UNL     1      43.789   4.662  10.249  0.00  0.00    +0.000 C 
BRANCH   7  10
ATOM      8  O   UNL     1      45.683   4.933   8.203  0.00  0.00    +0.000 OA
ATOM      9  C   UNL     1      45.450   3.801   8.624  0.00  0.00    +0.000 C 
ATOM     10  N   UNL     1      44.546   3.584   9.643  0.00  0.00    +0.000 N 
ATOM     11  H   UNL     1      44.361   2.632   9.929  0.00  0.00    +0.000 HD
BRANCH   9  12
ATOM     12  C   UNL     1      46.106   2.625   8.091  0.00  0.00    +0.000 A 
ATOM     13  C   UNL     1      45.864   1.311   8.447  0.00  0.00    +0.000 A 
ATOM     14  N   UNL     1      46.627   0.358   7.799  0.00  0.00    +0.000 NA
ATOM     15  C   UNL     1      47.442   0.959   6.962  0.00  0.00    +0.000 A 
ATOM     16  S   UNL     1      47.337   2.670   6.898  0.00  0.00    +0.000 S 
ENDBRANCH   9  12
ENDBRANCH   7  10
ENDBRANCH   1   7
BRANCH   4  17
ATOM     17  C   UNL     1      45.982   4.622  14.664  0.00  0.00    +0.000 C 
BRANCH  17  18
ATOM     18  N   UNL     1      47.204   4.748  15.429  0.00  0.00    +0.000 N 
ATOM     19  C   UNL     1      47.403   4.073  16.607  0.00  0.00    +0.000 C 
ATOM     20  O   UNL     1      46.565   3.303  17.069  0.00  0.00    +0.000 OA
ATOM     21  H   UNL     1      47.857   5.477  15.157  0.00  0.00    +0.000 HD
BRANCH  19  22
ATOM     22  C   UNL     1      48.698   4.272  17.266  0.00  0.00    +0.000 A 
ATOM     23  C   UNL     1      48.956   5.480  17.900  0.00  0.00    +0.000 A 
ATOM     24  S   UNL     1      50.502   5.565  18.608  0.00  0.00    +0.000 S 
ATOM     25  C   UNL     1      50.901   4.007  18.054  0.00  0.00    +0.000 A 
ATOM     26  N   UNL     1      52.133   3.478  18.286  0.00  0.00    +0.000 NA
ATOM     27  C   UNL     1      52.317   2.309  17.771  0.00  0.00    +0.000 A 
ATOM     28  N   UNL     1      51.376   1.613  17.058  0.00  0.00    +0.000 N 
ATOM     29  C   UNL     1      50.090   2.068  16.886  0.00  0.00    +0.000 A 
ATOM     30  O   UNL     1      49.225   1.351  16.393  0.00  0.00    +0.000 OA
ATOM     31  C   UNL     1      49.851   3.410  17.378  0.00  0.00    +0.000 A 
ATOM     32  H   UNL     1      51.571   0.683  16.719  0.00  0.00    +0.000 HD
ENDBRANCH  19  22
ENDBRANCH  17  18
ENDBRANCH   4  17
TORSDOF 6
ENDMDL
MODEL 2
REMARK VINA RESULT:    -8.021      2.163      2.660
REMARK INTER + INTRA:         -11.218
REMARK INTER:                 -11.037
REMARK INTRA:                  -0.182
REMARK UNBOUND:                -0.384
REMARK  Name = 
REMARK  6 active torsions:
REMARK  status: ('A' for Active; 'I' for Inactive)
REMARK    1  A    between atoms: C_2  and  C_25
REMARK    2  A    between atoms: N_3  and  C_4
REMARK    3  A    between atoms: C_4  and  C_5
REMARK    4  A    between atoms: C_8  and  C_9
REMARK    5  A    between atoms: C_9  and  N_10
REMARK    6  A    between atoms: C_11  and  C_13
REMARK                            x       y       z     vdW  Elec       q    Type
REMARK                         _______ _______ _______ _____ _____    ______ ____
ROOT
ATOM      1  C   UNL     1      43.592   4.468  11.540  0.00  0.00    +0.000 C 
ATOM      2  C   UNL     1      44.276   4.352  12.912  0.00  0.00    +0.000 C 
ATOM      3  C   UNL     1      45.793   4.227  12.785  0.00  0.00    +0.000 C 
ATOM      4  C   UNL     1      46.417   5.399  12.011  0.00  0.00    +0.000 C 
ATOM      5  C   UNL     1      45.742   5.530  10.635  0.00  0.00    +0.000 C 
ATOM      6  C   UNL     1      44.216   5.616  10.727  0.00  0.00    +0.000 C 
ENDROOT
BRANCH   1   7
ATOM      7  C   UNL     1      43.644   3.145  10.751  0.00  0.00    +0.000 C 
BRANCH   7  10
ATOM      8  O   UNL     1      44.213   1.053   8.978  0.00  0.00    +0.000 OA
ATOM      9  C   UNL     1      44.948   2.039   8.957  0.00  0.00    +0.000 C 
ATOM     10  N   UNL     1      44.725   3.120   9.785  0.00  0.00    +0.000 N 
ATOM     11  H   UNL     1      45.378   3.891   9.758  0.00  0.00    +0.000 HD
BRANCH   9  12
ATOM     12  C   UNL     1      46.086   2.141   8.068  0.00  0.00    +0.000 A 
ATOM     13  C   UNL     1      46.919   1.113   7.670  0.00  0.00    +0.000 A 
ATOM     14  N   UNL     1      47.948   1.462   6.816  0.00  0.00    +0.000 NA
ATOM     15  C   UNL     1      47.887   2.753   6.578  0.00  0.00    +0.000 A 
ATOM     16  S   UNL     1      46.611   3.605   7.344  0.00  0.00    +0.000 S 
ENDBRANCH   9  12
ENDBRANCH   7  10
ENDBRANCH   1   7
BRANCH   4  17
ATOM     17  C   UNL     1      46.347   6.729  12.787  0.00  0.00    +0.000 C 
BRANCH  17  18
ATOM     18  N   UNL     1      46.934   6.623  14.107  0.00  0.00    +0.000 N 
ATOM     19  C   UNL     1      48.287   6.506  14.298  0.00  0.00    +0.000 C 
ATOM     20  O   UNL     1      49.083   6.510  13.362  0.00  0.00    +0.000 OA
ATOM     21  H   UNL     1      46.306   6.474  14.890  0.00  0.00    +0.000 HD
BRANCH  19  22
ATOM     22  C   UNL     1      48.749   6.434  15.688  0.00  0.00    +0.000 A 
ATOM     23  C   UNL     1      49.622   7.405  16.162  0.00  0.00    +0.000 A 
ATOM     24  S   UNL     1      50.078   7.180  17.788  0.00  0.00    +0.000 S 
ATOM     25  C   UNL     1      49.161   5.752  17.904  0.00  0.00    +0.000 A 
ATOM     26  N   UNL     1      49.154   5.020  19.050  0.00  0.00    +0.000 NA
ATOM     27  C   UNL     1      48.455   3.936  18.987  0.00  0.00    +0.000 A 
ATOM     28  N   UNL     1      47.749   3.527  17.886  0.00  0.00    +0.000 N 
ATOM     29  C   UNL     1      47.650   4.285  16.743  0.00  0.00    +0.000 A 
ATOM     30  O   UNL     1      46.877   3.976  15.843  0.00  0.00    +0.000 OA
ATOM     31  C   UNL     1      48.478   5.475  16.733  0.00  0.00    +0.000 A 
ATOM     32  H   UNL     1      47.186   2.689  17.918  0.00  0.00    +0.000 HD
ENDBRANCH  19  22
ENDBRANCH  17  18
ENDBRANCH   4  17
TORSDOF 6
ENDMDL
MODEL 3
REMARK VINA RESULT:    -7.677      4.767      5.406
REMARK INTER + INTRA:         -10.753
REMARK INTER:                 -10.184
REMARK INTRA:                  -0.570
REMARK UNBOUND:                -0.384
REMARK  Name = 
REMARK  6 active torsions:
REMARK  status: ('A' for Active; 'I' for Inactive)
REMARK    1  A    between atoms: C_2  and  C_25
REMARK    2  A    between atoms: N_3  and  C_4
REMARK    3  A    between atoms: C_4  and  C_5
REMARK    4  A    between atoms: C_8  and  C_9
REMARK    5  A    between atoms: C_9  and  N_10
REMARK    6  A    between atoms: C_11  and  C_13
REMARK                            x       y       z     vdW  Elec       q    Type
REMARK                         _______ _______ _______ _____ _____    ______ ____
ROOT
ATOM      1  C   UNL     1      44.103   3.586  12.275  0.00  0.00    +0.000 C 
ATOM      2  C   UNL     1      45.510   4.177  12.089  0.00  0.00    +0.000 C 
ATOM      3  C   UNL     1      45.501   5.395  11.167  0.00  0.00    +0.000 C 
ATOM      4  C   UNL     1      44.553   6.499  11.661  0.00  0.00    +0.000 C 
ATOM      5  C   UNL     1      43.140   5.924  11.854  0.00  0.00    +0.000 C 
ATOM      6  C   UNL     1      43.122   4.676  12.742  0.00  0.00    +0.000 C 
ENDROOT
BRANCH   1   7
ATOM      7  C   UNL     1      43.589   2.896  10.996  0.00  0.00    +0.000 C 
BRANCH   7  10
ATOM      8  O   UNL     1      44.055   3.881   8.416  0.00  0.00    +0.000 OA
ATOM      9  C   UNL     1      44.816   3.016   8.847  0.00  0.00    +0.000 C 
ATOM     10  N   UNL     1      44.666   2.493  10.114  0.00  0.00    +0.000 N 
ATOM     11  H   UNL     1      45.294   1.757  10.410  0.00  0.00    +0.000 HD
BRANCH   9  12
ATOM     12  C   UNL     1      45.918   2.492   8.066  0.00  0.00    +0.000 A 
ATOM     13  C   UNL     1      46.354   1.182   8.027  0.00  0.00    +0.000 A 
ATOM     14  N   UNL     1      47.436   0.927   7.206  0.00  0.00    +0.000 NA
ATOM     15  C   UNL     1      47.812   2.049   6.634  0.00  0.00    +0.000 A 
ATOM     16  S   UNL     1      46.901   3.446   7.034  0.00  0.00    +0.000 S 
ENDBRANCH   9  12
ENDBRANCH   7  10
ENDBRANCH   1   7
BRANCH   4  17
ATOM     17  C   UNL     1      45.053   7.177  12.952  0.00  0.00    +0.000 C 
BRANCH  17  18
ATOM     18  N   UNL     1      46.325   7.841  12.764  0.00  0.00    +0.000 N 
ATOM     19  C   UNL     1      46.434   9.041  12.108  0.00  0.00    +0.000 C 
ATOM     20  O   UNL     1      45.456   9.635  11.664  0.00  0.00    +0.000 OA
ATOM     21  H   UNL     1      47.166   7.319  12.990  0.00  0.00    +0.000 HD
BRANCH  19  22
ATOM     22  C   UNL     1      47.780   9.616  12.011  0.00  0.00    +0.000 A 
ATOM     23  C   UNL     1      47.926  10.996  11.978  0.00  0.00    +0.000 A 
ATOM     24  S   UNL     1      49.544  11.512  11.853  0.00  0.00    +0.000 S 
ATOM     25  C   UNL     1      50.107   9.908  11.792  0.00  0.00    +0.000 A 
ATOM     26  N   UNL     1      51.431   9.639  11.637  0.00  0.00    +0.000 NA
ATOM     27  C   UNL     1      51.715   8.382  11.559  0.00  0.00    +0.000 A 
ATOM     28  N   UNL     1      50.796   7.368  11.640  0.00  0.00    +0.000 N 
ATOM     29  C   UNL     1      49.464   7.593  11.895  0.00  0.00    +0.000 A 
ATOM     30  O   UNL     1      48.699   6.664  12.130  0.00  0.00    +0.000 OA
ATOM     31  C   UNL     1      49.078   8.990  11.914  0.00  0.00    +0.000 A 
ATOM     32  H   UNL     1      51.091   6.403  11.616  0.00  0.00    +0.000 HD
ENDBRANCH  19  22
ENDBRANCH  17  18
ENDBRANCH   4  17
TORSDOF 6
ENDMDL
MODEL 4
REMARK VINA RESULT:    -7.589      4.032      4.870
REMARK INTER + INTRA:         -10.635
REMARK INTER:                 -10.014
REMARK INTRA:                  -0.622
REMARK UNBOUND:                -0.384
REMARK  Name = 
REMARK  6 active torsions:
REMARK  status: ('A' for Active; 'I' for Inactive)
REMARK    1  A    between atoms: C_2  and  C_25
REMARK    2  A    between atoms: N_3  and  C_4
REMARK    3  A    between atoms: C_4  and  C_5
REMARK    4  A    between atoms: C_8  and  C_9
REMARK    5  A    between atoms: C_9  and  N_10
REMARK    6  A    between atoms: C_11  and  C_13
REMARK                            x       y       z     vdW  Elec       q    Type
REMARK                         _______ _______ _______ _____ _____    ______ ____
ROOT
ATOM      1  C   UNL     1      44.187   3.586  12.233  0.00  0.00    +0.000 C 
ATOM      2  C   UNL     1      45.583   4.189  12.006  0.00  0.00    +0.000 C 
ATOM      3  C   UNL     1      45.539   5.402  11.080  0.00  0.00    +0.000 C 
ATOM      4  C   UNL     1      44.596   6.501  11.594  0.00  0.00    +0.000 C 
ATOM      5  C   UNL     1      43.194   5.914  11.827  0.00  0.00    +0.000 C 
ATOM      6  C   UNL     1      43.209   4.671  12.720  0.00  0.00    +0.000 C 
ENDROOT
BRANCH   1   7
ATOM      7  C   UNL     1      43.645   2.886  10.970  0.00  0.00    +0.000 C 
BRANCH   7  10
ATOM      8  O   UNL     1      44.173   3.890   8.410  0.00  0.00    +0.000 OA
ATOM      9  C   UNL     1      44.887   2.980   8.828  0.00  0.00    +0.000 C 
ATOM     10  N   UNL     1      44.705   2.444  10.086  0.00  0.00    +0.000 N 
ATOM     11  H   UNL     1      45.293   1.672  10.371  0.00  0.00    +0.000 HD
BRANCH   9  12
ATOM     12  C   UNL     1      45.964   2.415   8.043  0.00  0.00    +0.000 A 
ATOM     13  C   UNL     1      46.355   1.089   8.008  0.00  0.00    +0.000 A 
ATOM     14  N   UNL     1      47.421   0.793   7.181  0.00  0.00    +0.000 NA
ATOM     15  C   UNL     1      47.832   1.898   6.600  0.00  0.00    +0.000 A 
ATOM     16  S   UNL     1      46.972   3.328   6.998  0.00  0.00    +0.000 S 
ENDBRANCH   9  12
ENDBRANCH   7  10
ENDBRANCH   1   7
BRANCH   4  17
ATOM     17  C   UNL     1      45.124   7.188  12.868  0.00  0.00    +0.000 C 
BRANCH  17  18
ATOM     18  N   UNL     1      46.498   7.622  12.726  0.00  0.00    +0.000 N 
ATOM     19  C   UNL     1      46.829   8.922  12.443  0.00  0.00    +0.000 C 
ATOM     20  O   UNL     1      45.980   9.801  12.318  0.00  0.00    +0.000 OA
ATOM     21  H   UNL     1      47.215   6.905  12.683  0.00  0.00    +0.000 HD
BRANCH  19  22
ATOM     22  C   UNL     1      48.260   9.230  12.352  0.00  0.00    +0.000 A 
ATOM     23  C   UNL     1      48.705  10.093  11.359  0.00  0.00    +0.000 A 
ATOM     24  S   UNL     1      50.390  10.343  11.374  0.00  0.00    +0.000 S 
ATOM     25  C   UNL     1      50.592   9.272  12.680  0.00  0.00    +0.000 A 
ATOM     26  N   UNL     1      51.831   8.993  13.168  0.00  0.00    +0.000 NA
ATOM     27  C   UNL     1      51.845   8.130  14.127  0.00  0.00    +0.000 A 
ATOM     28  N   UNL     1      50.730   7.531  14.654  0.00  0.00    +0.000 N 
ATOM     29  C   UNL     1      49.454   7.858  14.258  0.00  0.00    +0.000 A 
ATOM     30  O   UNL     1      48.475   7.435  14.862  0.00  0.00    +0.000 OA
ATOM     31  C   UNL     1      49.385   8.766  13.130  0.00  0.00    +0.000 A 
ATOM     32  H   UNL     1      50.807   6.896  15.435  0.00  0.00    +0.000 HD
ENDBRANCH  19  22
ENDBRANCH  17  18
ENDBRANCH   4  17
TORSDOF 6
ENDMDL
MODEL 5
REMARK VINA RESULT:    -7.265      3.696      4.544
REMARK INTER + INTRA:         -10.198
REMARK INTER:                  -9.208
REMARK INTRA:                  -0.989
REMARK UNBOUND:                -0.384
REMARK  Name = 
REMARK  6 active torsions:
REMARK  status: ('A' for Active; 'I' for Inactive)
REMARK    1  A    between atoms: C_2  and  C_25
REMARK    2  A    between atoms: N_3  and  C_4
REMARK    3  A    between atoms: C_4  and  C_5
REMARK    4  A    between atoms: C_8  and  C_9
REMARK    5  A    between atoms: C_9  and  N_10
REMARK    6  A    between atoms: C_11  and  C_13
REMARK                            x       y       z     vdW  Elec       q    Type
REMARK                         _______ _______ _______ _____ _____    ______ ____
ROOT
ATOM      1  C   UNL     1      44.131   4.460  11.330  0.00  0.00    +0.000 C 
ATOM      2  C   UNL     1      45.644   4.667  11.507  0.00  0.00    +0.000 C 
ATOM      3  C   UNL     1      46.084   6.066  11.081  0.00  0.00    +0.000 C 
ATOM      4  C   UNL     1      45.334   7.174  11.836  0.00  0.00    +0.000 C 
ATOM      5  C   UNL     1      43.818   6.982  11.670  0.00  0.00    +0.000 C 
ATOM      6  C   UNL     1      43.351   5.574  12.052  0.00  0.00    +0.000 C 
ENDROOT
BRANCH   1   7
ATOM      7  C   UNL     1      43.725   4.381   9.845  0.00  0.00    +0.000 C 
BRANCH   7  10
ATOM      8  O   UNL     1      44.303   1.727   9.161  0.00  0.00    +0.000 OA
ATOM      9  C   UNL     1      45.042   2.608   8.722  0.00  0.00    +0.000 C 
ATOM     10  N   UNL     1      44.815   3.940   8.997  0.00  0.00    +0.000 N 
ATOM     11  H   UNL     1      45.472   4.624   8.645  0.00  0.00    +0.000 HD
BRANCH   9  12
ATOM     12  C   UNL     1      46.190   2.315   7.889  0.00  0.00    +0.000 A 
ATOM     13  C   UNL     1      46.821   1.093   7.750  0.00  0.00    +0.000 A 
ATOM     14  N   UNL     1      47.906   1.064   6.896  0.00  0.00    +0.000 NA
ATOM     15  C   UNL     1      48.091   2.267   6.398  0.00  0.00    +0.000 A 
ATOM     16  S   UNL     1      46.987   3.476   6.910  0.00  0.00    +0.000 S 
ENDBRANCH   9  12
ENDBRANCH   7  10
ENDBRANCH   1   7
BRANCH   4  17
ATOM     17  C   UNL     1      45.721   7.243  13.327  0.00  0.00    +0.000 C 
BRANCH  17  18
ATOM     18  N   UNL     1      47.092   7.668  13.517  0.00  0.00    +0.000 N 
ATOM     19  C   UNL     1      48.064   6.819  13.980  0.00  0.00    +0.000 C 
ATOM     20  O   UNL     1      47.834   5.640  14.238  0.00  0.00    +0.000 OA
ATOM     21  H   UNL     1      47.289   8.662  13.451  0.00  0.00    +0.000 HD
BRANCH  19  22
ATOM     22  C   UNL     1      49.416   7.373  14.101  0.00  0.00    +0.000 A 
ATOM     23  C   UNL     1      50.049   7.350  15.337  0.00  0.00    +0.000 A 
ATOM     24  S   UNL     1      51.607   8.038  15.322  0.00  0.00    +0.000 S 
ATOM     25  C   UNL     1      51.475   8.434  13.673  0.00  0.00    +0.000 A 
ATOM     26  N   UNL     1      52.473   9.101  13.033  0.00  0.00    +0.000 NA
ATOM     27  C   UNL     1      52.224   9.379  11.798  0.00  0.00    +0.000 A 
ATOM     28  N   UNL     1      51.072   9.036  11.139  0.00  0.00    +0.000 N 
ATOM     29  C   UNL     1      50.082   8.279  11.718  0.00  0.00    +0.000 A 
ATOM     30  O   UNL     1      49.146   7.845  11.055  0.00  0.00    +0.000 OA
ATOM     31  C   UNL     1      50.277   8.004  13.128  0.00  0.00    +0.000 A 
ATOM     32  H   UNL     1      50.959   9.247  10.158  0.00  0.00    +0.000 HD
ENDBRANCH  19  22
ENDBRANCH  17  18
ENDBRANCH   4  17
TORSDOF 6
ENDMDL
MODEL 6
REMARK VINA RESULT:    -7.028      3.613      9.580
REMARK INTER + INTRA:          -9.877
REMARK INTER:                  -9.483
REMARK INTRA:                  -0.394
REMARK UNBOUND:                -0.384
REMARK  Name = 
REMARK  6 active torsions:
REMARK  status: ('A' for Active; 'I' for Inactive)
REMARK    1  A    between atoms: C_2  and  C_25
REMARK    2  A    between atoms: N_3  and  C_4
REMARK    3  A    between atoms: C_4  and  C_5
REMARK    4  A    between atoms: C_8  and  C_9
REMARK    5  A    between atoms: C_9  and  N_10
REMARK    6  A    between atoms: C_11  and  C_13
REMARK                            x       y       z     vdW  Elec       q    Type
REMARK                         _______ _______ _______ _____ _____    ______ ____
ROOT
ATOM      1  C   UNL     1      48.754   5.127  19.857  0.00  0.00    +0.000 C 
ATOM      2  C   UNL     1      48.219   5.979  18.695  0.00  0.00    +0.000 C 
ATOM      3  C   UNL     1      48.901   5.636  17.373  0.00  0.00    +0.000 C 
ATOM      4  C   UNL     1      48.765   4.148  17.009  0.00  0.00    +0.000 C 
ATOM      5  C   UNL     1      49.296   3.281  18.163  0.00  0.00    +0.000 C 
ATOM      6  C   UNL     1      48.659   3.630  19.511  0.00  0.00    +0.000 C 
ENDROOT
BRANCH   1   7
ATOM      7  C   UNL     1      50.197   5.511  20.242  0.00  0.00    +0.000 C 
BRANCH   7  10
ATOM      8  O   UNL     1      52.594   5.577  18.794  0.00  0.00    +0.000 OA
ATOM      9  C   UNL     1      52.278   4.518  19.335  0.00  0.00    +0.000 C 
ATOM     10  N   UNL     1      51.124   4.407  20.082  0.00  0.00    +0.000 N 
ATOM     11  H   UNL     1      50.888   3.506  20.475  0.00  0.00    +0.000 HD
BRANCH   9  12
ATOM     12  C   UNL     1      53.090   3.322  19.234  0.00  0.00    +0.000 A 
ATOM     13  C   UNL     1      54.075   2.915  20.114  0.00  0.00    +0.000 A 
ATOM     14  N   UNL     1      54.719   1.734  19.798  0.00  0.00    +0.000 NA
ATOM     15  C   UNL     1      54.218   1.259  18.680  0.00  0.00    +0.000 A 
ATOM     16  S   UNL     1      52.963   2.181  17.960  0.00  0.00    +0.000 S 
ENDBRANCH   9  12
ENDBRANCH   7  10
ENDBRANCH   1   7
BRANCH   4  17
ATOM     17  C   UNL     1      47.320   3.756  16.645  0.00  0.00    +0.000 C 
BRANCH  17  18
ATOM     18  N   UNL     1      46.754   4.629  15.638  0.00  0.00    +0.000 N 
ATOM     19  C   UNL     1      46.763   4.310  14.304  0.00  0.00    +0.000 C 
ATOM     20  O   UNL     1      47.229   3.253  13.888  0.00  0.00    +0.000 OA
ATOM     21  H   UNL     1      46.489   5.567  15.924  0.00  0.00    +0.000 HD
BRANCH  19  22
ATOM     22  C   UNL     1      46.132   5.272  13.395  0.00  0.00    +0.000 A 
ATOM     23  C   UNL     1      46.813   6.437  13.064  0.00  0.00    +0.000 A 
ATOM     24  S   UNL     1      45.949   7.459  12.010  0.00  0.00    +0.000 S 
ATOM     25  C   UNL     1      44.614   6.404  11.994  0.00  0.00    +0.000 A 
ATOM     26  N   UNL     1      43.486   6.717  11.302  0.00  0.00    +0.000 NA
ATOM     27  C   UNL     1      42.534   5.853  11.413  0.00  0.00    +0.000 A 
ATOM     28  N   UNL     1      42.614   4.694  12.141  0.00  0.00    +0.000 N 
ATOM     29  C   UNL     1      43.767   4.293  12.773  0.00  0.00    +0.000 A 
ATOM     30  O   UNL     1      43.860   3.176  13.272  0.00  0.00    +0.000 OA
ATOM     31  C   UNL     1      44.843   5.264  12.745  0.00  0.00    +0.000 A 
ATOM     32  H   UNL     1      41.846   4.038  12.150  0.00  0.00    +0.000 HD
ENDBRANCH  19  22
ENDBRANCH  17  18
ENDBRANCH   4  17
TORSDOF 6
ENDMDL
MODEL 7
REMARK VINA RESULT:    -6.851      5.120      7.981
REMARK INTER + INTRA:          -9.638
REMARK INTER:                  -8.734
REMARK INTRA:                  -0.904
REMARK UNBOUND:                -0.384
REMARK  Name = 
REMARK  6 active torsions:
REMARK  status: ('A' for Active; 'I' for Inactive)
REMARK    1  A    between atoms: C_2  and  C_25
REMARK    2  A    between atoms: N_3  and  C_4
REMARK    3  A    between atoms: C_4  and  C_5
REMARK    4  A    between atoms: C_8  and  C_9
REMARK    5  A    between atoms: C_9  and  N_10
REMARK    6  A    between atoms: C_11  and  C_13
REMARK                            x       y       z     vdW  Elec       q    Type
REMARK                         _______ _______ _______ _____ _____    ______ ____
ROOT
ATOM      1  C   UNL     1      49.582   9.067  11.502  0.00  0.00    +0.000 C 
ATOM      2  C   UNL     1      48.880   7.714  11.304  0.00  0.00    +0.000 C 
ATOM      3  C   UNL     1      48.988   6.827  12.542  0.00  0.00    +0.000 C 
ATOM      4  C   UNL     1      48.426   7.505  13.802  0.00  0.00    +0.000 C 
ATOM      5  C   UNL     1      49.117   8.862  14.014  0.00  0.00    +0.000 C 
ATOM      6  C   UNL     1      49.061   9.759  12.775  0.00  0.00    +0.000 C 
ENDROOT
BRANCH   1   7
ATOM      7  C   UNL     1      51.116   8.925  11.544  0.00  0.00    +0.000 C 
BRANCH   7  10
ATOM      8  O   UNL     1      53.072   9.310   9.577  0.00  0.00    +0.000 OA
ATOM      9  C   UNL     1      52.560   8.196   9.667  0.00  0.00    +0.000 C 
ATOM     10  N   UNL     1      51.603   7.919  10.621  0.00  0.00    +0.000 N 
ATOM     11  H   UNL     1      51.185   6.998  10.632  0.00  0.00    +0.000 HD
BRANCH   9  12
ATOM     12  C   UNL     1      52.924   7.101   8.791  0.00  0.00    +0.000 A 
ATOM     13  C   UNL     1      52.401   6.834   7.540  0.00  0.00    +0.000 A 
ATOM     14  N   UNL     1      52.906   5.721   6.897  0.00  0.00    +0.000 NA
ATOM     15  C   UNL     1      53.805   5.151   7.669  0.00  0.00    +0.000 A 
ATOM     16  S   UNL     1      54.096   5.910   9.179  0.00  0.00    +0.000 S 
ENDBRANCH   9  12
ENDBRANCH   7  10
ENDBRANCH   1   7
BRANCH   4  17
ATOM     17  C   UNL     1      46.894   7.669  13.755  0.00  0.00    +0.000 C 
BRANCH  17  18
ATOM     18  N   UNL     1      46.231   6.476  13.269  0.00  0.00    +0.000 N 
ATOM     19  C   UNL     1      45.357   6.504  12.213  0.00  0.00    +0.000 C 
ATOM     20  O   UNL     1      45.104   7.538  11.600  0.00  0.00    +0.000 OA
ATOM     21  H   UNL     1      46.305   5.635  13.833  0.00  0.00    +0.000 HD
BRANCH  19  22
ATOM     22  C   UNL     1      44.777   5.219  11.808  0.00  0.00    +0.000 A 
ATOM     23  C   UNL     1      43.994   4.515  12.713  0.00  0.00    +0.000 A 
ATOM     24  S   UNL     1      43.401   3.040  12.103  0.00  0.00    +0.000 S 
ATOM     25  C   UNL     1      44.207   3.266  10.622  0.00  0.00    +0.000 A 
ATOM     26  N   UNL     1      44.151   2.320   9.646  0.00  0.00    +0.000 NA
ATOM     27  C   UNL     1      44.845   2.597   8.594  0.00  0.00    +0.000 A 
ATOM     28  N   UNL     1      45.578   3.743   8.422  0.00  0.00    +0.000 N 
ATOM     29  C   UNL     1      45.582   4.766   9.341  0.00  0.00    +0.000 A 
ATOM     30  O   UNL     1      46.107   5.844   9.085  0.00  0.00    +0.000 OA
ATOM     31  C   UNL     1      44.881   4.474  10.576  0.00  0.00    +0.000 A 
ATOM     32  H   UNL     1      46.064   3.918   7.555  0.00  0.00    +0.000 HD
ENDBRANCH  19  22
ENDBRANCH  17  18
ENDBRANCH   4  17
TORSDOF 6
ENDMDL
MODEL 8
REMARK VINA RESULT:    -6.782      3.685      9.889
REMARK INTER + INTRA:          -9.545
REMARK INTER:                  -8.925
REMARK INTRA:                  -0.619
REMARK UNBOUND:                -0.384
REMARK  Name = 
REMARK  6 active torsions:
REMARK  status: ('A' for Active; 'I' for Inactive)
REMARK    1  A    between atoms: C_2  and  C_25
REMARK    2  A    between atoms: N_3  and  C_4
REMARK    3  A    between atoms: C_4  and  C_5
REMARK    4  A    between atoms: C_8  and  C_9
REMARK    5  A    between atoms: C_9  and  N_10
REMARK    6  A    between atoms: C_11  and  C_13
REMARK                            x       y       z     vdW  Elec       q    Type
REMARK                         _______ _______ _______ _____ _____    ______ ____
ROOT
ATOM      1  C   UNL     1      50.604   5.089  17.562  0.00  0.00    +0.000 C 
ATOM      2  C   UNL     1      50.287   3.595  17.735  0.00  0.00    +0.000 C 
ATOM      3  C   UNL     1      48.974   3.372  18.483  0.00  0.00    +0.000 C 
ATOM      4  C   UNL     1      47.783   4.062  17.799  0.00  0.00    +0.000 C 
ATOM      5  C   UNL     1      48.085   5.559  17.617  0.00  0.00    +0.000 C 
ATOM      6  C   UNL     1      49.416   5.815  16.906  0.00  0.00    +0.000 C 
ENDROOT
BRANCH   1   7
ATOM      7  C   UNL     1      50.988   5.760  18.896  0.00  0.00    +0.000 C 
BRANCH   7  10
ATOM      8  O   UNL     1      49.319   6.835  20.872  0.00  0.00    +0.000 OA
ATOM      9  C   UNL     1      49.699   7.582  19.973  0.00  0.00    +0.000 C 
ATOM     10  N   UNL     1      50.538   7.136  18.972  0.00  0.00    +0.000 N 
ATOM     11  H   UNL     1      50.793   7.778  18.234  0.00  0.00    +0.000 HD
BRANCH   9  12
ATOM     12  C   UNL     1      49.305   8.974  19.901  0.00  0.00    +0.000 A 
ATOM     13  C   UNL     1      49.784  10.011  20.678  0.00  0.00    +0.000 A 
ATOM     14  N   UNL     1      49.245  11.258  20.425  0.00  0.00    +0.000 NA
ATOM     15  C   UNL     1      48.359  11.153  19.460  0.00  0.00    +0.000 A 
ATOM     16  S   UNL     1      48.132   9.583  18.807  0.00  0.00    +0.000 S 
ENDBRANCH   9  12
ENDBRANCH   7  10
ENDBRANCH   1   7
BRANCH   4  17
ATOM     17  C   UNL     1      47.410   3.407  16.455  0.00  0.00    +0.000 C 
BRANCH  17  18
ATOM     18  N   UNL     1      46.757   4.337  15.557  0.00  0.00    +0.000 N 
ATOM     19  C   UNL     1      46.856   4.228  14.193  0.00  0.00    +0.000 C 
ATOM     20  O   UNL     1      47.483   3.321  13.653  0.00  0.00    +0.000 OA
ATOM     21  H   UNL     1      46.351   5.175  15.961  0.00  0.00    +0.000 HD
BRANCH  19  22
ATOM     22  C   UNL     1      46.124   5.222  13.401  0.00  0.00    +0.000 A 
ATOM     23  C   UNL     1      46.664   6.491  13.240  0.00  0.00    +0.000 A 
ATOM     24  S   UNL     1      45.695   7.536  12.308  0.00  0.00    +0.000 S 
ATOM     25  C   UNL     1      44.495   6.344  12.122  0.00  0.00    +0.000 A 
ATOM     26  N   UNL     1      43.344   6.612  11.449  0.00  0.00    +0.000 NA
ATOM     27  C   UNL     1      42.501   5.636  11.423  0.00  0.00    +0.000 A 
ATOM     28  N   UNL     1      42.711   4.409  11.997  0.00  0.00    +0.000 N 
ATOM     29  C   UNL     1      43.897   4.064  12.600  0.00  0.00    +0.000 A 
ATOM     30  O   UNL     1      44.118   2.910  12.951  0.00  0.00    +0.000 OA
ATOM     31  C   UNL     1      44.850   5.149  12.724  0.00  0.00    +0.000 A 
ATOM     32  H   UNL     1      42.026   3.673  11.902  0.00  0.00    +0.000 HD
ENDBRANCH  19  22
ENDBRANCH  17  18
ENDBRANCH   4  17
TORSDOF 6
ENDMDL
MODEL 9
REMARK VINA RESULT:    -6.773      2.953      8.917
REMARK INTER + INTRA:          -9.534
REMARK INTER:                  -8.722
REMARK INTRA:                  -0.812
REMARK UNBOUND:                -0.384
REMARK  Name = 
REMARK  6 active torsions:
REMARK  status: ('A' for Active; 'I' for Inactive)
REMARK    1  A    between atoms: C_2  and  C_25
REMARK    2  A    between atoms: N_3  and  C_4
REMARK    3  A    between atoms: C_4  and  C_5
REMARK    4  A    between atoms: C_8  and  C_9
REMARK    5  A    between atoms: C_9  and  N_10
REMARK    6  A    between atoms: C_11  and  C_13
REMARK                            x       y       z     vdW  Elec       q    Type
REMARK                         _______ _______ _______ _____ _____    ______ ____
ROOT
ATOM      1  C   UNL     1      48.569   8.071  15.091  0.00  0.00    +0.000 C 
ATOM      2  C   UNL     1      48.320   9.297  14.197  0.00  0.00    +0.000 C 
ATOM      3  C   UNL     1      48.987   9.153  12.831  0.00  0.00    +0.000 C 
ATOM      4  C   UNL     1      48.534   7.888  12.085  0.00  0.00    +0.000 C 
ATOM      5  C   UNL     1      48.775   6.651  12.967  0.00  0.00    +0.000 C 
ATOM      6  C   UNL     1      48.152   6.783  14.359  0.00  0.00    +0.000 C 
ENDROOT
BRANCH   1   7
ATOM      7  C   UNL     1      50.033   7.985  15.564  0.00  0.00    +0.000 C 
BRANCH   7  10
ATOM      8  O   UNL     1      49.833   6.846  18.115  0.00  0.00    +0.000 OA
ATOM      9  C   UNL     1      50.304   6.155  17.212  0.00  0.00    +0.000 C 
ATOM     10  N   UNL     1      50.419   6.635  15.924  0.00  0.00    +0.000 N 
ATOM     11  H   UNL     1      50.846   6.042  15.225  0.00  0.00    +0.000 HD
BRANCH   9  12
ATOM     12  C   UNL     1      50.762   4.798  17.431  0.00  0.00    +0.000 A 
ATOM     13  C   UNL     1      49.992   3.651  17.402  0.00  0.00    +0.000 A 
ATOM     14  N   UNL     1      50.659   2.467  17.649  0.00  0.00    +0.000 NA
ATOM     15  C   UNL     1      51.928   2.728  17.869  0.00  0.00    +0.000 A 
ATOM     16  S   UNL     1      52.387   4.379  17.783  0.00  0.00    +0.000 S 
ENDBRANCH   9  12
ENDBRANCH   7  10
ENDBRANCH   1   7
BRANCH   4  17
ATOM     17  C   UNL     1      47.064   7.962  11.630  0.00  0.00    +0.000 C 
BRANCH  17  18
ATOM     18  N   UNL     1      46.484   6.649  11.440  0.00  0.00    +0.000 N 
ATOM     19  C   UNL     1      45.129   6.452  11.365  0.00  0.00    +0.000 C 
ATOM     20  O   UNL     1      44.328   7.381  11.429  0.00  0.00    +0.000 OA
ATOM     21  H   UNL     1      47.100   5.846  11.524  0.00  0.00    +0.000 HD
BRANCH  19  22
ATOM     22  C   UNL     1      44.677   5.074  11.145  0.00  0.00    +0.000 A 
ATOM     23  C   UNL     1      43.877   4.463  12.102  0.00  0.00    +0.000 A 
ATOM     24  S   UNL     1      43.444   2.863  11.712  0.00  0.00    +0.000 S 
ATOM     25  C   UNL     1      44.348   2.911  10.272  0.00  0.00    +0.000 A 
ATOM     26  N   UNL     1      44.439   1.818   9.469  0.00  0.00    +0.000 NA
ATOM     27  C   UNL     1      45.193   1.977   8.434  0.00  0.00    +0.000 A 
ATOM     28  N   UNL     1      45.853   3.137   8.120  0.00  0.00    +0.000 N 
ATOM     29  C   UNL     1      45.710   4.293   8.851  0.00  0.00    +0.000 A 
ATOM     30  O   UNL     1      46.174   5.356   8.453  0.00  0.00    +0.000 OA
ATOM     31  C   UNL     1      44.934   4.148  10.067  0.00  0.00    +0.000 A 
ATOM     32  H   UNL     1      46.393   3.208   7.271  0.00  0.00    +0.000 HD
ENDBRANCH  19  22
ENDBRANCH  17  18
ENDBRANCH   4  17
TORSDOF 6
ENDMDL
