MODEL 1
REMARK VINA RESULT:    -8.456      0.000      0.000
REMARK INTER + INTRA:         -11.601
REMARK INTER:                 -10.927
REMARK INTRA:                  -0.674
REMARK UNBOUND:                -0.674
REMARK  Name = 
REMARK  8 active torsions:
REMARK  status: ('A' for Active; 'I' for Inactive)
REMARK    1  A    between atoms: C_1  and  O_2
REMARK    2  A    between atoms: O_2  and  C_3
REMARK    3  A    between atoms: N_7  and  C_8
REMARK    4  A    between atoms: C_8  and  C_9
REMARK    5  A    between atoms: C_9  and  C_10
REMARK    6  A    between atoms: C_9  and  C_11
REMARK    7  A    between atoms: C_14  and  C_15
REMARK    8  A    between atoms: C_16  and  C_17
REMARK                            x       y       z     vdW  Elec       q    Type
REMARK                         _______ _______ _______ _____ _____    ______ ____
ROOT
ATOM      1  C   UNL     1      43.877   4.476  11.763  0.00  0.00    +0.000 C 
ATOM      2  C   UNL     1      42.698   5.345  12.225  0.00  0.00    +0.000 C 
ENDROOT
BRANCH   1   3
ATOM      3  C   UNL     1      45.194   5.125  12.164  0.00  0.00    +0.000 A 
ATOM      4  C   UNL     1      45.824   6.063  11.351  0.00  0.00    +0.000 A 
ATOM      5  C   UNL     1      47.030   6.634  11.744  0.00  0.00    +0.000 A 
ATOM      6  C   UNL     1      47.656   6.278  12.955  0.00  0.00    +0.000 A 
ATOM      7  C   UNL     1      48.982   6.942  13.231  0.00  0.00    +0.000 C 
ATOM      8  C   UNL     1      47.034   5.347  13.826  0.00  0.00    +0.000 A 
ATOM      9  C   UNL     1      45.796   4.800  13.394  0.00  0.00    +0.000 A 
BRANCH   8  10
ATOM     10  C   UNL     1      47.597   4.896  15.134  0.00  0.00    +0.000 A 
ATOM     11  C   UNL     1      48.243   5.745  16.043  0.00  0.00    +0.000 A 
ATOM     12  C   UNL     1      48.771   5.262  17.244  0.00  0.00    +0.000 A 
ATOM     13  C   UNL     1      48.596   3.928  17.549  0.00  0.00    +0.000 A 
ATOM     14  N   UNL     1      47.957   3.065  16.739  0.00  0.00    +0.000 NA
ATOM     15  C   UNL     1      47.492   3.564  15.562  0.00  0.00    +0.000 A 
ENDBRANCH   8  10
ENDBRANCH   1   3
BRANCH   1  16
ATOM     16  C   UNL     1      43.747   4.231  10.244  0.00  0.00    +0.000 C 
BRANCH  16  21
ATOM     17  C   UNL     1      47.076   1.914   7.192  0.00  0.00    +0.000 A 
ATOM     18  C   UNL     1      46.685   3.231   7.260  0.00  0.00    +0.000 A 
ATOM     19  C   UNL     1      45.682   3.575   8.162  0.00  0.00    +0.000 A 
ATOM     20  C   UNL     1      45.112   2.605   8.982  0.00  0.00    +0.000 A 
ATOM     21  N   UNL     1      44.078   2.866   9.854  0.00  0.00    +0.000 N 
ATOM     22  N   UNL     1      45.548   1.333   8.893  0.00  0.00    +0.000 NA
ATOM     23  N   UNL     1      46.532   0.974   7.992  0.00  0.00    +0.000 NA
ATOM     24  H   UNL     1      43.932   2.116  10.520  0.00  0.00    +0.000 HD
BRANCH  17  26
ATOM     25  C   UNL     1      47.955   2.389   5.086  0.00  0.00    +0.000 C 
ATOM     26  O   UNL     1      48.041   1.596   6.264  0.00  0.00    +0.000 OA
ENDBRANCH  17  26
ENDBRANCH  16  21
ENDBRANCH   1  16
TORSDOF 5
ENDMDL
MODEL 2
REMARK VINA RESULT:    -8.200      2.237      3.636
REMARK INTER + INTRA:         -11.270
REMARK INTER:                 -10.553
REMARK INTRA:                  -0.717
REMARK UNBOUND:                -0.674
REMARK  Name = 
REMARK  8 active torsions:
REMARK  status: ('A' for Active; 'I' for Inactive)
REMARK    1  A    between atoms: C_1  and  O_2
REMARK    2  A    between atoms: O_2  and  C_3
REMARK    3  A    between atoms: N_7  and  C_8
REMARK    4  A    between atoms: C_8  and  C_9
REMARK    5  A    between atoms: C_9  and  C_10
REMARK    6  A    between atoms: C_9  and  C_11
REMARK    7  A    between atoms: C_14  and  C_15
REMARK    8  A    between atoms: C_16  and  C_17
REMARK                            x       y       z     vdW  Elec       q    Type
REMARK                         _______ _______ _______ _____ _____    ______ ____
ROOT
ATOM      1  C   UNL     1      43.649   4.555  11.721  0.00  0.00    +0.000 C 
ATOM      2  C   UNL     1      42.492   5.538  11.952  0.00  0.00    +0.000 C 
ENDROOT
BRANCH   1   3
ATOM      3  C   UNL     1      44.905   5.053  12.421  0.00  0.00    +0.000 A 
ATOM      4  C   UNL     1      45.543   4.297  13.401  0.00  0.00    +0.000 A 
ATOM      5  C   UNL     1      46.686   4.783  14.027  0.00  0.00    +0.000 A 
ATOM      6  C   UNL     1      47.224   6.046  13.707  0.00  0.00    +0.000 A 
ATOM      7  C   UNL     1      48.440   6.463  14.497  0.00  0.00    +0.000 C 
ATOM      8  C   UNL     1      46.621   6.835  12.694  0.00  0.00    +0.000 A 
ATOM      9  C   UNL     1      45.465   6.296  12.070  0.00  0.00    +0.000 A 
BRANCH   8  10
ATOM     10  C   UNL     1      47.102   8.183  12.266  0.00  0.00    +0.000 A 
ATOM     11  C   UNL     1      46.323   9.347  12.321  0.00  0.00    +0.000 A 
ATOM     12  C   UNL     1      46.820  10.578  11.886  0.00  0.00    +0.000 A 
ATOM     13  C   UNL     1      48.126  10.641  11.444  0.00  0.00    +0.000 A 
ATOM     14  N   UNL     1      48.939   9.571  11.398  0.00  0.00    +0.000 NA
ATOM     15  C   UNL     1      48.407   8.384  11.792  0.00  0.00    +0.000 A 
ENDBRANCH   8  10
ENDBRANCH   1   3
BRANCH   1  16
ATOM     16  C   UNL     1      43.829   4.349  10.201  0.00  0.00    +0.000 C 
BRANCH  16  21
ATOM     17  C   UNL     1      47.016   1.830   7.158  0.00  0.00    +0.000 A 
ATOM     18  C   UNL     1      46.678   3.163   7.200  0.00  0.00    +0.000 A 
ATOM     19  C   UNL     1      45.704   3.567   8.107  0.00  0.00    +0.000 A 
ATOM     20  C   UNL     1      45.109   2.640   8.960  0.00  0.00    +0.000 A 
ATOM     21  N   UNL     1      44.100   2.963   9.840  0.00  0.00    +0.000 N 
ATOM     22  N   UNL     1      45.493   1.351   8.895  0.00  0.00    +0.000 NA
ATOM     23  N   UNL     1      46.448   0.932   7.988  0.00  0.00    +0.000 NA
ATOM     24  H   UNL     1      43.935   2.235  10.526  0.00  0.00    +0.000 HD
BRANCH  17  26
ATOM     25  C   UNL     1      48.072   2.383   5.155  0.00  0.00    +0.000 C 
ATOM     26  O   UNL     1      47.953   1.452   6.224  0.00  0.00    +0.000 OA
ENDBRANCH  17  26
ENDBRANCH  16  21
ENDBRANCH   1  16
TORSDOF 5
ENDMDL
MODEL 3
REMARK VINA RESULT:    -8.001      2.353      3.056
REMARK INTER + INTRA:         -11.014
REMARK INTER:                 -10.075
REMARK INTRA:                  -0.939
REMARK UNBOUND:                -0.674
REMARK  Name = 
REMARK  8 active torsions:
REMARK  status: ('A' for Active; 'I' for Inactive)
REMARK    1  A    between atoms: C_1  and  O_2
REMARK    2  A    between atoms: O_2  and  C_3
REMARK    3  A    between atoms: N_7  and  C_8
REMARK    4  A    between atoms: C_8  and  C_9
REMARK    5  A    between atoms: C_9  and  C_10
REMARK    6  A    between atoms: C_9  and  C_11
REMARK    7  A    between atoms: C_14  and  C_15
REMARK    8  A    between atoms: C_16  and  C_17
REMARK                            x       y       z     vdW  Elec       q    Type
REMARK                         _______ _______ _______ _____ _____    ______ ____
ROOT
ATOM      1  C   UNL     1      44.606   4.226  11.668  0.00  0.00    +0.000 C 
ATOM      2  C   UNL     1      43.715   3.849  12.860  0.00  0.00    +0.000 C 
ENDROOT
BRANCH   1   3
ATOM      3  C   UNL     1      44.994   5.695  11.749  0.00  0.00    +0.000 A 
ATOM      4  C   UNL     1      44.071   6.709  11.505  0.00  0.00    +0.000 A 
ATOM      5  C   UNL     1      44.458   8.043  11.581  0.00  0.00    +0.000 A 
ATOM      6  C   UNL     1      45.783   8.411  11.889  0.00  0.00    +0.000 A 
ATOM      7  C   UNL     1      46.071   9.892  11.892  0.00  0.00    +0.000 C 
ATOM      8  C   UNL     1      46.748   7.410  12.172  0.00  0.00    +0.000 A 
ATOM      9  C   UNL     1      46.307   6.062  12.099  0.00  0.00    +0.000 A 
BRANCH   8  10
ATOM     10  C   UNL     1      48.177   7.677  12.515  0.00  0.00    +0.000 A 
ATOM     11  C   UNL     1      49.183   7.894  11.563  0.00  0.00    +0.000 A 
ATOM     12  C   UNL     1      50.509   8.118  11.942  0.00  0.00    +0.000 A 
ATOM     13  C   UNL     1      50.807   8.177  13.289  0.00  0.00    +0.000 A 
ATOM     14  N   UNL     1      49.885   8.013  14.254  0.00  0.00    +0.000 NA
ATOM     15  C   UNL     1      48.614   7.758  13.845  0.00  0.00    +0.000 A 
ENDBRANCH   8  10
ENDBRANCH   1   3
BRANCH   1  16
ATOM     16  C   UNL     1      43.872   3.852  10.362  0.00  0.00    +0.000 C 
BRANCH  16  21
ATOM     17  C   UNL     1      47.157   1.781   7.093  0.00  0.00    +0.000 A 
ATOM     18  C   UNL     1      46.752   3.086   7.255  0.00  0.00    +0.000 A 
ATOM     19  C   UNL     1      45.766   3.357   8.199  0.00  0.00    +0.000 A 
ATOM     20  C   UNL     1      45.227   2.329   8.967  0.00  0.00    +0.000 A 
ATOM     21  N   UNL     1      44.209   2.519   9.877  0.00  0.00    +0.000 N 
ATOM     22  N   UNL     1      45.675   1.071   8.786  0.00  0.00    +0.000 NA
ATOM     23  N   UNL     1      46.642   0.784   7.842  0.00  0.00    +0.000 NA
ATOM     24  H   UNL     1      44.088   1.725  10.496  0.00  0.00    +0.000 HD
BRANCH  17  26
ATOM     25  C   UNL     1      47.986   2.407   5.007  0.00  0.00    +0.000 C 
ATOM     26  O   UNL     1      48.103   1.536   6.125  0.00  0.00    +0.000 OA
ENDBRANCH  17  26
ENDBRANCH  16  21
ENDBRANCH   1  16
TORSDOF 5
ENDMDL
MODEL 4
REMARK VINA RESULT:    -7.659      3.353      5.630
REMARK INTER + INTRA:         -10.572
REMARK INTER:                  -9.742
REMARK INTRA:                  -0.830
REMARK UNBOUND:                -0.674
REMARK  Name = 
REMARK  8 active torsions:
REMARK  status: ('A' for Active; 'I' for Inactive)
REMARK    1  A    between atoms: C_1  and  O_2
REMARK    2  A    between atoms: O_2  and  C_3
REMARK    3  A    between atoms: N_7  and  C_8
REMARK    4  A    between atoms: C_8  and  C_9
REMARK    5  A    between atoms: C_9  and  C_10
REMARK    6  A    between atoms: C_9  and  C_11
REMARK    7  A    between atoms: C_14  and  C_15
REMARK    8  A    between atoms: C_16  and  C_17
REMARK                            x       y       z     vdW  Elec       q    Type
REMARK                         _______ _______ _______ _____ _____    ______ ____
ROOT
ATOM      1  C   UNL     1      44.679   4.997  11.575  0.00  0.00    +0.000 C 
ATOM      2  C   UNL     1      43.847   4.575  12.794  0.00  0.00    +0.000 C 
ENDROOT
BRANCH   1   3
ATOM      3  C   UNL     1      45.015   6.479  11.658  0.00  0.00    +0.000 A 
ATOM      4  C   UNL     1      46.180   6.930  12.271  0.00  0.00    +0.000 A 
ATOM      5  C   UNL     1      46.456   8.293  12.337  0.00  0.00    +0.000 A 
ATOM      6  C   UNL     1      45.571   9.252  11.805  0.00  0.00    +0.000 A 
ATOM      7  C   UNL     1      45.975  10.693  11.987  0.00  0.00    +0.000 C 
ATOM      8  C   UNL     1      44.385   8.832  11.146  0.00  0.00    +0.000 A 
ATOM      9  C   UNL     1      44.150   7.433  11.088  0.00  0.00    +0.000 A 
BRANCH   8  10
ATOM     10  C   UNL     1      43.377   9.753  10.541  0.00  0.00    +0.000 A 
ATOM     11  C   UNL     1      43.617  10.543   9.408  0.00  0.00    +0.000 A 
ATOM     12  C   UNL     1      42.641  11.403   8.899  0.00  0.00    +0.000 A 
ATOM     13  C   UNL     1      41.401  11.423   9.506  0.00  0.00    +0.000 A 
ATOM     14  N   UNL     1      41.092  10.667  10.574  0.00  0.00    +0.000 NA
ATOM     15  C   UNL     1      42.081   9.873  11.064  0.00  0.00    +0.000 A 
ENDBRANCH   8  10
ENDBRANCH   1   3
BRANCH   1  16
ATOM     16  C   UNL     1      43.912   4.608  10.292  0.00  0.00    +0.000 C 
BRANCH  16  21
ATOM     17  C   UNL     1      47.010   1.936   7.288  0.00  0.00    +0.000 A 
ATOM     18  C   UNL     1      46.759   3.288   7.345  0.00  0.00    +0.000 A 
ATOM     19  C   UNL     1      45.788   3.740   8.234  0.00  0.00    +0.000 A 
ATOM     20  C   UNL     1      45.112   2.840   9.053  0.00  0.00    +0.000 A 
ATOM     21  N   UNL     1      44.101   3.214   9.912  0.00  0.00    +0.000 N 
ATOM     22  N   UNL     1      45.412   1.529   8.974  0.00  0.00    +0.000 NA
ATOM     23  N   UNL     1      46.362   1.063   8.086  0.00  0.00    +0.000 NA
ATOM     24  H   UNL     1      43.871   2.487  10.581  0.00  0.00    +0.000 HD
BRANCH  17  26
ATOM     25  C   UNL     1      47.936   2.286   5.177  0.00  0.00    +0.000 C 
ATOM     26  O   UNL     1      47.945   1.513   6.372  0.00  0.00    +0.000 OA
ENDBRANCH  17  26
ENDBRANCH  16  21
ENDBRANCH   1  16
TORSDOF 5
ENDMDL
MODEL 5
REMARK VINA RESULT:    -7.229      2.884      7.497
REMARK INTER + INTRA:         -10.016
REMARK INTER:                  -8.910
REMARK INTRA:                  -1.105
REMARK UNBOUND:                -0.674
REMARK  Name = 
REMARK  8 active torsions:
REMARK  status: ('A' for Active; 'I' for Inactive)
REMARK    1  A    between atoms: C_1  and  O_2
REMARK    2  A    between atoms: O_2  and  C_3
REMARK    3  A    between atoms: N_7  and  C_8
REMARK    4  A    between atoms: C_8  and  C_9
REMARK    5  A    between atoms: C_9  and  C_10
REMARK    6  A    between atoms: C_9  and  C_11
REMARK    7  A    between atoms: C_14  and  C_15
REMARK    8  A    between atoms: C_16  and  C_17
REMARK                            x       y       z     vdW  Elec       q    Type
REMARK                         _______ _______ _______ _____ _____    ______ ____
ROOT
ATOM      1  C   UNL     1      47.836   8.126  11.966  0.00  0.00    +0.000 C 
ATOM      2  C   UNL     1      47.689   9.354  12.876  0.00  0.00    +0.000 C 
ENDROOT
BRANCH   1   3
ATOM      3  C   UNL     1      46.495   7.420  11.821  0.00  0.00    +0.000 A 
ATOM      4  C   UNL     1      45.367   7.845  12.518  0.00  0.00    +0.000 A 
ATOM      5  C   UNL     1      44.157   7.174  12.367  0.00  0.00    +0.000 A 
ATOM      6  C   UNL     1      44.035   6.048  11.528  0.00  0.00    +0.000 A 
ATOM      7  C   UNL     1      42.677   5.394  11.498  0.00  0.00    +0.000 C 
ATOM      8  C   UNL     1      45.154   5.600  10.779  0.00  0.00    +0.000 A 
ATOM      9  C   UNL     1      46.365   6.322  10.949  0.00  0.00    +0.000 A 
BRANCH   8  10
ATOM     10  C   UNL     1      45.145   4.426   9.856  0.00  0.00    +0.000 A 
ATOM     11  C   UNL     1      45.508   4.489   8.503  0.00  0.00    +0.000 A 
ATOM     12  C   UNL     1      45.460   3.360   7.682  0.00  0.00    +0.000 A 
ATOM     13  C   UNL     1      45.095   2.153   8.244  0.00  0.00    +0.000 A 
ATOM     14  N   UNL     1      44.768   2.015   9.540  0.00  0.00    +0.000 NA
ATOM     15  C   UNL     1      44.789   3.143  10.298  0.00  0.00    +0.000 A 
ENDBRANCH   8  10
ENDBRANCH   1   3
BRANCH   1  16
ATOM     16  C   UNL     1      48.953   7.221  12.530  0.00  0.00    +0.000 C 
BRANCH  16  21
ATOM     17  C   UNL     1      47.290   4.373  16.388  0.00  0.00    +0.000 A 
ATOM     18  C   UNL     1      46.918   4.397  15.063  0.00  0.00    +0.000 A 
ATOM     19  C   UNL     1      47.501   5.350  14.233  0.00  0.00    +0.000 A 
ATOM     20  C   UNL     1      48.450   6.236  14.738  0.00  0.00    +0.000 A 
ATOM     21  N   UNL     1      49.023   7.238  13.985  0.00  0.00    +0.000 N 
ATOM     22  N   UNL     1      48.796   6.154  16.037  0.00  0.00    +0.000 NA
ATOM     23  N   UNL     1      48.214   5.224  16.877  0.00  0.00    +0.000 NA
ATOM     24  H   UNL     1      49.837   7.643  14.434  0.00  0.00    +0.000 HD
BRANCH  17  26
ATOM     25  C   UNL     1      47.575   2.506  17.754  0.00  0.00    +0.000 C 
ATOM     26  O   UNL     1      46.667   3.448  17.194  0.00  0.00    +0.000 OA
ENDBRANCH  17  26
ENDBRANCH  16  21
ENDBRANCH   1  16
TORSDOF 5
ENDMDL
MODEL 6
REMARK VINA RESULT:    -6.959      2.736      4.301
REMARK INTER + INTRA:          -9.667
REMARK INTER:                  -8.771
REMARK INTRA:                  -0.896
REMARK UNBOUND:                -0.674
REMARK  Name = 
REMARK  8 active torsions:
REMARK  status: ('A' for Active; 'I' for Inactive)
REMARK    1  A    between atoms: C_1  and  O_2
REMARK    2  A    between atoms: O_2  and  C_3
REMARK    3  A    between atoms: N_7  and  C_8
REMARK    4  A    between atoms: C_8  and  C_9
REMARK    5  A    between atoms: C_9  and  C_10
REMARK    6  A    between atoms: C_9  and  C_11
REMARK    7  A    between atoms: C_14  and  C_15
REMARK    8  A    between atoms: C_16  and  C_17
REMARK                            x       y       z     vdW  Elec       q    Type
REMARK                         _______ _______ _______ _____ _____    ______ ____
ROOT
ATOM      1  C   UNL     1      46.368   5.110  13.146  0.00  0.00    +0.000 C 
ATOM      2  C   UNL     1      46.762   4.729  14.580  0.00  0.00    +0.000 C 
ENDROOT
BRANCH   1   3
ATOM      3  C   UNL     1      46.904   6.494  12.808  0.00  0.00    +0.000 A 
ATOM      4  C   UNL     1      46.061   7.598  12.702  0.00  0.00    +0.000 A 
ATOM      5  C   UNL     1      46.580   8.849  12.385  0.00  0.00    +0.000 A 
ATOM      6  C   UNL     1      47.957   9.039  12.148  0.00  0.00    +0.000 A 
ATOM      7  C   UNL     1      48.372  10.439  11.770  0.00  0.00    +0.000 C 
ATOM      8  C   UNL     1      48.854   7.947  12.274  0.00  0.00    +0.000 A 
ATOM      9  C   UNL     1      48.284   6.691  12.614  0.00  0.00    +0.000 A 
BRANCH   8  10
ATOM     10  C   UNL     1      50.329   8.027  12.054  0.00  0.00    +0.000 A 
ATOM     11  C   UNL     1      50.960   7.690  10.848  0.00  0.00    +0.000 A 
ATOM     12  C   UNL     1      52.349   7.764  10.707  0.00  0.00    +0.000 A 
ATOM     13  C   UNL     1      53.094   8.232  11.771  0.00  0.00    +0.000 A 
ATOM     14  N   UNL     1      52.550   8.604  12.943  0.00  0.00    +0.000 NA
ATOM     15  C   UNL     1      51.201   8.480  13.055  0.00  0.00    +0.000 A 
ENDBRANCH   8  10
ENDBRANCH   1   3
BRANCH   1  16
ATOM     16  C   UNL     1      44.836   4.989  13.003  0.00  0.00    +0.000 C 
BRANCH  16  21
ATOM     17  C   UNL     1      45.336   3.461   8.189  0.00  0.00    +0.000 A 
ATOM     18  C   UNL     1      45.537   4.694   8.766  0.00  0.00    +0.000 A 
ATOM     19  C   UNL     1      45.246   4.843  10.119  0.00  0.00    +0.000 A 
ATOM     20  C   UNL     1      44.785   3.759  10.862  0.00  0.00    +0.000 A 
ATOM     21  N   UNL     1      44.425   3.852  12.189  0.00  0.00    +0.000 N 
ATOM     22  N   UNL     1      44.628   2.567  10.254  0.00  0.00    +0.000 NA
ATOM     23  N   UNL     1      44.898   2.408   8.908  0.00  0.00    +0.000 NA
ATOM     24  H   UNL     1      44.323   2.944  12.628  0.00  0.00    +0.000 HD
BRANCH  17  26
ATOM     25  C   UNL     1      46.935   2.971   6.565  0.00  0.00    +0.000 C 
ATOM     26  O   UNL     1      45.593   3.353   6.841  0.00  0.00    +0.000 OA
ENDBRANCH  17  26
ENDBRANCH  16  21
ENDBRANCH   1  16
TORSDOF 5
ENDMDL
MODEL 7
REMARK VINA RESULT:    -6.668      3.032      5.882
REMARK INTER + INTRA:          -9.291
REMARK INTER:                  -8.500
REMARK INTRA:                  -0.791
REMARK UNBOUND:                -0.674
REMARK  Name = 
REMARK  8 active torsions:
REMARK  status: ('A' for Active; 'I' for Inactive)
REMARK    1  A    between atoms: C_1  and  O_2
REMARK    2  A    between atoms: O_2  and  C_3
REMARK    3  A    between atoms: N_7  and  C_8
REMARK    4  A    between atoms: C_8  and  C_9
REMARK    5  A    between atoms: C_9  and  C_10
REMARK    6  A    between atoms: C_9  and  C_11
REMARK    7  A    between atoms: C_14  and  C_15
REMARK    8  A    between atoms: C_16  and  C_17
REMARK                            x       y       z     vdW  Elec       q    Type
REMARK                         _______ _______ _______ _____ _____    ______ ____
ROOT
ATOM      1  C   UNL     1      49.054   7.555  15.320  0.00  0.00    +0.000 C 
ATOM      2  C   UNL     1      50.477   8.013  14.973  0.00  0.00    +0.000 C 
ENDROOT
BRANCH   1   3
ATOM      3  C   UNL     1      49.072   6.702  16.581  0.00  0.00    +0.000 A 
ATOM      4  C   UNL     1      48.322   7.043  17.704  0.00  0.00    +0.000 A 
ATOM      5  C   UNL     1      48.365   6.246  18.843  0.00  0.00    +0.000 A 
ATOM      6  C   UNL     1      49.169   5.090  18.906  0.00  0.00    +0.000 A 
ATOM      7  C   UNL     1      49.152   4.348  20.219  0.00  0.00    +0.000 C 
ATOM      8  C   UNL     1      49.926   4.692  17.774  0.00  0.00    +0.000 A 
ATOM      9  C   UNL     1      49.842   5.525  16.627  0.00  0.00    +0.000 A 
BRANCH   8  10
ATOM     10  C   UNL     1      50.808   3.487  17.721  0.00  0.00    +0.000 A 
ATOM     11  C   UNL     1      52.152   3.482  18.119  0.00  0.00    +0.000 A 
ATOM     12  C   UNL     1      52.936   2.329  18.026  0.00  0.00    +0.000 A 
ATOM     13  C   UNL     1      52.342   1.165  17.579  0.00  0.00    +0.000 A 
ATOM     14  N   UNL     1      51.050   1.092  17.214  0.00  0.00    +0.000 NA
ATOM     15  C   UNL     1      50.331   2.243  17.281  0.00  0.00    +0.000 A 
ENDBRANCH   8  10
ENDBRANCH   1   3
BRANCH   1  16
ATOM     16  C   UNL     1      48.452   6.833  14.095  0.00  0.00    +0.000 C 
BRANCH  16  21
ATOM     17  C   UNL     1      44.719   4.393  11.671  0.00  0.00    +0.000 A 
ATOM     18  C   UNL     1      45.532   5.424  11.262  0.00  0.00    +0.000 A 
ATOM     19  C   UNL     1      46.435   5.955  12.179  0.00  0.00    +0.000 A 
ATOM     20  C   UNL     1      46.518   5.431  13.467  0.00  0.00    +0.000 A 
ATOM     21  N   UNL     1      47.348   5.946  14.439  0.00  0.00    +0.000 N 
ATOM     22  N   UNL     1      45.715   4.405  13.810  0.00  0.00    +0.000 NA
ATOM     23  N   UNL     1      44.803   3.879  12.915  0.00  0.00    +0.000 NA
ATOM     24  H   UNL     1      47.446   5.325  15.235  0.00  0.00    +0.000 HD
BRANCH  17  26
ATOM     25  C   UNL     1      44.274   4.004   9.416  0.00  0.00    +0.000 C 
ATOM     26  O   UNL     1      43.808   3.916  10.757  0.00  0.00    +0.000 OA
ENDBRANCH  17  26
ENDBRANCH  16  21
ENDBRANCH   1  16
TORSDOF 5
ENDMDL
MODEL 8
REMARK VINA RESULT:    -6.574      3.954      6.028
REMARK INTER + INTRA:          -9.170
REMARK INTER:                  -7.713
REMARK INTRA:                  -1.457
REMARK UNBOUND:                -0.674
REMARK  Name = 
REMARK  8 active torsions:
REMARK  status: ('A' for Active; 'I' for Inactive)
REMARK    1  A    between atoms: C_1  and  O_2
REMARK    2  A    between atoms: O_2  and  C_3
REMARK    3  A    between atoms: N_7  and  C_8
REMARK    4  A    between atoms: C_8  and  C_9
REMARK    5  A    between atoms: C_9  and  C_10
REMARK    6  A    between atoms: C_9  and  C_11
REMARK    7  A    between atoms: C_14  and  C_15
REMARK    8  A    between atoms: C_16  and  C_17
REMARK                            x       y       z     vdW  Elec       q    Type
REMARK                         _______ _______ _______ _____ _____    ______ ____
ROOT
ATOM      1  C   UNL     1      48.613   9.419  14.395  0.00  0.00    +0.000 C 
ATOM      2  C   UNL     1      49.923  10.213  14.284  0.00  0.00    +0.000 C 
ENDROOT
BRANCH   1   3
ATOM      3  C   UNL     1      48.527   8.741  15.755  0.00  0.00    +0.000 A 
ATOM      4  C   UNL     1      48.213   9.456  16.908  0.00  0.00    +0.000 A 
ATOM      5  C   UNL     1      48.147   8.809  18.138  0.00  0.00    +0.000 A 
ATOM      6  C   UNL     1      48.406   7.429  18.261  0.00  0.00    +0.000 A 
ATOM      7  C   UNL     1      48.343   6.870  19.661  0.00  0.00    +0.000 C 
ATOM      8  C   UNL     1      48.701   6.658  17.107  0.00  0.00    +0.000 A 
ATOM      9  C   UNL     1      48.743   7.355  15.870  0.00  0.00    +0.000 A 
BRANCH   8  10
ATOM     10  C   UNL     1      48.987   5.192  17.112  0.00  0.00    +0.000 A 
ATOM     11  C   UNL     1      48.016   4.203  16.900  0.00  0.00    +0.000 A 
ATOM     12  C   UNL     1      48.339   2.845  16.938  0.00  0.00    +0.000 A 
ATOM     13  C   UNL     1      49.657   2.487  17.136  0.00  0.00    +0.000 A 
ATOM     14  N   UNL     1      50.644   3.384  17.311  0.00  0.00    +0.000 NA
ATOM     15  C   UNL     1      50.284   4.695  17.307  0.00  0.00    +0.000 A 
ENDBRANCH   8  10
ENDBRANCH   1   3
BRANCH   1  16
ATOM     16  C   UNL     1      48.527   8.435  13.208  0.00  0.00    +0.000 C 
BRANCH  16  21
ATOM     17  C   UNL     1      44.997   4.788  13.214  0.00  0.00    +0.000 A 
ATOM     18  C   UNL     1      46.346   4.733  13.478  0.00  0.00    +0.000 A 
ATOM     19  C   UNL     1      47.094   5.897  13.325  0.00  0.00    +0.000 A 
ATOM     20  C   UNL     1      46.478   7.083  12.937  0.00  0.00    +0.000 A 
ATOM     21  N   UNL     1      47.168   8.254  12.713  0.00  0.00    +0.000 N 
ATOM     22  N   UNL     1      45.149   7.089  12.714  0.00  0.00    +0.000 NA
ATOM     23  N   UNL     1      44.396   5.938  12.846  0.00  0.00    +0.000 NA
ATOM     24  H   UNL     1      46.556   9.061  12.651  0.00  0.00    +0.000 HD
BRANCH  17  26
ATOM     25  C   UNL     1      43.603   3.260  12.139  0.00  0.00    +0.000 C 
ATOM     26  O   UNL     1      44.289   3.615  13.334  0.00  0.00    +0.000 OA
ENDBRANCH  17  26
ENDBRANCH  16  21
ENDBRANCH   1  16
TORSDOF 5
ENDMDL
MODEL 9
REMARK VINA RESULT:    -6.518      4.158      8.565
REMARK INTER + INTRA:          -9.098
REMARK INTER:                  -8.284
REMARK INTRA:                  -0.814
REMARK UNBOUND:                -0.674
REMARK  Name = 
REMARK  8 active torsions:
REMARK  status: ('A' for Active; 'I' for Inactive)
REMARK    1  A    between atoms: C_1  and  O_2
REMARK    2  A    between atoms: O_2  and  C_3
REMARK    3  A    between atoms: N_7  and  C_8
REMARK    4  A    between atoms: C_8  and  C_9
REMARK    5  A    between atoms: C_9  and  C_10
REMARK    6  A    between atoms: C_9  and  C_11
REMARK    7  A    between atoms: C_14  and  C_15
REMARK    8  A    between atoms: C_16  and  C_17
REMARK                            x       y       z     vdW  Elec       q    Type
REMARK                         _______ _______ _______ _____ _____    ______ ____
ROOT
ATOM      1  C   UNL     1      47.999   4.564  17.153  0.00  0.00    +0.000 C 
ATOM      2  C   UNL     1      47.204   3.257  17.276  0.00  0.00    +0.000 C 
ENDROOT
BRANCH   1   3
ATOM      3  C   UNL     1      47.792   5.175  15.774  0.00  0.00    +0.000 A 
ATOM      4  C   UNL     1      48.635   6.167  15.281  0.00  0.00    +0.000 A 
ATOM      5  C   UNL     1      48.415   6.709  14.018  0.00  0.00    +0.000 A 
ATOM      6  C   UNL     1      47.338   6.291  13.212  0.00  0.00    +0.000 A 
ATOM      7  C   UNL     1      47.195   6.997  11.887  0.00  0.00    +0.000 C 
ATOM      8  C   UNL     1      46.472   5.262  13.665  0.00  0.00    +0.000 A 
ATOM      9  C   UNL     1      46.741   4.725  14.953  0.00  0.00    +0.000 A 
BRANCH   8  10
ATOM     10  C   UNL     1      45.304   4.733  12.899  0.00  0.00    +0.000 A 
ATOM     11  C   UNL     1      45.328   3.545  12.155  0.00  0.00    +0.000 A 
ATOM     12  C   UNL     1      44.209   3.111  11.440  0.00  0.00    +0.000 A 
ATOM     13  C   UNL     1      43.047   3.852  11.522  0.00  0.00    +0.000 A 
ATOM     14  N   UNL     1      42.945   4.981  12.244  0.00  0.00    +0.000 NA
ATOM     15  C   UNL     1      44.066   5.393  12.894  0.00  0.00    +0.000 A 
ENDBRANCH   8  10
ENDBRANCH   1   3
BRANCH   1  16
ATOM     16  C   UNL     1      49.479   4.278  17.486  0.00  0.00    +0.000 C 
BRANCH  16  21
ATOM     17  C   UNL     1      53.541   1.312  18.169  0.00  0.00    +0.000 A 
ATOM     18  C   UNL     1      53.385   2.671  18.320  0.00  0.00    +0.000 A 
ATOM     19  C   UNL     1      52.157   3.233  17.985  0.00  0.00    +0.000 A 
ATOM     20  C   UNL     1      51.115   2.429  17.531  0.00  0.00    +0.000 A 
ATOM     21  N   UNL     1      49.896   2.928  17.130  0.00  0.00    +0.000 N 
ATOM     22  N   UNL     1      51.313   1.100  17.423  0.00  0.00    +0.000 NA
ATOM     23  N   UNL     1      52.532   0.529  17.737  0.00  0.00    +0.000 NA
ATOM     24  H   UNL     1      49.191   2.204  17.038  0.00  0.00    +0.000 HD
BRANCH  17  26
ATOM     25  C   UNL     1      55.549   1.641  19.307  0.00  0.00    +0.000 C 
ATOM     26  O   UNL     1      54.778   0.789  18.468  0.00  0.00    +0.000 OA
ENDBRANCH  17  26
ENDBRANCH  16  21
ENDBRANCH   1  16
TORSDOF 5
ENDMDL
