MODEL 1
REMARK VINA RESULT:    -8.171      0.000      0.000
REMARK INTER + INTRA:         -12.835
REMARK INTER:                 -11.515
REMARK INTRA:                  -1.320
REMARK UNBOUND:                -1.320
REMARK  Name = 
REMARK  8 active torsions:
REMARK  status: ('A' for Active; 'I' for Inactive)
REMARK    1  A    between atoms: C_1  and  C_2
REMARK    2  A    between atoms: C_2  and  N_3
REMARK    3  A    between atoms: C_2  and  C_25
REMARK    4  A    between atoms: N_3  and  C_4
REMARK    5  A    between atoms: C_4  and  C_5
REMARK    6  A    between atoms: C_8  and  C_9
REMARK    7  A    between atoms: C_9  and  N_10
REMARK    8  A    between atoms: C_11  and  C_13
REMARK                            x       y       z     vdW  Elec       q    Type
REMARK                         _______ _______ _______ _____ _____    ______ ____
ROOT
ATOM      1  C   UNL     1      44.647   5.712  10.959  0.00  0.00    +0.000 A 
ATOM      2  C   UNL     1      44.138   6.399  12.071  0.00  0.00    +0.000 A 
ATOM      3  C   UNL     1      44.970   7.202  12.858  0.00  0.00    +0.000 A 
ATOM      4  C   UNL     1      46.330   7.337  12.550  0.00  0.00    +0.000 A 
ATOM      5  C   UNL     1      46.844   6.642  11.448  0.00  0.00    +0.000 A 
ATOM      6  C   UNL     1      46.010   5.847  10.658  0.00  0.00    +0.000 A 
ENDROOT
BRANCH   1   7
ATOM      7  C   UNL     1      43.779   4.783  10.139  0.00  0.00    +0.000 C 
BRANCH   7   8
ATOM      8  N   UNL     1      44.368   4.467   8.837  0.00  0.00    +0.000 NA
ATOM      9  H   UNL     1      43.738   4.812   8.111  0.00  0.00    +0.000 HD
BRANCH   8  11
ATOM     10  C   UNL     1      44.599   2.215   9.928  0.00  0.00    +0.000 C 
ATOM     11  C   UNL     1      44.528   3.013   8.620  0.00  0.00    +0.000 C 
BRANCH  11  12
ATOM     12  C   UNL     1      45.772   2.723   7.788  0.00  0.00    +0.000 A 
ATOM     13  C   UNL     1      46.451   1.512   7.907  0.00  0.00    +0.000 A 
ATOM     14  N   UNL     1      47.536   1.191   7.159  0.00  0.00    +0.000 NA
ATOM     15  C   UNL     1      47.932   2.143   6.288  0.00  0.00    +0.000 A 
ATOM     16  C   UNL     1      47.277   3.357   6.169  0.00  0.00    +0.000 A 
ATOM     17  N   UNL     1      46.190   3.676   6.910  0.00  0.00    +0.000 NA
ENDBRANCH  11  12
ENDBRANCH   8  11
ENDBRANCH   7   8
ENDBRANCH   1   7
BRANCH   4  18
ATOM     18  C   UNL     1      47.244   8.162  13.415  0.00  0.00    +0.000 C 
BRANCH  18  19
ATOM     19  N   UNL     1      47.599   7.448  14.616  0.00  0.00    +0.000 N 
ATOM     20  C   UNL     1      48.837   6.885  14.770  0.00  0.00    +0.000 C 
ATOM     21  O   UNL     1      49.715   6.998  13.917  0.00  0.00    +0.000 OA
ATOM     22  H   UNL     1      46.836   7.152  15.218  0.00  0.00    +0.000 HD
BRANCH  20  23
ATOM     23  C   UNL     1      49.088   6.185  16.035  0.00  0.00    +0.000 A 
ATOM     24  C   UNL     1      50.107   6.622  16.872  0.00  0.00    +0.000 A 
ATOM     25  S   UNL     1      50.245   5.717  18.311  0.00  0.00    +0.000 S 
ATOM     26  C   UNL     1      48.979   4.683  17.849  0.00  0.00    +0.000 A 
ATOM     27  N   UNL     1      48.598   3.642  18.639  0.00  0.00    +0.000 NA
ATOM     28  C   UNL     1      47.645   2.925  18.155  0.00  0.00    +0.000 A 
ATOM     29  N   UNL     1      47.024   3.154  16.952  0.00  0.00    +0.000 N 
ATOM     30  C   UNL     1      47.352   4.208  16.135  0.00  0.00    +0.000 A 
ATOM     31  O   UNL     1      46.743   4.415  15.091  0.00  0.00    +0.000 OA
ATOM     32  C   UNL     1      48.437   5.036  16.627  0.00  0.00    +0.000 A 
ATOM     33  H   UNL     1      46.270   2.563  16.639  0.00  0.00    +0.000 HD
ENDBRANCH  20  23
ENDBRANCH  18  19
ENDBRANCH   4  18
TORSDOF 7
ENDMDL
MODEL 2
REMARK VINA RESULT:    -7.279      2.147      2.527
REMARK INTER + INTRA:         -11.578
REMARK INTER:                 -10.537
REMARK INTRA:                  -1.041
REMARK UNBOUND:                -1.320
REMARK  Name = 
REMARK  8 active torsions:
REMARK  status: ('A' for Active; 'I' for Inactive)
REMARK    1  A    between atoms: C_1  and  C_2
REMARK    2  A    between atoms: C_2  and  N_3
REMARK    3  A    between atoms: C_2  and  C_25
REMARK    4  A    between atoms: N_3  and  C_4
REMARK    5  A    between atoms: C_4  and  C_5
REMARK    6  A    between atoms: C_8  and  C_9
REMARK    7  A    between atoms: C_9  and  N_10
REMARK    8  A    between atoms: C_11  and  C_13
REMARK                            x       y       z     vdW  Elec       q    Type
REMARK                         _______ _______ _______ _____ _____    ______ ____
ROOT
ATOM      1  C   UNL     1      45.095   6.373  11.670  0.00  0.00    +0.000 A 
ATOM      2  C   UNL     1      44.926   7.693  12.112  0.00  0.00    +0.000 A 
ATOM      3  C   UNL     1      45.892   8.307  12.917  0.00  0.00    +0.000 A 
ATOM      4  C   UNL     1      47.049   7.614  13.297  0.00  0.00    +0.000 A 
ATOM      5  C   UNL     1      47.214   6.291  12.867  0.00  0.00    +0.000 A 
ATOM      6  C   UNL     1      46.253   5.682  12.057  0.00  0.00    +0.000 A 
ENDROOT
BRANCH   1   7
ATOM      7  C   UNL     1      44.029   5.670  10.859  0.00  0.00    +0.000 C 
BRANCH   7   8
ATOM      8  N   UNL     1      44.537   5.160   9.584  0.00  0.00    +0.000 NA
ATOM      9  H   UNL     1      44.084   5.679   8.831  0.00  0.00    +0.000 HD
BRANCH   8  11
ATOM     10  C   UNL     1      44.004   2.966  10.688  0.00  0.00    +0.000 C 
ATOM     11  C   UNL     1      44.226   3.730   9.376  0.00  0.00    +0.000 C 
BRANCH  11  12
ATOM     12  C   UNL     1      45.331   3.046   8.579  0.00  0.00    +0.000 A 
ATOM     13  C   UNL     1      45.583   1.682   8.723  0.00  0.00    +0.000 A 
ATOM     14  N   UNL     1      46.525   1.021   8.007  0.00  0.00    +0.000 NA
ATOM     15  C   UNL     1      47.226   1.784   7.141  0.00  0.00    +0.000 A 
ATOM     16  C   UNL     1      46.998   3.142   6.998  0.00  0.00    +0.000 A 
ATOM     17  N   UNL     1      46.053   3.802   7.708  0.00  0.00    +0.000 NA
ENDBRANCH  11  12
ENDBRANCH   8  11
ENDBRANCH   7   8
ENDBRANCH   1   7
BRANCH   4  18
ATOM     18  C   UNL     1      48.073   8.248  14.199  0.00  0.00    +0.000 C 
BRANCH  18  19
ATOM     19  N   UNL     1      48.016   7.679  15.522  0.00  0.00    +0.000 N 
ATOM     20  C   UNL     1      49.002   6.849  15.983  0.00  0.00    +0.000 C 
ATOM     21  O   UNL     1      49.999   6.587  15.313  0.00  0.00    +0.000 OA
ATOM     22  H   UNL     1      47.115   7.695  15.991  0.00  0.00    +0.000 HD
BRANCH  20  23
ATOM     23  C   UNL     1      48.841   6.330  17.347  0.00  0.00    +0.000 A 
ATOM     24  C   UNL     1      49.164   5.008  17.622  0.00  0.00    +0.000 A 
ATOM     25  S   UNL     1      48.945   4.577  19.257  0.00  0.00    +0.000 S 
ATOM     26  C   UNL     1      48.370   6.128  19.647  0.00  0.00    +0.000 A 
ATOM     27  N   UNL     1      47.968   6.430  20.912  0.00  0.00    +0.000 NA
ATOM     28  C   UNL     1      47.531   7.632  21.061  0.00  0.00    +0.000 A 
ATOM     29  N   UNL     1      47.466   8.571  20.062  0.00  0.00    +0.000 N 
ATOM     30  C   UNL     1      47.888   8.323  18.779  0.00  0.00    +0.000 A 
ATOM     31  O   UNL     1      47.863   9.200  17.922  0.00  0.00    +0.000 OA
ATOM     32  C   UNL     1      48.370   6.974  18.554  0.00  0.00    +0.000 A 
ATOM     33  H   UNL     1      47.129   9.503  20.250  0.00  0.00    +0.000 HD
ENDBRANCH  20  23
ENDBRANCH  18  19
ENDBRANCH   4  18
TORSDOF 7
ENDMDL
MODEL 3
REMARK VINA RESULT:    -7.153      2.237      2.443
REMARK INTER + INTRA:         -11.399
REMARK INTER:                 -10.405
REMARK INTRA:                  -0.994
REMARK UNBOUND:                -1.320
REMARK  Name = 
REMARK  8 active torsions:
REMARK  status: ('A' for Active; 'I' for Inactive)
REMARK    1  A    between atoms: C_1  and  C_2
REMARK    2  A    between atoms: C_2  and  N_3
REMARK    3  A    between atoms: C_2  and  C_25
REMARK    4  A    between atoms: N_3  and  C_4
REMARK    5  A    between atoms: C_4  and  C_5
REMARK    6  A    between atoms: C_8  and  C_9
REMARK    7  A    between atoms: C_9  and  N_10
REMARK    8  A    between atoms: C_11  and  C_13
REMARK                            x       y       z     vdW  Elec       q    Type
REMARK                         _______ _______ _______ _____ _____    ______ ____
ROOT
ATOM      1  C   UNL     1      44.823   6.376  11.874  0.00  0.00    +0.000 A 
ATOM      2  C   UNL     1      44.869   7.765  11.688  0.00  0.00    +0.000 A 
ATOM      3  C   UNL     1      45.867   8.535  12.296  0.00  0.00    +0.000 A 
ATOM      4  C   UNL     1      46.841   7.932  13.101  0.00  0.00    +0.000 A 
ATOM      5  C   UNL     1      46.790   6.546  13.298  0.00  0.00    +0.000 A 
ATOM      6  C   UNL     1      45.798   5.777  12.685  0.00  0.00    +0.000 A 
ENDROOT
BRANCH   1   7
ATOM      7  C   UNL     1      43.711   5.536  11.283  0.00  0.00    +0.000 C 
BRANCH   7   8
ATOM      8  N   UNL     1      43.982   5.136   9.901  0.00  0.00    +0.000 NA
ATOM      9  H   UNL     1      43.234   5.505   9.311  0.00  0.00    +0.000 HD
BRANCH   8  11
ATOM     10  C   UNL     1      44.098   2.903  11.050  0.00  0.00    +0.000 C 
ATOM     11  C   UNL     1      43.993   3.669   9.723  0.00  0.00    +0.000 C 
BRANCH  11  12
ATOM     12  C   UNL     1      45.135   3.243   8.808  0.00  0.00    +0.000 A 
ATOM     13  C   UNL     1      45.558   1.916   8.754  0.00  0.00    +0.000 A 
ATOM     14  N   UNL     1      46.540   1.481   7.926  0.00  0.00    +0.000 NA
ATOM     15  C   UNL     1      47.101   2.436   7.155  0.00  0.00    +0.000 A 
ATOM     16  C   UNL     1      46.703   3.761   7.208  0.00  0.00    +0.000 A 
ATOM     17  N   UNL     1      45.719   4.195   8.029  0.00  0.00    +0.000 NA
ENDBRANCH  11  12
ENDBRANCH   8  11
ENDBRANCH   7   8
ENDBRANCH   1   7
BRANCH   4  18
ATOM     18  C   UNL     1      47.892   8.755  13.796  0.00  0.00    +0.000 C 
BRANCH  18  19
ATOM     19  N   UNL     1      47.655   8.798  15.217  0.00  0.00    +0.000 N 
ATOM     20  C   UNL     1      48.576   8.313  16.107  0.00  0.00    +0.000 C 
ATOM     21  O   UNL     1      49.659   7.862  15.744  0.00  0.00    +0.000 OA
ATOM     22  H   UNL     1      46.697   8.949  15.520  0.00  0.00    +0.000 HD
BRANCH  20  23
ATOM     23  C   UNL     1      48.229   8.413  17.530  0.00  0.00    +0.000 A 
ATOM     24  C   UNL     1      48.100   9.663  18.121  0.00  0.00    +0.000 A 
ATOM     25  S   UNL     1      47.668   9.600  19.769  0.00  0.00    +0.000 S 
ATOM     26  C   UNL     1      47.679   7.901  19.765  0.00  0.00    +0.000 A 
ATOM     27  N   UNL     1      47.416   7.194  20.897  0.00  0.00    +0.000 NA
ATOM     28  C   UNL     1      47.485   5.916  20.758  0.00  0.00    +0.000 A 
ATOM     29  N   UNL     1      47.784   5.271  19.584  0.00  0.00    +0.000 N 
ATOM     30  C   UNL     1      48.026   5.938  18.409  0.00  0.00    +0.000 A 
ATOM     31  O   UNL     1      48.240   5.331  17.366  0.00  0.00    +0.000 OA
ATOM     32  C   UNL     1      47.982   7.385  18.518  0.00  0.00    +0.000 A 
ATOM     33  H   UNL     1      47.803   4.263  19.539  0.00  0.00    +0.000 HD
ENDBRANCH  20  23
ENDBRANCH  18  19
ENDBRANCH   4  18
TORSDOF 7
ENDMDL
MODEL 4
REMARK VINA RESULT:    -7.105      1.559      1.716
REMARK INTER + INTRA:         -11.332
REMARK INTER:                 -10.287
REMARK INTRA:                  -1.045
REMARK UNBOUND:                -1.320
REMARK  Name = 
REMARK  8 active torsions:
REMARK  status: ('A' for Active; 'I' for Inactive)
REMARK    1  A    between atoms: C_1  and  C_2
REMARK    2  A    between atoms: C_2  and  N_3
REMARK    3  A    between atoms: C_2  and  C_25
REMARK    4  A    between atoms: N_3  and  C_4
REMARK    5  A    between atoms: C_4  and  C_5
REMARK    6  A    between atoms: C_8  and  C_9
REMARK    7  A    between atoms: C_9  and  N_10
REMARK    8  A    between atoms: C_11  and  C_13
REMARK                            x       y       z     vdW  Elec       q    Type
REMARK                         _______ _______ _______ _____ _____    ______ ____
ROOT
ATOM      1  C   UNL     1      45.268   6.334  11.659  0.00  0.00    +0.000 A 
ATOM      2  C   UNL     1      45.210   7.729  11.790  0.00  0.00    +0.000 A 
ATOM      3  C   UNL     1      46.105   8.406  12.625  0.00  0.00    +0.000 A 
ATOM      4  C   UNL     1      47.078   7.703  13.347  0.00  0.00    +0.000 A 
ATOM      5  C   UNL     1      47.129   6.308  13.227  0.00  0.00    +0.000 A 
ATOM      6  C   UNL     1      46.241   5.634  12.387  0.00  0.00    +0.000 A 
ENDROOT
BRANCH   1   7
ATOM      7  C   UNL     1      44.263   5.578  10.816  0.00  0.00    +0.000 C 
BRANCH   7   8
ATOM      8  N   UNL     1      44.834   5.101   9.555  0.00  0.00    +0.000 NA
ATOM      9  H   UNL     1      44.478   5.692   8.801  0.00  0.00    +0.000 HD
BRANCH   8  11
ATOM     10  C   UNL     1      44.114   2.881  10.488  0.00  0.00    +0.000 C 
ATOM     11  C   UNL     1      44.441   3.711   9.239  0.00  0.00    +0.000 C 
BRANCH  11  12
ATOM     12  C   UNL     1      45.533   3.007   8.442  0.00  0.00    +0.000 A 
ATOM     13  C   UNL     1      45.750   1.637   8.574  0.00  0.00    +0.000 A 
ATOM     14  N   UNL     1      46.680   0.959   7.857  0.00  0.00    +0.000 NA
ATOM     15  C   UNL     1      47.405   1.713   7.003  0.00  0.00    +0.000 A 
ATOM     16  C   UNL     1      47.212   3.077   6.873  0.00  0.00    +0.000 A 
ATOM     17  N   UNL     1      46.280   3.754   7.583  0.00  0.00    +0.000 NA
ENDBRANCH  11  12
ENDBRANCH   8  11
ENDBRANCH   7   8
ENDBRANCH   1   7
BRANCH   4  18
ATOM     18  C   UNL     1      48.017   8.414  14.283  0.00  0.00    +0.000 C 
BRANCH  18  19
ATOM     19  N   UNL     1      48.984   7.499  14.837  0.00  0.00    +0.000 N 
ATOM     20  C   UNL     1      49.138   7.361  16.190  0.00  0.00    +0.000 C 
ATOM     21  O   UNL     1      48.435   7.972  16.992  0.00  0.00    +0.000 OA
ATOM     22  H   UNL     1      49.713   7.167  14.212  0.00  0.00    +0.000 HD
BRANCH  20  23
ATOM     23  C   UNL     1      50.150   6.398  16.641  0.00  0.00    +0.000 A 
ATOM     24  C   UNL     1      51.472   6.803  16.779  0.00  0.00    +0.000 A 
ATOM     25  S   UNL     1      52.509   5.570  17.337  0.00  0.00    +0.000 S 
ATOM     26  C   UNL     1      51.241   4.440  17.372  0.00  0.00    +0.000 A 
ATOM     27  N   UNL     1      51.461   3.149  17.740  0.00  0.00    +0.000 NA
ATOM     28  C   UNL     1      50.418   2.395  17.697  0.00  0.00    +0.000 A 
ATOM     29  N   UNL     1      49.164   2.814  17.328  0.00  0.00    +0.000 N 
ATOM     30  C   UNL     1      48.886   4.113  16.979  0.00  0.00    +0.000 A 
ATOM     31  O   UNL     1      47.745   4.466  16.703  0.00  0.00    +0.000 OA
ATOM     32  C   UNL     1      50.035   4.999  16.991  0.00  0.00    +0.000 A 
ATOM     33  H   UNL     1      48.384   2.175  17.333  0.00  0.00    +0.000 HD
ENDBRANCH  20  23
ENDBRANCH  18  19
ENDBRANCH   4  18
TORSDOF 7
ENDMDL
MODEL 5
REMARK VINA RESULT:    -7.090      2.825      8.427
REMARK INTER + INTRA:         -11.311
REMARK INTER:                  -9.816
REMARK INTRA:                  -1.494
REMARK UNBOUND:                -1.320
REMARK  Name = 
REMARK  8 active torsions:
REMARK  status: ('A' for Active; 'I' for Inactive)
REMARK    1  A    between atoms: C_1  and  C_2
REMARK    2  A    between atoms: C_2  and  N_3
REMARK    3  A    between atoms: C_2  and  C_25
REMARK    4  A    between atoms: N_3  and  C_4
REMARK    5  A    between atoms: C_4  and  C_5
REMARK    6  A    between atoms: C_8  and  C_9
REMARK    7  A    between atoms: C_9  and  N_10
REMARK    8  A    between atoms: C_11  and  C_13
REMARK                            x       y       z     vdW  Elec       q    Type
REMARK                         _______ _______ _______ _____ _____    ______ ____
ROOT
ATOM      1  C   UNL     1      48.855   8.025  16.002  0.00  0.00    +0.000 A 
ATOM      2  C   UNL     1      49.375   7.016  15.178  0.00  0.00    +0.000 A 
ATOM      3  C   UNL     1      49.005   6.932  13.831  0.00  0.00    +0.000 A 
ATOM      4  C   UNL     1      48.107   7.855  13.279  0.00  0.00    +0.000 A 
ATOM      5  C   UNL     1      47.576   8.855  14.104  0.00  0.00    +0.000 A 
ATOM      6  C   UNL     1      47.953   8.944  15.446  0.00  0.00    +0.000 A 
ENDROOT
BRANCH   1   7
ATOM      7  C   UNL     1      49.189   8.089  17.477  0.00  0.00    +0.000 C 
BRANCH   7   8
ATOM      8  N   UNL     1      48.158   7.471  18.313  0.00  0.00    +0.000 NA
ATOM      9  H   UNL     1      47.842   8.165  18.993  0.00  0.00    +0.000 HD
BRANCH   8  11
ATOM     10  C   UNL     1      50.157   6.412  19.408  0.00  0.00    +0.000 C 
ATOM     11  C   UNL     1      48.662   6.311  19.078  0.00  0.00    +0.000 C 
BRANCH  11  12
ATOM     12  C   UNL     1      48.402   5.012  18.325  0.00  0.00    +0.000 A 
ATOM     13  C   UNL     1      47.137   4.712  17.821  0.00  0.00    +0.000 A 
ATOM     14  N   UNL     1      46.867   3.590  17.110  0.00  0.00    +0.000 NA
ATOM     15  C   UNL     1      47.916   2.761  16.929  0.00  0.00    +0.000 A 
ATOM     16  C   UNL     1      49.174   3.036  17.436  0.00  0.00    +0.000 A 
ATOM     17  N   UNL     1      49.447   4.159  18.141  0.00  0.00    +0.000 NA
ENDBRANCH  11  12
ENDBRANCH   8  11
ENDBRANCH   7   8
ENDBRANCH   1   7
BRANCH   4  18
ATOM     18  C   UNL     1      47.666   7.748  11.845  0.00  0.00    +0.000 C 
BRANCH  18  19
ATOM     19  N   UNL     1      46.947   6.519  11.617  0.00  0.00    +0.000 N 
ATOM     20  C   UNL     1      45.580   6.473  11.682  0.00  0.00    +0.000 C 
ATOM     21  O   UNL     1      44.902   7.477  11.889  0.00  0.00    +0.000 OA
ATOM     22  H   UNL     1      47.481   5.657  11.673  0.00  0.00    +0.000 HD
BRANCH  20  23
ATOM     23  C   UNL     1      44.955   5.169  11.430  0.00  0.00    +0.000 A 
ATOM     24  C   UNL     1      44.215   4.556  12.433  0.00  0.00    +0.000 A 
ATOM     25  S   UNL     1      43.536   3.063  11.966  0.00  0.00    +0.000 S 
ATOM     26  C   UNL     1      44.241   3.160  10.423  0.00  0.00    +0.000 A 
ATOM     27  N   UNL     1      44.076   2.163   9.512  0.00  0.00    +0.000 NA
ATOM     28  C   UNL     1      44.686   2.354   8.394  0.00  0.00    +0.000 A 
ATOM     29  N   UNL     1      45.443   3.459   8.094  0.00  0.00    +0.000 N 
ATOM     30  C   UNL     1      45.614   4.504   8.969  0.00  0.00    +0.000 A 
ATOM     31  O   UNL     1      46.255   5.500   8.651  0.00  0.00    +0.000 OA
ATOM     32  C   UNL     1      44.963   4.327  10.253  0.00  0.00    +0.000 A 
ATOM     33  H   UNL     1      45.881   3.555   7.191  0.00  0.00    +0.000 HD
ENDBRANCH  20  23
ENDBRANCH  18  19
ENDBRANCH   4  18
TORSDOF 7
ENDMDL
MODEL 6
REMARK VINA RESULT:    -6.854      3.301      8.112
REMARK INTER + INTRA:         -10.979
REMARK INTER:                  -9.595
REMARK INTRA:                  -1.383
REMARK UNBOUND:                -1.320
REMARK  Name = 
REMARK  8 active torsions:
REMARK  status: ('A' for Active; 'I' for Inactive)
REMARK    1  A    between atoms: C_1  and  C_2
REMARK    2  A    between atoms: C_2  and  N_3
REMARK    3  A    between atoms: C_2  and  C_25
REMARK    4  A    between atoms: N_3  and  C_4
REMARK    5  A    between atoms: C_4  and  C_5
REMARK    6  A    between atoms: C_8  and  C_9
REMARK    7  A    between atoms: C_9  and  N_10
REMARK    8  A    between atoms: C_11  and  C_13
REMARK                            x       y       z     vdW  Elec       q    Type
REMARK                         _______ _______ _______ _____ _____    ______ ____
ROOT
ATOM      1  C   UNL     1      48.682   7.857  16.303  0.00  0.00    +0.000 A 
ATOM      2  C   UNL     1      48.750   6.715  15.491  0.00  0.00    +0.000 A 
ATOM      3  C   UNL     1      48.601   6.815  14.103  0.00  0.00    +0.000 A 
ATOM      4  C   UNL     1      48.381   8.059  13.498  0.00  0.00    +0.000 A 
ATOM      5  C   UNL     1      48.299   9.199  14.308  0.00  0.00    +0.000 A 
ATOM      6  C   UNL     1      48.456   9.099  15.692  0.00  0.00    +0.000 A 
ENDROOT
BRANCH   1   7
ATOM      7  C   UNL     1      48.769   7.759  17.811  0.00  0.00    +0.000 C 
BRANCH   7   8
ATOM      8  N   UNL     1      47.504   7.347  18.421  0.00  0.00    +0.000 NA
ATOM      9  H   UNL     1      47.165   8.116  19.001  0.00  0.00    +0.000 HD
BRANCH   8  11
ATOM     10  C   UNL     1      48.754   6.343  20.358  0.00  0.00    +0.000 C 
ATOM     11  C   UNL     1      47.652   6.169  19.304  0.00  0.00    +0.000 C 
BRANCH  11  12
ATOM     12  C   UNL     1      47.933   4.913  18.488  0.00  0.00    +0.000 A 
ATOM     13  C   UNL     1      49.173   4.279  18.548  0.00  0.00    +0.000 A 
ATOM     14  N   UNL     1      49.457   3.138  17.874  0.00  0.00    +0.000 NA
ATOM     15  C   UNL     1      48.450   2.654  17.117  0.00  0.00    +0.000 A 
ATOM     16  C   UNL     1      47.218   3.280  17.035  0.00  0.00    +0.000 A 
ATOM     17  N   UNL     1      46.931   4.417  17.712  0.00  0.00    +0.000 NA
ENDBRANCH  11  12
ENDBRANCH   8  11
ENDBRANCH   7   8
ENDBRANCH   1   7
BRANCH   4  18
ATOM     18  C   UNL     1      48.174   8.174  12.012  0.00  0.00    +0.000 C 
BRANCH  18  19
ATOM     19  N   UNL     1      47.502   7.008  11.494  0.00  0.00    +0.000 N 
ATOM     20  C   UNL     1      46.150   7.005  11.275  0.00  0.00    +0.000 C 
ATOM     21  O   UNL     1      45.457   8.002  11.465  0.00  0.00    +0.000 OA
ATOM     22  H   UNL     1      48.002   6.126  11.549  0.00  0.00    +0.000 HD
BRANCH  20  23
ATOM     23  C   UNL     1      45.573   5.765  10.743  0.00  0.00    +0.000 A 
ATOM     24  C   UNL     1      45.724   5.459   9.397  0.00  0.00    +0.000 A 
ATOM     25  S   UNL     1      45.019   3.971   8.951  0.00  0.00    +0.000 S 
ATOM     26  C   UNL     1      44.451   3.703  10.530  0.00  0.00    +0.000 A 
ATOM     27  N   UNL     1      43.723   2.594  10.835  0.00  0.00    +0.000 NA
ATOM     28  C   UNL     1      43.334   2.531  12.061  0.00  0.00    +0.000 A 
ATOM     29  N   UNL     1      43.614   3.471  13.021  0.00  0.00    +0.000 N 
ATOM     30  C   UNL     1      44.371   4.589  12.770  0.00  0.00    +0.000 A 
ATOM     31  O   UNL     1      44.645   5.384  13.662  0.00  0.00    +0.000 OA
ATOM     32  C   UNL     1      44.815   4.718  11.395  0.00  0.00    +0.000 A 
ATOM     33  H   UNL     1      43.294   3.351  13.970  0.00  0.00    +0.000 HD
ENDBRANCH  20  23
ENDBRANCH  18  19
ENDBRANCH   4  18
TORSDOF 7
ENDMDL
MODEL 7
REMARK VINA RESULT:    -6.294      4.849      7.551
REMARK INTER + INTRA:         -10.189
REMARK INTER:                  -9.141
REMARK INTRA:                  -1.048
REMARK UNBOUND:                -1.320
REMARK  Name = 
REMARK  8 active torsions:
REMARK  status: ('A' for Active; 'I' for Inactive)
REMARK    1  A    between atoms: C_1  and  C_2
REMARK    2  A    between atoms: C_2  and  N_3
REMARK    3  A    between atoms: C_2  and  C_25
REMARK    4  A    between atoms: N_3  and  C_4
REMARK    5  A    between atoms: C_4  and  C_5
REMARK    6  A    between atoms: C_8  and  C_9
REMARK    7  A    between atoms: C_9  and  N_10
REMARK    8  A    between atoms: C_11  and  C_13
REMARK                            x       y       z     vdW  Elec       q    Type
REMARK                         _______ _______ _______ _____ _____    ______ ____
ROOT
ATOM      1  C   UNL     1      50.754   8.422  12.250  0.00  0.00    +0.000 A 
ATOM      2  C   UNL     1      50.110   9.053  13.325  0.00  0.00    +0.000 A 
ATOM      3  C   UNL     1      48.731   8.915  13.513  0.00  0.00    +0.000 A 
ATOM      4  C   UNL     1      47.964   8.143  12.630  0.00  0.00    +0.000 A 
ATOM      5  C   UNL     1      48.603   7.523  11.548  0.00  0.00    +0.000 A 
ATOM      6  C   UNL     1      49.982   7.654  11.367  0.00  0.00    +0.000 A 
ENDROOT
BRANCH   1   7
ATOM      7  C   UNL     1      52.232   8.618  11.990  0.00  0.00    +0.000 C 
BRANCH   7   8
ATOM      8  N   UNL     1      52.842   7.466  11.324  0.00  0.00    +0.000 NA
ATOM      9  H   UNL     1      53.419   6.972  12.007  0.00  0.00    +0.000 HD
BRANCH   8  11
ATOM     10  C   UNL     1      53.441   9.268   9.676  0.00  0.00    +0.000 C 
ATOM     11  C   UNL     1      53.728   7.856  10.206  0.00  0.00    +0.000 C 
BRANCH  11  12
ATOM     12  C   UNL     1      53.622   6.859   9.058  0.00  0.00    +0.000 A 
ATOM     13  C   UNL     1      52.521   6.860   8.203  0.00  0.00    +0.000 A 
ATOM     14  N   UNL     1      52.401   6.022   7.145  0.00  0.00    +0.000 NA
ATOM     15  C   UNL     1      53.428   5.162   6.977  0.00  0.00    +0.000 A 
ATOM     16  C   UNL     1      54.521   5.138   7.826  0.00  0.00    +0.000 A 
ATOM     17  N   UNL     1      54.645   5.979   8.880  0.00  0.00    +0.000 NA
ENDBRANCH  11  12
ENDBRANCH   8  11
ENDBRANCH   7   8
ENDBRANCH   1   7
BRANCH   4  18
ATOM     18  C   UNL     1      46.473   8.024  12.795  0.00  0.00    +0.000 C 
BRANCH  18  19
ATOM     19  N   UNL     1      46.021   6.702  12.443  0.00  0.00    +0.000 N 
ATOM     20  C   UNL     1      44.859   6.510  11.743  0.00  0.00    +0.000 C 
ATOM     21  O   UNL     1      44.175   7.451  11.345  0.00  0.00    +0.000 OA
ATOM     22  H   UNL     1      46.436   5.923  12.948  0.00  0.00    +0.000 HD
BRANCH  20  23
ATOM     23  C   UNL     1      44.498   5.121  11.438  0.00  0.00    +0.000 A 
ATOM     24  C   UNL     1      43.734   4.394  12.342  0.00  0.00    +0.000 A 
ATOM     25  S   UNL     1      43.382   2.809  11.820  0.00  0.00    +0.000 S 
ATOM     26  C   UNL     1      44.272   3.022  10.389  0.00  0.00    +0.000 A 
ATOM     27  N   UNL     1      44.403   2.011   9.487  0.00  0.00    +0.000 NA
ATOM     28  C   UNL     1      45.125   2.301   8.461  0.00  0.00    +0.000 A 
ATOM     29  N   UNL     1      45.726   3.515   8.243  0.00  0.00    +0.000 N 
ATOM     30  C   UNL     1      45.598   4.574   9.108  0.00  0.00    +0.000 A 
ATOM     31  O   UNL     1      46.106   5.662   8.860  0.00  0.00    +0.000 OA
ATOM     32  C   UNL     1      44.810   4.292  10.293  0.00  0.00    +0.000 A 
ATOM     33  H   UNL     1      46.265   3.683   7.408  0.00  0.00    +0.000 HD
ENDBRANCH  20  23
ENDBRANCH  18  19
ENDBRANCH   4  18
TORSDOF 7
ENDMDL
MODEL 8
REMARK VINA RESULT:    -6.228      4.145      5.700
REMARK INTER + INTRA:         -10.096
REMARK INTER:                  -8.876
REMARK INTRA:                  -1.220
REMARK UNBOUND:                -1.320
REMARK  Name = 
REMARK  8 active torsions:
REMARK  status: ('A' for Active; 'I' for Inactive)
REMARK    1  A    between atoms: C_1  and  C_2
REMARK    2  A    between atoms: C_2  and  N_3
REMARK    3  A    between atoms: C_2  and  C_25
REMARK    4  A    between atoms: N_3  and  C_4
REMARK    5  A    between atoms: C_4  and  C_5
REMARK    6  A    between atoms: C_8  and  C_9
REMARK    7  A    between atoms: C_9  and  N_10
REMARK    8  A    between atoms: C_11  and  C_13
REMARK                            x       y       z     vdW  Elec       q    Type
REMARK                         _______ _______ _______ _____ _____    ______ ____
ROOT
ATOM      1  C   UNL     1      45.605   6.311  12.885  0.00  0.00    +0.000 A 
ATOM      2  C   UNL     1      44.850   7.273  12.198  0.00  0.00    +0.000 A 
ATOM      3  C   UNL     1      45.400   8.519  11.879  0.00  0.00    +0.000 A 
ATOM      4  C   UNL     1      46.718   8.830  12.240  0.00  0.00    +0.000 A 
ATOM      5  C   UNL     1      47.469   7.875  12.938  0.00  0.00    +0.000 A 
ATOM      6  C   UNL     1      46.921   6.629  13.248  0.00  0.00    +0.000 A 
ENDROOT
BRANCH   1   7
ATOM      7  C   UNL     1      45.004   4.985  13.300  0.00  0.00    +0.000 C 
BRANCH   7   8
ATOM      8  N   UNL     1      45.320   3.907  12.362  0.00  0.00    +0.000 NA
ATOM      9  H   UNL     1      46.195   4.141  11.891  0.00  0.00    +0.000 HD
BRANCH   8  11
ATOM     10  C   UNL     1      43.344   2.565  11.577  0.00  0.00    +0.000 C 
ATOM     11  C   UNL     1      44.292   3.743  11.312  0.00  0.00    +0.000 C 
BRANCH  11  12
ATOM     12  C   UNL     1      44.938   3.568   9.943  0.00  0.00    +0.000 A 
ATOM     13  C   UNL     1      45.360   4.669   9.200  0.00  0.00    +0.000 A 
ATOM     14  N   UNL     1      45.978   4.563   7.998  0.00  0.00    +0.000 NA
ATOM     15  C   UNL     1      46.147   3.300   7.552  0.00  0.00    +0.000 A 
ATOM     16  C   UNL     1      45.720   2.197   8.271  0.00  0.00    +0.000 A 
ATOM     17  N   UNL     1      45.109   2.301   9.474  0.00  0.00    +0.000 NA
ENDBRANCH  11  12
ENDBRANCH   8  11
ENDBRANCH   7   8
ENDBRANCH   1   7
BRANCH   4  18
ATOM     18  C   UNL     1      47.306  10.183  11.943  0.00  0.00    +0.000 C 
BRANCH  18  19
ATOM     19  N   UNL     1      48.613  10.057  11.348  0.00  0.00    +0.000 N 
ATOM     20  C   UNL     1      49.726  10.567  11.961  0.00  0.00    +0.000 C 
ATOM     21  O   UNL     1      49.672  11.112  13.061  0.00  0.00    +0.000 OA
ATOM     22  H   UNL     1      48.647   9.823  10.360  0.00  0.00    +0.000 HD
BRANCH  20  23
ATOM     23  C   UNL     1      51.004  10.377  11.265  0.00  0.00    +0.000 A 
ATOM     24  C   UNL     1      51.756  11.484  10.895  0.00  0.00    +0.000 A 
ATOM     25  S   UNL     1      53.223  11.086  10.122  0.00  0.00    +0.000 S 
ATOM     26  C   UNL     1      52.887   9.423  10.215  0.00  0.00    +0.000 A 
ATOM     27  N   UNL     1      53.745   8.503   9.697  0.00  0.00    +0.000 NA
ATOM     28  C   UNL     1      53.354   7.282   9.813  0.00  0.00    +0.000 A 
ATOM     29  N   UNL     1      52.183   6.888  10.411  0.00  0.00    +0.000 N 
ATOM     30  C   UNL     1      51.300   7.776  10.975  0.00  0.00    +0.000 A 
ATOM     31  O   UNL     1      50.287   7.388  11.546  0.00  0.00    +0.000 OA
ATOM     32  C   UNL     1      51.686   9.169  10.851  0.00  0.00    +0.000 A 
ATOM     33  H   UNL     1      51.944   5.912  10.485  0.00  0.00    +0.000 HD
ENDBRANCH  20  23
ENDBRANCH  18  19
ENDBRANCH   4  18
TORSDOF 7
ENDMDL
MODEL 9
REMARK VINA RESULT:    -5.937      5.225      7.421
REMARK INTER + INTRA:          -9.687
REMARK INTER:                  -8.658
REMARK INTRA:                  -1.029
REMARK UNBOUND:                -1.320
REMARK  Name = 
REMARK  8 active torsions:
REMARK  status: ('A' for Active; 'I' for Inactive)
REMARK    1  A    between atoms: C_1  and  C_2
REMARK    2  A    between atoms: C_2  and  N_3
REMARK    3  A    between atoms: C_2  and  C_25
REMARK    4  A    between atoms: N_3  and  C_4
REMARK    5  A    between atoms: C_4  and  C_5
REMARK    6  A    between atoms: C_8  and  C_9
REMARK    7  A    between atoms: C_9  and  N_10
REMARK    8  A    between atoms: C_11  and  C_13
REMARK                            x       y       z     vdW  Elec       q    Type
REMARK                         _______ _______ _______ _____ _____    ______ ____
ROOT
ATOM      1  C   UNL     1      51.137   9.593  10.965  0.00  0.00    +0.000 A 
ATOM      2  C   UNL     1      50.944   8.222  11.187  0.00  0.00    +0.000 A 
ATOM      3  C   UNL     1      49.760   7.752  11.767  0.00  0.00    +0.000 A 
ATOM      4  C   UNL     1      48.744   8.643  12.137  0.00  0.00    +0.000 A 
ATOM      5  C   UNL     1      48.941  10.014  11.928  0.00  0.00    +0.000 A 
ATOM      6  C   UNL     1      50.120  10.481  11.342  0.00  0.00    +0.000 A 
ENDROOT
BRANCH   1   7
ATOM      7  C   UNL     1      52.439  10.126  10.406  0.00  0.00    +0.000 C 
BRANCH   7   8
ATOM      8  N   UNL     1      53.416   9.066  10.151  0.00  0.00    +0.000 NA
ATOM      9  H   UNL     1      54.287   9.317  10.622  0.00  0.00    +0.000 HD
BRANCH   8  11
ATOM     10  C   UNL     1      52.848   9.783   7.810  0.00  0.00    +0.000 C 
ATOM     11  C   UNL     1      53.729   8.909   8.714  0.00  0.00    +0.000 C 
BRANCH  11  12
ATOM     12  C   UNL     1      53.596   7.453   8.287  0.00  0.00    +0.000 A 
ATOM     13  C   UNL     1      52.760   7.085   7.234  0.00  0.00    +0.000 A 
ATOM     14  N   UNL     1      52.640   5.810   6.790  0.00  0.00    +0.000 NA
ATOM     15  C   UNL     1      53.385   4.901   7.454  0.00  0.00    +0.000 A 
ATOM     16  C   UNL     1      54.209   5.248   8.511  0.00  0.00    +0.000 A 
ATOM     17  N   UNL     1      54.334   6.522   8.952  0.00  0.00    +0.000 NA
ENDBRANCH  11  12
ENDBRANCH   8  11
ENDBRANCH   7   8
ENDBRANCH   1   7
BRANCH   4  18
ATOM     18  C   UNL     1      47.486   8.154  12.802  0.00  0.00    +0.000 C 
BRANCH  18  19
ATOM     19  N   UNL     1      46.976   6.980  12.139  0.00  0.00    +0.000 N 
ATOM     20  C   UNL     1      45.804   7.015  11.433  0.00  0.00    +0.000 C 
ATOM     21  O   UNL     1      45.158   8.051  11.293  0.00  0.00    +0.000 OA
ATOM     22  H   UNL     1      47.361   6.085  12.427  0.00  0.00    +0.000 HD
BRANCH  20  23
ATOM     23  C   UNL     1      45.383   5.761  10.797  0.00  0.00    +0.000 A 
ATOM     24  C   UNL     1      45.685   5.532   9.461  0.00  0.00    +0.000 A 
ATOM     25  S   UNL     1      45.149   4.018   8.888  0.00  0.00    +0.000 S 
ATOM     26  C   UNL     1      44.456   3.632  10.390  0.00  0.00    +0.000 A 
ATOM     27  N   UNL     1      43.794   2.458  10.577  0.00  0.00    +0.000 NA
ATOM     28  C   UNL     1      43.296   2.306  11.755  0.00  0.00    +0.000 A 
ATOM     29  N   UNL     1      43.407   3.217  12.775  0.00  0.00    +0.000 N 
ATOM     30  C   UNL     1      44.091   4.401  12.645  0.00  0.00    +0.000 A 
ATOM     31  O   UNL     1      44.214   5.170  13.591  0.00  0.00    +0.000 OA
ATOM     32  C   UNL     1      44.653   4.629  11.327  0.00  0.00    +0.000 A 
ATOM     33  H   UNL     1      43.008   3.028  13.682  0.00  0.00    +0.000 HD
ENDBRANCH  20  23
ENDBRANCH  18  19
ENDBRANCH   4  18
TORSDOF 7
ENDMDL
