MODEL 1
REMARK VINA RESULT:    -8.504      0.000      0.000
REMARK INTER + INTRA:         -12.106
REMARK INTER:                 -11.487
REMARK INTRA:                  -0.619
REMARK UNBOUND:                -0.619
REMARK  Name = 
REMARK  6 active torsions:
REMARK  status: ('A' for Active; 'I' for Inactive)
REMARK    1  A    between atoms: C_2  and  C_3
REMARK    2  A    between atoms: N_7  and  C_8
REMARK    3  A    between atoms: C_8  and  C_9
REMARK    4  A    between atoms: C_9  and  C_10
REMARK    5  A    between atoms: C_14  and  O_15
REMARK    6  A    between atoms: O_15  and  C_16
REMARK                            x       y       z     vdW  Elec       q    Type
REMARK                         _______ _______ _______ _____ _____    ______ ____
ROOT
ATOM      1  C   UNL     1      43.198   5.114  12.568  0.00  0.00    +0.000 C 
ENDROOT
BRANCH   1   2
ATOM      2  C   UNL     1      44.647   5.282  12.965  0.00  0.00    +0.000 A 
ATOM      3  C   UNL     1      45.327   6.454  12.648  0.00  0.00    +0.000 A 
ATOM      4  C   UNL     1      46.660   6.579  13.032  0.00  0.00    +0.000 A 
ATOM      5  C   UNL     1      47.280   5.532  13.708  0.00  0.00    +0.000 A 
ATOM      6  C   UNL     1      46.530   4.405  13.990  0.00  0.00    +0.000 A 
ATOM      7  N   UNL     1      45.239   4.263  13.638  0.00  0.00    +0.000 NA
BRANCH   6   8
ATOM      8  O   UNL     1      47.159   3.361  14.636  0.00  0.00    +0.000 OA
BRANCH   8   9
ATOM      9  C   UNL     1      47.857   3.699  15.857  0.00  0.00    +0.000 C 
ATOM     10  C   UNL     1      48.573   2.502  16.538  0.00  0.00    +0.000 C 
ATOM     11  C   UNL     1      48.152   3.079  17.898  0.00  0.00    +0.000 C 
ATOM     12  C   UNL     1      47.038   3.841  17.165  0.00  0.00    +0.000 C 
ENDBRANCH   8   9
ENDBRANCH   6   8
ENDBRANCH   1   2
BRANCH   1  13
ATOM     13  C   UNL     1      43.064   4.323  11.268  0.00  0.00    +0.000 C 
BRANCH  13  18
ATOM     14  C   UNL     1      46.401   2.614   7.801  0.00  0.00    +0.000 A 
ATOM     15  C   UNL     1      45.686   1.953   8.792  0.00  0.00    +0.000 A 
ATOM     16  C   UNL     1      44.833   2.690   9.612  0.00  0.00    +0.000 A 
ATOM     17  C   UNL     1      44.709   4.068   9.437  0.00  0.00    +0.000 A 
ATOM     18  N   UNL     1      43.893   4.853  10.207  0.00  0.00    +0.000 N 
ATOM     19  N   UNL     1      45.400   4.713   8.478  0.00  0.00    +0.000 NA
ATOM     20  C   UNL     1      46.223   3.982   7.685  0.00  0.00    +0.000 A 
ATOM     21  H   UNL     1      43.917   5.839   9.985  0.00  0.00    +0.000 HD
BRANCH  14  23
ATOM     22  N   UNL     1      48.004   1.339   6.225  0.00  0.00    +0.000 NA
ATOM     23  C   UNL     1      47.289   1.912   6.933  0.00  0.00    +0.000 C 
ENDBRANCH  14  23
ENDBRANCH  13  18
ENDBRANCH   1  13
TORSDOF 6
ENDMDL
MODEL 2
REMARK VINA RESULT:    -7.786      2.049      3.619
REMARK INTER + INTRA:         -11.136
REMARK INTER:                 -10.114
REMARK INTRA:                  -1.022
REMARK UNBOUND:                -0.619
REMARK  Name = 
REMARK  6 active torsions:
REMARK  status: ('A' for Active; 'I' for Inactive)
REMARK    1  A    between atoms: C_2  and  C_3
REMARK    2  A    between atoms: N_7  and  C_8
REMARK    3  A    between atoms: C_8  and  C_9
REMARK    4  A    between atoms: C_9  and  C_10
REMARK    5  A    between atoms: C_14  and  O_15
REMARK    6  A    between atoms: O_15  and  C_16
REMARK                            x       y       z     vdW  Elec       q    Type
REMARK                         _______ _______ _______ _____ _____    ______ ____
ROOT
ATOM      1  C   UNL     1      43.217   5.020  12.534  0.00  0.00    +0.000 C 
ENDROOT
BRANCH   1   2
ATOM      2  C   UNL     1      44.674   5.320  12.811  0.00  0.00    +0.000 A 
ATOM      3  C   UNL     1      45.439   4.430  13.559  0.00  0.00    +0.000 A 
ATOM      4  C   UNL     1      46.779   4.733  13.792  0.00  0.00    +0.000 A 
ATOM      5  C   UNL     1      47.312   5.915  13.286  0.00  0.00    +0.000 A 
ATOM      6  C   UNL     1      46.485   6.739  12.547  0.00  0.00    +0.000 A 
ATOM      7  N   UNL     1      45.190   6.465  12.300  0.00  0.00    +0.000 NA
BRANCH   6   8
ATOM      8  O   UNL     1      47.013   7.921  12.072  0.00  0.00    +0.000 OA
BRANCH   8   9
ATOM      9  C   UNL     1      48.391   8.186  12.424  0.00  0.00    +0.000 C 
ATOM     10  C   UNL     1      48.792   9.685  12.362  0.00  0.00    +0.000 C 
ATOM     11  C   UNL     1      50.153   9.254  11.795  0.00  0.00    +0.000 C 
ATOM     12  C   UNL     1      49.491   7.938  11.359  0.00  0.00    +0.000 C 
ENDBRANCH   8   9
ENDBRANCH   6   8
ENDBRANCH   1   2
BRANCH   1  13
ATOM     13  C   UNL     1      43.036   4.342  11.177  0.00  0.00    +0.000 C 
BRANCH  13  18
ATOM     14  C   UNL     1      46.433   2.640   7.766  0.00  0.00    +0.000 A 
ATOM     15  C   UNL     1      45.663   1.971   8.708  0.00  0.00    +0.000 A 
ATOM     16  C   UNL     1      44.806   2.708   9.524  0.00  0.00    +0.000 A 
ATOM     17  C   UNL     1      44.735   4.094   9.395  0.00  0.00    +0.000 A 
ATOM     18  N   UNL     1      43.918   4.880  10.164  0.00  0.00    +0.000 N 
ATOM     19  N   UNL     1      45.480   4.748   8.483  0.00  0.00    +0.000 NA
ATOM     20  C   UNL     1      46.305   4.017   7.693  0.00  0.00    +0.000 A 
ATOM     21  H   UNL     1      43.983   5.872   9.979  0.00  0.00    +0.000 HD
BRANCH  14  23
ATOM     22  N   UNL     1      48.054   1.374   6.201  0.00  0.00    +0.000 NA
ATOM     23  C   UNL     1      47.327   1.938   6.904  0.00  0.00    +0.000 C 
ENDBRANCH  14  23
ENDBRANCH  13  18
ENDBRANCH   1  13
TORSDOF 6
ENDMDL
MODEL 3
REMARK VINA RESULT:    -7.682      2.422      4.403
REMARK INTER + INTRA:         -10.995
REMARK INTER:                 -10.078
REMARK INTRA:                  -0.917
REMARK UNBOUND:                -0.619
REMARK  Name = 
REMARK  6 active torsions:
REMARK  status: ('A' for Active; 'I' for Inactive)
REMARK    1  A    between atoms: C_2  and  C_3
REMARK    2  A    between atoms: N_7  and  C_8
REMARK    3  A    between atoms: C_8  and  C_9
REMARK    4  A    between atoms: C_9  and  C_10
REMARK    5  A    between atoms: C_14  and  O_15
REMARK    6  A    between atoms: O_15  and  C_16
REMARK                            x       y       z     vdW  Elec       q    Type
REMARK                         _______ _______ _______ _____ _____    ______ ____
ROOT
ATOM      1  C   UNL     1      43.737   4.175  12.570  0.00  0.00    +0.000 C 
ENDROOT
BRANCH   1   2
ATOM      2  C   UNL     1      44.876   5.151  12.770  0.00  0.00    +0.000 A 
ATOM      3  C   UNL     1      46.174   4.683  12.947  0.00  0.00    +0.000 A 
ATOM      4  C   UNL     1      47.200   5.608  13.125  0.00  0.00    +0.000 A 
ATOM      5  C   UNL     1      46.904   6.968  13.131  0.00  0.00    +0.000 A 
ATOM      6  C   UNL     1      45.589   7.348  12.941  0.00  0.00    +0.000 A 
ATOM      7  N   UNL     1      44.581   6.475  12.759  0.00  0.00    +0.000 NA
BRANCH   6   8
ATOM      8  O   UNL     1      45.298   8.696  12.976  0.00  0.00    +0.000 OA
BRANCH   8   9
ATOM      9  C   UNL     1      45.297   9.378  11.699  0.00  0.00    +0.000 C 
ATOM     10  C   UNL     1      46.038  10.742  11.701  0.00  0.00    +0.000 C 
ATOM     11  C   UNL     1      44.945  11.288  10.769  0.00  0.00    +0.000 C 
ATOM     12  C   UNL     1      44.029  10.164  11.279  0.00  0.00    +0.000 C 
ENDBRANCH   8   9
ENDBRANCH   6   8
ENDBRANCH   1   2
BRANCH   1  13
ATOM     13  C   UNL     1      43.074   4.364  11.207  0.00  0.00    +0.000 C 
BRANCH  13  18
ATOM     14  C   UNL     1      46.429   2.659   7.755  0.00  0.00    +0.000 A 
ATOM     15  C   UNL     1      45.630   1.985   8.671  0.00  0.00    +0.000 A 
ATOM     16  C   UNL     1      44.796   2.724   9.508  0.00  0.00    +0.000 A 
ATOM     17  C   UNL     1      44.774   4.115   9.425  0.00  0.00    +0.000 A 
ATOM     18  N   UNL     1      43.981   4.904  10.217  0.00  0.00    +0.000 N 
ATOM     19  N   UNL     1      45.547   4.773   8.540  0.00  0.00    +0.000 NA
ATOM     20  C   UNL     1      46.350   4.041   7.729  0.00  0.00    +0.000 A 
ATOM     21  H   UNL     1      44.082   5.898  10.066  0.00  0.00    +0.000 HD
BRANCH  14  23
ATOM     22  N   UNL     1      48.017   1.384   6.163  0.00  0.00    +0.000 NA
ATOM     23  C   UNL     1      47.303   1.955   6.874  0.00  0.00    +0.000 C 
ENDBRANCH  14  23
ENDBRANCH  13  18
ENDBRANCH   1  13
TORSDOF 6
ENDMDL
MODEL 4
REMARK VINA RESULT:    -7.148      1.787      2.254
REMARK INTER + INTRA:         -10.275
REMARK INTER:                  -9.675
REMARK INTRA:                  -0.600
REMARK UNBOUND:                -0.619
REMARK  Name = 
REMARK  6 active torsions:
REMARK  status: ('A' for Active; 'I' for Inactive)
REMARK    1  A    between atoms: C_2  and  C_3
REMARK    2  A    between atoms: N_7  and  C_8
REMARK    3  A    between atoms: C_8  and  C_9
REMARK    4  A    between atoms: C_9  and  C_10
REMARK    5  A    between atoms: C_14  and  O_15
REMARK    6  A    between atoms: O_15  and  C_16
REMARK                            x       y       z     vdW  Elec       q    Type
REMARK                         _______ _______ _______ _____ _____    ______ ____
ROOT
ATOM      1  C   UNL     1      43.280   4.855  12.312  0.00  0.00    +0.000 C 
ENDROOT
BRANCH   1   2
ATOM      2  C   UNL     1      44.381   5.890  12.360  0.00  0.00    +0.000 A 
ATOM      3  C   UNL     1      44.157   7.171  11.864  0.00  0.00    +0.000 A 
ATOM      4  C   UNL     1      45.190   8.103  11.927  0.00  0.00    +0.000 A 
ATOM      5  C   UNL     1      46.417   7.731  12.470  0.00  0.00    +0.000 A 
ATOM      6  C   UNL     1      46.553   6.440  12.946  0.00  0.00    +0.000 A 
ATOM      7  N   UNL     1      45.568   5.524  12.904  0.00  0.00    +0.000 NA
BRANCH   6   8
ATOM      8  O   UNL     1      47.780   6.070  13.457  0.00  0.00    +0.000 OA
BRANCH   8   9
ATOM      9  C   UNL     1      48.312   6.916  14.504  0.00  0.00    +0.000 C 
ATOM     10  C   UNL     1      49.802   7.309  14.315  0.00  0.00    +0.000 C 
ATOM     11  C   UNL     1      49.989   7.160  15.833  0.00  0.00    +0.000 C 
ATOM     12  C   UNL     1      48.744   6.260  15.840  0.00  0.00    +0.000 C 
ENDBRANCH   8   9
ENDBRANCH   6   8
ENDBRANCH   1   2
BRANCH   1  13
ATOM     13  C   UNL     1      43.339   4.038  11.022  0.00  0.00    +0.000 C 
BRANCH  13  18
ATOM     14  C   UNL     1      46.697   2.674   7.425  0.00  0.00    +0.000 A 
ATOM     15  C   UNL     1      46.002   1.924   8.364  0.00  0.00    +0.000 A 
ATOM     16  C   UNL     1      45.136   2.577   9.241  0.00  0.00    +0.000 A 
ATOM     17  C   UNL     1      44.982   3.960   9.172  0.00  0.00    +0.000 A 
ATOM     18  N   UNL     1      44.152   4.666  10.002  0.00  0.00    +0.000 N 
ATOM     19  N   UNL     1      45.654   4.692   8.264  0.00  0.00    +0.000 NA
ATOM     20  C   UNL     1      46.489   4.043   7.415  0.00  0.00    +0.000 A 
ATOM     21  H   UNL     1      44.153   5.667   9.857  0.00  0.00    +0.000 HD
BRANCH  14  23
ATOM     22  N   UNL     1      48.331   1.566   5.757  0.00  0.00    +0.000 NA
ATOM     23  C   UNL     1      47.596   2.061   6.503  0.00  0.00    +0.000 C 
ENDBRANCH  14  23
ENDBRANCH  13  18
ENDBRANCH   1  13
TORSDOF 6
ENDMDL
MODEL 5
REMARK VINA RESULT:    -7.018      1.729      2.148
REMARK INTER + INTRA:         -10.098
REMARK INTER:                  -9.253
REMARK INTRA:                  -0.845
REMARK UNBOUND:                -0.619
REMARK  Name = 
REMARK  6 active torsions:
REMARK  status: ('A' for Active; 'I' for Inactive)
REMARK    1  A    between atoms: C_2  and  C_3
REMARK    2  A    between atoms: N_7  and  C_8
REMARK    3  A    between atoms: C_8  and  C_9
REMARK    4  A    between atoms: C_9  and  C_10
REMARK    5  A    between atoms: C_14  and  O_15
REMARK    6  A    between atoms: O_15  and  C_16
REMARK                            x       y       z     vdW  Elec       q    Type
REMARK                         _______ _______ _______ _____ _____    ______ ____
ROOT
ATOM      1  C   UNL     1      43.675   4.751  12.888  0.00  0.00    +0.000 C 
ENDROOT
BRANCH   1   2
ATOM      2  C   UNL     1      44.959   5.546  12.810  0.00  0.00    +0.000 A 
ATOM      3  C   UNL     1      45.061   6.624  11.936  0.00  0.00    +0.000 A 
ATOM      4  C   UNL     1      46.257   7.338  11.891  0.00  0.00    +0.000 A 
ATOM      5  C   UNL     1      47.316   6.953  12.707  0.00  0.00    +0.000 A 
ATOM      6  C   UNL     1      47.128   5.875  13.552  0.00  0.00    +0.000 A 
ATOM      7  N   UNL     1      45.982   5.174  13.620  0.00  0.00    +0.000 NA
BRANCH   6   8
ATOM      8  O   UNL     1      48.192   5.482  14.338  0.00  0.00    +0.000 OA
BRANCH   8   9
ATOM      9  C   UNL     1      48.486   6.326  15.476  0.00  0.00    +0.000 C 
ATOM     10  C   UNL     1      49.888   6.991  15.436  0.00  0.00    +0.000 C 
ATOM     11  C   UNL     1      49.992   6.762  16.951  0.00  0.00    +0.000 C 
ATOM     12  C   UNL     1      48.936   5.657  16.800  0.00  0.00    +0.000 C 
ENDBRANCH   8   9
ENDBRANCH   6   8
ENDBRANCH   1   2
BRANCH   1  13
ATOM     13  C   UNL     1      43.126   4.441  11.496  0.00  0.00    +0.000 C 
BRANCH  13  18
ATOM     14  C   UNL     1      46.142   2.843   7.698  0.00  0.00    +0.000 A 
ATOM     15  C   UNL     1      45.729   4.116   8.070  0.00  0.00    +0.000 A 
ATOM     16  C   UNL     1      44.885   4.256   9.170  0.00  0.00    +0.000 A 
ATOM     17  C   UNL     1      44.461   3.131   9.876  0.00  0.00    +0.000 A 
ATOM     18  N   UNL     1      43.631   3.194  10.964  0.00  0.00    +0.000 N 
ATOM     19  N   UNL     1      44.858   1.894   9.520  0.00  0.00    +0.000 NA
ATOM     20  C   UNL     1      45.683   1.774   8.450  0.00  0.00    +0.000 A 
ATOM     21  H   UNL     1      43.386   2.299  11.366  0.00  0.00    +0.000 HD
BRANCH  14  23
ATOM     22  N   UNL     1      47.711   2.471   5.678  0.00  0.00    +0.000 NA
ATOM     23  C   UNL     1      47.005   2.639   6.581  0.00  0.00    +0.000 C 
ENDBRANCH  14  23
ENDBRANCH  13  18
ENDBRANCH   1  13
TORSDOF 6
ENDMDL
MODEL 6
REMARK VINA RESULT:    -6.757      3.457      7.195
REMARK INTER + INTRA:          -9.747
REMARK INTER:                  -9.101
REMARK INTRA:                  -0.646
REMARK UNBOUND:                -0.619
REMARK  Name = 
REMARK  6 active torsions:
REMARK  status: ('A' for Active; 'I' for Inactive)
REMARK    1  A    between atoms: C_2  and  C_3
REMARK    2  A    between atoms: N_7  and  C_8
REMARK    3  A    between atoms: C_8  and  C_9
REMARK    4  A    between atoms: C_9  and  C_10
REMARK    5  A    between atoms: C_14  and  O_15
REMARK    6  A    between atoms: O_15  and  C_16
REMARK                            x       y       z     vdW  Elec       q    Type
REMARK                         _______ _______ _______ _____ _____    ______ ____
ROOT
ATOM      1  C   UNL     1      43.792   5.850  11.449  0.00  0.00    +0.000 C 
ENDROOT
BRANCH   1   2
ATOM      2  C   UNL     1      44.197   4.674  10.589  0.00  0.00    +0.000 A 
ATOM      3  C   UNL     1      43.782   3.389  10.923  0.00  0.00    +0.000 A 
ATOM      4  C   UNL     1      44.168   2.327  10.107  0.00  0.00    +0.000 A 
ATOM      5  C   UNL     1      44.965   2.575   8.993  0.00  0.00    +0.000 A 
ATOM      6  C   UNL     1      45.327   3.882   8.729  0.00  0.00    +0.000 A 
ATOM      7  N   UNL     1      44.960   4.925   9.496  0.00  0.00    +0.000 NA
BRANCH   6   8
ATOM      8  O   UNL     1      46.140   4.116   7.638  0.00  0.00    +0.000 OA
BRANCH   8   9
ATOM      9  C   UNL     1      46.425   2.969   6.803  0.00  0.00    +0.000 C 
ATOM     10  C   UNL     1      47.864   2.408   6.954  0.00  0.00    +0.000 C 
ATOM     11  C   UNL     1      47.877   2.153   5.439  0.00  0.00    +0.000 C 
ATOM     12  C   UNL     1      46.766   3.206   5.309  0.00  0.00    +0.000 C 
ENDBRANCH   8   9
ENDBRANCH   6   8
ENDBRANCH   1   2
BRANCH   1  13
ATOM     13  C   UNL     1      44.545   5.854  12.778  0.00  0.00    +0.000 C 
BRANCH  13  18
ATOM     14  C   UNL     1      48.677   8.757  12.019  0.00  0.00    +0.000 A 
ATOM     15  C   UNL     1      48.371   7.467  11.604  0.00  0.00    +0.000 A 
ATOM     16  C   UNL     1      47.145   6.914  11.970  0.00  0.00    +0.000 A 
ATOM     17  C   UNL     1      46.248   7.649  12.744  0.00  0.00    +0.000 A 
ATOM     18  N   UNL     1      45.028   7.169  13.140  0.00  0.00    +0.000 N 
ATOM     19  N   UNL     1      46.539   8.900  13.148  0.00  0.00    +0.000 NA
ATOM     20  C   UNL     1      47.734   9.426  12.782  0.00  0.00    +0.000 A 
ATOM     21  H   UNL     1      44.488   7.800  13.717  0.00  0.00    +0.000 HD
BRANCH  14  23
ATOM     22  N   UNL     1      50.923   9.869  11.391  0.00  0.00    +0.000 NA
ATOM     23  C   UNL     1      49.916   9.373  11.676  0.00  0.00    +0.000 C 
ENDBRANCH  14  23
ENDBRANCH  13  18
ENDBRANCH   1  13
TORSDOF 6
ENDMDL
MODEL 7
REMARK VINA RESULT:    -6.636      2.305      7.525
REMARK INTER + INTRA:          -9.582
REMARK INTER:                  -8.927
REMARK INTRA:                  -0.655
REMARK UNBOUND:                -0.619
REMARK  Name = 
REMARK  6 active torsions:
REMARK  status: ('A' for Active; 'I' for Inactive)
REMARK    1  A    between atoms: C_2  and  C_3
REMARK    2  A    between atoms: N_7  and  C_8
REMARK    3  A    between atoms: C_8  and  C_9
REMARK    4  A    between atoms: C_9  and  C_10
REMARK    5  A    between atoms: C_14  and  O_15
REMARK    6  A    between atoms: O_15  and  C_16
REMARK                            x       y       z     vdW  Elec       q    Type
REMARK                         _______ _______ _______ _____ _____    ______ ____
ROOT
ATOM      1  C   UNL     1      46.125   6.905  11.888  0.00  0.00    +0.000 C 
ENDROOT
BRANCH   1   2
ATOM      2  C   UNL     1      45.031   5.884  11.666  0.00  0.00    +0.000 A 
ATOM      3  C   UNL     1      43.723   6.168  12.046  0.00  0.00    +0.000 A 
ATOM      4  C   UNL     1      42.738   5.209  11.824  0.00  0.00    +0.000 A 
ATOM      5  C   UNL     1      43.086   3.993  11.242  0.00  0.00    +0.000 A 
ATOM      6  C   UNL     1      44.407   3.794  10.889  0.00  0.00    +0.000 A 
ATOM      7  N   UNL     1      45.375   4.708  11.085  0.00  0.00    +0.000 NA
BRANCH   6   8
ATOM      8  O   UNL     1      44.748   2.576  10.338  0.00  0.00    +0.000 OA
BRANCH   8   9
ATOM      9  C   UNL     1      44.800   2.525   8.893  0.00  0.00    +0.000 C 
ATOM     10  C   UNL     1      46.088   1.878   8.319  0.00  0.00    +0.000 C 
ATOM     11  C   UNL     1      46.069   2.931   7.201  0.00  0.00    +0.000 C 
ATOM     12  C   UNL     1      45.203   3.807   8.119  0.00  0.00    +0.000 C 
ENDBRANCH   8   9
ENDBRANCH   6   8
ENDBRANCH   1   2
BRANCH   1  13
ATOM     13  C   UNL     1      47.308   6.299  12.640  0.00  0.00    +0.000 C 
BRANCH  13  18
ATOM     14  C   UNL     1      48.187   4.689  17.406  0.00  0.00    +0.000 A 
ATOM     15  C   UNL     1      48.673   5.783  16.701  0.00  0.00    +0.000 A 
ATOM     16  C   UNL     1      48.255   5.977  15.386  0.00  0.00    +0.000 A 
ATOM     17  C   UNL     1      47.368   5.080  14.793  0.00  0.00    +0.000 A 
ATOM     18  N   UNL     1      46.918   5.207  13.505  0.00  0.00    +0.000 N 
ATOM     19  N   UNL     1      46.894   4.017  15.471  0.00  0.00    +0.000 NA
ATOM     20  C   UNL     1      47.306   3.844  16.752  0.00  0.00    +0.000 A 
ATOM     21  H   UNL     1      46.296   4.472  13.196  0.00  0.00    +0.000 HD
BRANCH  14  23
ATOM     22  N   UNL     1      48.893   4.236  19.850  0.00  0.00    +0.000 NA
ATOM     23  C   UNL     1      48.580   4.441  18.754  0.00  0.00    +0.000 C 
ENDBRANCH  14  23
ENDBRANCH  13  18
ENDBRANCH   1  13
TORSDOF 6
ENDMDL
MODEL 8
REMARK VINA RESULT:    -6.531      2.975      8.050
REMARK INTER + INTRA:          -9.441
REMARK INTER:                  -8.971
REMARK INTRA:                  -0.470
REMARK UNBOUND:                -0.619
REMARK  Name = 
REMARK  6 active torsions:
REMARK  status: ('A' for Active; 'I' for Inactive)
REMARK    1  A    between atoms: C_2  and  C_3
REMARK    2  A    between atoms: N_7  and  C_8
REMARK    3  A    between atoms: C_8  and  C_9
REMARK    4  A    between atoms: C_9  and  C_10
REMARK    5  A    between atoms: C_14  and  O_15
REMARK    6  A    between atoms: O_15  and  C_16
REMARK                            x       y       z     vdW  Elec       q    Type
REMARK                         _______ _______ _______ _____ _____    ______ ____
ROOT
ATOM      1  C   UNL     1      45.947   6.136  11.833  0.00  0.00    +0.000 C 
ENDROOT
BRANCH   1   2
ATOM      2  C   UNL     1      45.322   5.027  11.015  0.00  0.00    +0.000 A 
ATOM      3  C   UNL     1      44.516   4.075  11.631  0.00  0.00    +0.000 A 
ATOM      4  C   UNL     1      43.952   3.069  10.849  0.00  0.00    +0.000 A 
ATOM      5  C   UNL     1      44.216   3.035   9.483  0.00  0.00    +0.000 A 
ATOM      6  C   UNL     1      45.021   4.024   8.950  0.00  0.00    +0.000 A 
ATOM      7  N   UNL     1      45.571   5.010   9.682  0.00  0.00    +0.000 NA
BRANCH   6   8
ATOM      8  O   UNL     1      45.300   3.968   7.600  0.00  0.00    +0.000 OA
BRANCH   8   9
ATOM      9  C   UNL     1      46.615   3.481   7.244  0.00  0.00    +0.000 C 
ATOM     10  C   UNL     1      46.802   3.186   5.731  0.00  0.00    +0.000 C 
ATOM     11  C   UNL     1      47.639   1.958   6.117  0.00  0.00    +0.000 C 
ATOM     12  C   UNL     1      46.944   1.985   7.487  0.00  0.00    +0.000 C 
ENDBRANCH   8   9
ENDBRANCH   6   8
ENDBRANCH   1   2
BRANCH   1  13
ATOM     13  C   UNL     1      46.237   5.678  13.261  0.00  0.00    +0.000 C 
BRANCH  13  18
ATOM     14  C   UNL     1      49.368   5.103  17.254  0.00  0.00    +0.000 A 
ATOM     15  C   UNL     1      48.243   4.390  16.859  0.00  0.00    +0.000 A 
ATOM     16  C   UNL     1      47.570   4.783  15.703  0.00  0.00    +0.000 A 
ATOM     17  C   UNL     1      48.020   5.877  14.966  0.00  0.00    +0.000 A 
ATOM     18  N   UNL     1      47.407   6.319  13.824  0.00  0.00    +0.000 N 
ATOM     19  N   UNL     1      49.110   6.571  15.346  0.00  0.00    +0.000 NA
ATOM     20  C   UNL     1      49.758   6.175  16.470  0.00  0.00    +0.000 A 
ATOM     21  H   UNL     1      47.827   7.136  13.403  0.00  0.00    +0.000 HD
BRANCH  14  23
ATOM     22  N   UNL     1      50.694   4.460  19.377  0.00  0.00    +0.000 NA
ATOM     23  C   UNL     1      50.097   4.748  18.428  0.00  0.00    +0.000 C 
ENDBRANCH  14  23
ENDBRANCH  13  18
ENDBRANCH   1  13
TORSDOF 6
ENDMDL
MODEL 9
REMARK VINA RESULT:    -6.209      2.966      6.767
REMARK INTER + INTRA:          -9.006
REMARK INTER:                  -8.323
REMARK INTRA:                  -0.683
REMARK UNBOUND:                -0.619
REMARK  Name = 
REMARK  6 active torsions:
REMARK  status: ('A' for Active; 'I' for Inactive)
REMARK    1  A    between atoms: C_2  and  C_3
REMARK    2  A    between atoms: N_7  and  C_8
REMARK    3  A    between atoms: C_8  and  C_9
REMARK    4  A    between atoms: C_9  and  C_10
REMARK    5  A    between atoms: C_14  and  O_15
REMARK    6  A    between atoms: O_15  and  C_16
REMARK                            x       y       z     vdW  Elec       q    Type
REMARK                         _______ _______ _______ _____ _____    ______ ____
ROOT
ATOM      1  C   UNL     1      46.331   3.600  13.547  0.00  0.00    +0.000 C 
ENDROOT
BRANCH   1   2
ATOM      2  C   UNL     1      45.314   3.964  12.488  0.00  0.00    +0.000 A 
ATOM      3  C   UNL     1      43.960   4.002  12.804  0.00  0.00    +0.000 A 
ATOM      4  C   UNL     1      43.049   4.344  11.808  0.00  0.00    +0.000 A 
ATOM      5  C   UNL     1      43.511   4.628  10.525  0.00  0.00    +0.000 A 
ATOM      6  C   UNL     1      44.873   4.574  10.298  0.00  0.00    +0.000 A 
ATOM      7  N   UNL     1      45.774   4.254  11.245  0.00  0.00    +0.000 NA
BRANCH   6   8
ATOM      8  O   UNL     1      45.321   4.830   9.018  0.00  0.00    +0.000 OA
BRANCH   8   9
ATOM      9  C   UNL     1      45.334   3.700   8.114  0.00  0.00    +0.000 C 
ATOM     10  C   UNL     1      45.609   2.334   8.798  0.00  0.00    +0.000 C 
ATOM     11  C   UNL     1      46.452   1.940   7.576  0.00  0.00    +0.000 C 
ATOM     12  C   UNL     1      46.609   3.438   7.272  0.00  0.00    +0.000 C 
ENDBRANCH   8   9
ENDBRANCH   6   8
ENDBRANCH   1   2
BRANCH   1  13
ATOM     13  C   UNL     1      47.074   4.835  14.053  0.00  0.00    +0.000 C 
BRANCH  13  18
ATOM     14  C   UNL     1      48.268   9.287  11.856  0.00  0.00    +0.000 A 
ATOM     15  C   UNL     1      49.045   8.180  12.169  0.00  0.00    +0.000 A 
ATOM     16  C   UNL     1      48.440   7.083  12.782  0.00  0.00    +0.000 A 
ATOM     17  C   UNL     1      47.078   7.109  13.078  0.00  0.00    +0.000 A 
ATOM     18  N   UNL     1      46.420   6.070  13.680  0.00  0.00    +0.000 N 
ATOM     19  N   UNL     1      46.320   8.181  12.777  0.00  0.00    +0.000 NA
ATOM     20  C   UNL     1      46.922   9.238  12.177  0.00  0.00    +0.000 A 
ATOM     21  H   UNL     1      45.437   6.232  13.856  0.00  0.00    +0.000 HD
BRANCH  14  23
ATOM     22  N   UNL     1      49.294  11.367  10.715  0.00  0.00    +0.000 NA
ATOM     23  C   UNL     1      48.832  10.437  11.229  0.00  0.00    +0.000 C 
ENDBRANCH  14  23
ENDBRANCH  13  18
ENDBRANCH   1  13
TORSDOF 6
ENDMDL
