MODEL 1
REMARK VINA RESULT:    -8.296      0.000      0.000
REMARK INTER + INTRA:         -12.284
REMARK INTER:                 -11.207
REMARK INTRA:                  -1.077
REMARK UNBOUND:                -1.077
REMARK  Name = 
REMARK  8 active torsions:
REMARK  status: ('A' for Active; 'I' for Inactive)
REMARK    1  A    between atoms: C_1  and  C_2
REMARK    2  A    between atoms: C_2  and  N_3
REMARK    3  A    between atoms: C_2  and  C_17
REMARK    4  A    between atoms: C_4  and  C_6
REMARK    5  A    between atoms: N_12  and  C_13
REMARK    6  A    between atoms: C_20  and  O_21
REMARK    7  A    between atoms: O_21  and  C_22
REMARK    8  A    between atoms: C_22  and  C_23
REMARK                            x       y       z     vdW  Elec       q    Type
REMARK                         _______ _______ _______ _____ _____    ______ ____
ROOT
ATOM      1  C   UNL     1      48.791   7.057  12.528  0.00  0.00    +0.000 C 
ATOM      2  C   UNL     1      47.589   6.790  13.442  0.00  0.00    +0.000 C 
ENDROOT
BRANCH   2   3
ATOM      3  C   UNL     1      46.539   5.999  12.679  0.00  0.00    +0.000 A 
ATOM      4  C   UNL     1      46.044   6.475  11.458  0.00  0.00    +0.000 A 
ATOM      5  C   UNL     1      45.243   5.657  10.653  0.00  0.00    +0.000 A 
ATOM      6  C   UNL     1      44.926   4.364  11.063  0.00  0.00    +0.000 A 
ATOM      7  C   UNL     1      45.294   3.938  12.339  0.00  0.00    +0.000 A 
ATOM      8  C   UNL     1      46.107   4.742  13.133  0.00  0.00    +0.000 A 
BRANCH   6   9
ATOM      9  O   UNL     1      44.287   3.573  10.143  0.00  0.00    +0.000 OA
BRANCH   9  10
ATOM     10  C   UNL     1      44.529   3.956   8.784  0.00  0.00    +0.000 C 
BRANCH  10  11
ATOM     11  C   UNL     1      45.510   3.021   8.141  0.00  0.00    +0.000 A 
ATOM     12  C   UNL     1      46.409   3.465   7.168  0.00  0.00    +0.000 A 
ATOM     13  C   UNL     1      47.352   2.585   6.647  0.00  0.00    +0.000 A 
ATOM     14  C   UNL     1      47.365   1.284   7.124  0.00  0.00    +0.000 A 
ATOM     15  N   UNL     1      46.520   0.820   8.069  0.00  0.00    +0.000 NA
ATOM     16  C   UNL     1      45.613   1.698   8.554  0.00  0.00    +0.000 A 
ENDBRANCH  10  11
ENDBRANCH   9  10
ENDBRANCH   6   9
ENDBRANCH   2   3
BRANCH   2  17
ATOM     17  N   UNL     1      47.994   6.064  14.625  0.00  0.00    +0.000 N 
ATOM     18  C   UNL     1      48.584   6.649  15.716  0.00  0.00    +0.000 C 
ATOM     19  O   UNL     1      48.682   7.861  15.852  0.00  0.00    +0.000 OA
ATOM     20  H   UNL     1      48.137   5.074  14.489  0.00  0.00    +0.000 HD
BRANCH  18  21
ATOM     21  C   UNL     1      49.020   5.706  16.755  0.00  0.00    +0.000 A 
ATOM     22  C   UNL     1      48.088   4.983  17.485  0.00  0.00    +0.000 A 
ATOM     23  S   UNL     1      48.796   3.843  18.541  0.00  0.00    +0.000 S 
ATOM     24  C   UNL     1      50.369   4.316  18.095  0.00  0.00    +0.000 A 
ATOM     25  N   UNL     1      51.463   3.700  18.611  0.00  0.00    +0.000 NA
ATOM     26  C   UNL     1      52.593   4.176  18.196  0.00  0.00    +0.000 A 
ATOM     27  N   UNL     1      52.746   5.233  17.324  0.00  0.00    +0.000 N 
ATOM     28  C   UNL     1      54.060   5.701  16.941  0.00  0.00    +0.000 C 
ATOM     29  C   UNL     1      51.645   5.890  16.785  0.00  0.00    +0.000 A 
ATOM     30  O   UNL     1      51.755   6.835  16.008  0.00  0.00    +0.000 OA
ATOM     31  C   UNL     1      50.356   5.351  17.184  0.00  0.00    +0.000 A 
ENDBRANCH  18  21
ENDBRANCH   2  17
TORSDOF 6
ENDMDL
MODEL 2
REMARK VINA RESULT:    -8.232      2.019      2.500
REMARK INTER + INTRA:         -12.196
REMARK INTER:                 -10.972
REMARK INTRA:                  -1.224
REMARK UNBOUND:                -1.077
REMARK  Name = 
REMARK  8 active torsions:
REMARK  status: ('A' for Active; 'I' for Inactive)
REMARK    1  A    between atoms: C_1  and  C_2
REMARK    2  A    between atoms: C_2  and  N_3
REMARK    3  A    between atoms: C_2  and  C_17
REMARK    4  A    between atoms: C_4  and  C_6
REMARK    5  A    between atoms: N_12  and  C_13
REMARK    6  A    between atoms: C_20  and  O_21
REMARK    7  A    between atoms: O_21  and  C_22
REMARK    8  A    between atoms: C_22  and  C_23
REMARK                            x       y       z     vdW  Elec       q    Type
REMARK                         _______ _______ _______ _____ _____    ______ ____
ROOT
ATOM      1  C   UNL     1      49.294   7.074  12.727  0.00  0.00    +0.000 C 
ATOM      2  C   UNL     1      47.902   7.545  13.165  0.00  0.00    +0.000 C 
ENDROOT
BRANCH   2   3
ATOM      3  C   UNL     1      46.850   6.597  12.612  0.00  0.00    +0.000 A 
ATOM      4  C   UNL     1      46.237   6.862  11.379  0.00  0.00    +0.000 A 
ATOM      5  C   UNL     1      45.432   5.895  10.768  0.00  0.00    +0.000 A 
ATOM      6  C   UNL     1      45.228   4.661  11.384  0.00  0.00    +0.000 A 
ATOM      7  C   UNL     1      45.714   4.448  12.673  0.00  0.00    +0.000 A 
ATOM      8  C   UNL     1      46.531   5.401  13.275  0.00  0.00    +0.000 A 
BRANCH   6   9
ATOM      9  O   UNL     1      44.573   3.711  10.643  0.00  0.00    +0.000 OA
BRANCH   9  10
ATOM     10  C   UNL     1      44.518   4.008   9.242  0.00  0.00    +0.000 C 
BRANCH  10  11
ATOM     11  C   UNL     1      45.421   3.089   8.474  0.00  0.00    +0.000 A 
ATOM     12  C   UNL     1      46.288   3.573   7.491  0.00  0.00    +0.000 A 
ATOM     13  C   UNL     1      47.162   2.701   6.851  0.00  0.00    +0.000 A 
ATOM     14  C   UNL     1      47.141   1.366   7.223  0.00  0.00    +0.000 A 
ATOM     15  N   UNL     1      46.325   0.862   8.173  0.00  0.00    +0.000 NA
ATOM     16  C   UNL     1      45.485   1.733   8.776  0.00  0.00    +0.000 A 
ENDBRANCH  10  11
ENDBRANCH   9  10
ENDBRANCH   6   9
ENDBRANCH   2   3
BRANCH   2  17
ATOM     17  N   UNL     1      47.808   7.602  14.606  0.00  0.00    +0.000 N 
ATOM     18  C   UNL     1      48.499   8.499  15.381  0.00  0.00    +0.000 C 
ATOM     19  O   UNL     1      49.140   9.431  14.915  0.00  0.00    +0.000 OA
ATOM     20  H   UNL     1      47.484   6.754  15.046  0.00  0.00    +0.000 HD
BRANCH  18  21
ATOM     21  C   UNL     1      48.345   8.302  16.829  0.00  0.00    +0.000 A 
ATOM     22  C   UNL     1      47.971   9.358  17.647  0.00  0.00    +0.000 A 
ATOM     23  S   UNL     1      47.710   8.894  19.270  0.00  0.00    +0.000 S 
ATOM     24  C   UNL     1      48.139   7.280  18.941  0.00  0.00    +0.000 A 
ATOM     25  N   UNL     1      48.092   6.328  19.907  0.00  0.00    +0.000 NA
ATOM     26  C   UNL     1      48.461   5.150  19.519  0.00  0.00    +0.000 A 
ATOM     27  N   UNL     1      48.902   4.825  18.254  0.00  0.00    +0.000 N 
ATOM     28  C   UNL     1      49.315   3.477  17.931  0.00  0.00    +0.000 C 
ATOM     29  C   UNL     1      48.969   5.779  17.245  0.00  0.00    +0.000 A 
ATOM     30  O   UNL     1      49.359   5.514  16.110  0.00  0.00    +0.000 OA
ATOM     31  C   UNL     1      48.510   7.104  17.625  0.00  0.00    +0.000 A 
ENDBRANCH  18  21
ENDBRANCH   2  17
TORSDOF 6
ENDMDL
MODEL 3
REMARK VINA RESULT:    -8.177      1.590      2.328
REMARK INTER + INTRA:         -12.122
REMARK INTER:                 -10.703
REMARK INTRA:                  -1.418
REMARK UNBOUND:                -1.077
REMARK  Name = 
REMARK  8 active torsions:
REMARK  status: ('A' for Active; 'I' for Inactive)
REMARK    1  A    between atoms: C_1  and  C_2
REMARK    2  A    between atoms: C_2  and  N_3
REMARK    3  A    between atoms: C_2  and  C_17
REMARK    4  A    between atoms: C_4  and  C_6
REMARK    5  A    between atoms: N_12  and  C_13
REMARK    6  A    between atoms: C_20  and  O_21
REMARK    7  A    between atoms: O_21  and  C_22
REMARK    8  A    between atoms: C_22  and  C_23
REMARK                            x       y       z     vdW  Elec       q    Type
REMARK                         _______ _______ _______ _____ _____    ______ ____
ROOT
ATOM      1  C   UNL     1      47.526   8.529  12.116  0.00  0.00    +0.000 C 
ATOM      2  C   UNL     1      46.942   7.690  13.258  0.00  0.00    +0.000 C 
ENDROOT
BRANCH   2   3
ATOM      3  C   UNL     1      46.079   6.580  12.679  0.00  0.00    +0.000 A 
ATOM      4  C   UNL     1      45.085   6.874  11.737  0.00  0.00    +0.000 A 
ATOM      5  C   UNL     1      44.437   5.844  11.047  0.00  0.00    +0.000 A 
ATOM      6  C   UNL     1      44.771   4.514  11.297  0.00  0.00    +0.000 A 
ATOM      7  C   UNL     1      45.652   4.211  12.335  0.00  0.00    +0.000 A 
ATOM      8  C   UNL     1      46.312   5.234  13.009  0.00  0.00    +0.000 A 
BRANCH   6   9
ATOM      9  O   UNL     1      44.218   3.580  10.460  0.00  0.00    +0.000 OA
BRANCH   9  10
ATOM     10  C   UNL     1      44.312   3.919   9.071  0.00  0.00    +0.000 C 
BRANCH  10  11
ATOM     11  C   UNL     1      45.304   3.031   8.380  0.00  0.00    +0.000 A 
ATOM     12  C   UNL     1      46.199   3.537   7.433  0.00  0.00    +0.000 A 
ATOM     13  C   UNL     1      47.151   2.696   6.867  0.00  0.00    +0.000 A 
ATOM     14  C   UNL     1      47.178   1.371   7.272  0.00  0.00    +0.000 A 
ATOM     15  N   UNL     1      46.336   0.848   8.189  0.00  0.00    +0.000 NA
ATOM     16  C   UNL     1      45.420   1.688   8.720  0.00  0.00    +0.000 A 
ENDBRANCH  10  11
ENDBRANCH   9  10
ENDBRANCH   6   9
ENDBRANCH   2   3
BRANCH   2  17
ATOM     17  N   UNL     1      47.994   7.126  14.072  0.00  0.00    +0.000 N 
ATOM     18  C   UNL     1      48.571   7.776  15.133  0.00  0.00    +0.000 C 
ATOM     19  O   UNL     1      48.144   8.831  15.583  0.00  0.00    +0.000 OA
ATOM     20  H   UNL     1      48.520   6.384  13.634  0.00  0.00    +0.000 HD
BRANCH  18  21
ATOM     21  C   UNL     1      49.702   7.065  15.745  0.00  0.00    +0.000 A 
ATOM     22  C   UNL     1      50.987   7.581  15.659  0.00  0.00    +0.000 A 
ATOM     23  S   UNL     1      52.135   6.684  16.551  0.00  0.00    +0.000 S 
ATOM     24  C   UNL     1      50.962   5.551  17.037  0.00  0.00    +0.000 A 
ATOM     25  N   UNL     1      51.276   4.522  17.864  0.00  0.00    +0.000 NA
ATOM     26  C   UNL     1      50.290   3.730  18.135  0.00  0.00    +0.000 A 
ATOM     27  N   UNL     1      49.008   3.848  17.641  0.00  0.00    +0.000 N 
ATOM     28  C   UNL     1      47.982   2.891  17.992  0.00  0.00    +0.000 C 
ATOM     29  C   UNL     1      48.656   4.886  16.786  0.00  0.00    +0.000 A 
ATOM     30  O   UNL     1      47.521   5.012  16.332  0.00  0.00    +0.000 OA
ATOM     31  C   UNL     1      49.723   5.830  16.499  0.00  0.00    +0.000 A 
ENDBRANCH  18  21
ENDBRANCH   2  17
TORSDOF 6
ENDMDL
MODEL 4
REMARK VINA RESULT:    -7.823      2.849      3.755
REMARK INTER + INTRA:         -11.645
REMARK INTER:                 -10.302
REMARK INTRA:                  -1.343
REMARK UNBOUND:                -1.077
REMARK  Name = 
REMARK  8 active torsions:
REMARK  status: ('A' for Active; 'I' for Inactive)
REMARK    1  A    between atoms: C_1  and  C_2
REMARK    2  A    between atoms: C_2  and  N_3
REMARK    3  A    between atoms: C_2  and  C_17
REMARK    4  A    between atoms: C_4  and  C_6
REMARK    5  A    between atoms: N_12  and  C_13
REMARK    6  A    between atoms: C_20  and  O_21
REMARK    7  A    between atoms: O_21  and  C_22
REMARK    8  A    between atoms: C_22  and  C_23
REMARK                            x       y       z     vdW  Elec       q    Type
REMARK                         _______ _______ _______ _____ _____    ______ ____
ROOT
ATOM      1  C   UNL     1      47.201   4.029  15.753  0.00  0.00    +0.000 C 
ATOM      2  C   UNL     1      47.758   5.086  14.792  0.00  0.00    +0.000 C 
ENDROOT
BRANCH   2   3
ATOM      3  C   UNL     1      46.851   5.192  13.577  0.00  0.00    +0.000 A 
ATOM      4  C   UNL     1      47.014   6.240  12.661  0.00  0.00    +0.000 A 
ATOM      5  C   UNL     1      46.332   6.225  11.440  0.00  0.00    +0.000 A 
ATOM      6  C   UNL     1      45.477   5.169  11.127  0.00  0.00    +0.000 A 
ATOM      7  C   UNL     1      45.200   4.201  12.092  0.00  0.00    +0.000 A 
ATOM      8  C   UNL     1      45.893   4.203  13.299  0.00  0.00    +0.000 A 
BRANCH   6   9
ATOM      9  O   UNL     1      44.985   5.143   9.848  0.00  0.00    +0.000 OA
BRANCH   9  10
ATOM     10  C   UNL     1      44.391   3.891   9.482  0.00  0.00    +0.000 C 
BRANCH  10  11
ATOM     11  C   UNL     1      45.326   3.099   8.617  0.00  0.00    +0.000 A 
ATOM     12  C   UNL     1      46.126   3.718   7.651  0.00  0.00    +0.000 A 
ATOM     13  C   UNL     1      47.032   2.960   6.918  0.00  0.00    +0.000 A 
ATOM     14  C   UNL     1      47.112   1.602   7.180  0.00  0.00    +0.000 A 
ATOM     15  N   UNL     1      46.364   0.970   8.110  0.00  0.00    +0.000 NA
ATOM     16  C   UNL     1      45.490   1.732   8.805  0.00  0.00    +0.000 A 
ENDBRANCH  10  11
ENDBRANCH   9  10
ENDBRANCH   6   9
ENDBRANCH   2   3
BRANCH   2  17
ATOM     17  N   UNL     1      47.862   6.371  15.446  0.00  0.00    +0.000 N 
ATOM     18  C   UNL     1      49.043   7.046  15.620  0.00  0.00    +0.000 C 
ATOM     19  O   UNL     1      50.096   6.695  15.105  0.00  0.00    +0.000 OA
ATOM     20  H   UNL     1      47.096   6.598  16.063  0.00  0.00    +0.000 HD
BRANCH  18  21
ATOM     21  C   UNL     1      48.933   8.277  16.414  0.00  0.00    +0.000 A 
ATOM     22  C   UNL     1      49.196   9.512  15.838  0.00  0.00    +0.000 A 
ATOM     23  S   UNL     1      48.877  10.825  16.883  0.00  0.00    +0.000 S 
ATOM     24  C   UNL     1      48.427   9.784  18.152  0.00  0.00    +0.000 A 
ATOM     25  N   UNL     1      47.998  10.272  19.344  0.00  0.00    +0.000 NA
ATOM     26  C   UNL     1      47.706   9.366  20.221  0.00  0.00    +0.000 A 
ATOM     27  N   UNL     1      47.822   8.005  20.037  0.00  0.00    +0.000 N 
ATOM     28  C   UNL     1      47.490   7.077  21.095  0.00  0.00    +0.000 C 
ATOM     29  C   UNL     1      48.266   7.475  18.830  0.00  0.00    +0.000 A 
ATOM     30  O   UNL     1      48.380   6.266  18.642  0.00  0.00    +0.000 OA
ATOM     31  C   UNL     1      48.553   8.457  17.799  0.00  0.00    +0.000 A 
ENDBRANCH  18  21
ENDBRANCH   2  17
TORSDOF 6
ENDMDL
MODEL 5
REMARK VINA RESULT:    -7.417      2.515      3.787
REMARK INTER + INTRA:         -11.096
REMARK INTER:                  -9.779
REMARK INTRA:                  -1.317
REMARK UNBOUND:                -1.077
REMARK  Name = 
REMARK  8 active torsions:
REMARK  status: ('A' for Active; 'I' for Inactive)
REMARK    1  A    between atoms: C_1  and  C_2
REMARK    2  A    between atoms: C_2  and  N_3
REMARK    3  A    between atoms: C_2  and  C_17
REMARK    4  A    between atoms: C_4  and  C_6
REMARK    5  A    between atoms: N_12  and  C_13
REMARK    6  A    between atoms: C_20  and  O_21
REMARK    7  A    between atoms: O_21  and  C_22
REMARK    8  A    between atoms: C_22  and  C_23
REMARK                            x       y       z     vdW  Elec       q    Type
REMARK                         _______ _______ _______ _____ _____    ______ ____
ROOT
ATOM      1  C   UNL     1      46.873   3.675  15.711  0.00  0.00    +0.000 C 
ATOM      2  C   UNL     1      47.555   4.680  14.775  0.00  0.00    +0.000 C 
ENDROOT
BRANCH   2   3
ATOM      3  C   UNL     1      46.707   4.864  13.527  0.00  0.00    +0.000 A 
ATOM      4  C   UNL     1      46.863   6.005  12.728  0.00  0.00    +0.000 A 
ATOM      5  C   UNL     1      46.246   6.080  11.475  0.00  0.00    +0.000 A 
ATOM      6  C   UNL     1      45.464   5.023  11.013  0.00  0.00    +0.000 A 
ATOM      7  C   UNL     1      45.188   3.951  11.862  0.00  0.00    +0.000 A 
ATOM      8  C   UNL     1      45.817   3.865  13.102  0.00  0.00    +0.000 A 
BRANCH   6   9
ATOM      9  O   UNL     1      45.040   5.101   9.712  0.00  0.00    +0.000 OA
BRANCH   9  10
ATOM     10  C   UNL     1      44.369   3.923   9.250  0.00  0.00    +0.000 C 
BRANCH  10  11
ATOM     11  C   UNL     1      45.294   3.082   8.420  0.00  0.00    +0.000 A 
ATOM     12  C   UNL     1      45.995   3.622   7.338  0.00  0.00    +0.000 A 
ATOM     13  C   UNL     1      46.897   2.830   6.637  0.00  0.00    +0.000 A 
ATOM     14  C   UNL     1      47.072   1.518   7.048  0.00  0.00    +0.000 A 
ATOM     15  N   UNL     1      46.422   0.964   8.093  0.00  0.00    +0.000 NA
ATOM     16  C   UNL     1      45.549   1.757   8.754  0.00  0.00    +0.000 A 
ENDBRANCH  10  11
ENDBRANCH   9  10
ENDBRANCH   6   9
ENDBRANCH   2   3
BRANCH   2  17
ATOM     17  N   UNL     1      47.745   5.951  15.437  0.00  0.00    +0.000 N 
ATOM     18  C   UNL     1      48.786   6.221  16.288  0.00  0.00    +0.000 C 
ATOM     19  O   UNL     1      49.732   5.462  16.448  0.00  0.00    +0.000 OA
ATOM     20  H   UNL     1      46.914   6.517  15.518  0.00  0.00    +0.000 HD
BRANCH  18  21
ATOM     21  C   UNL     1      48.718   7.536  16.940  0.00  0.00    +0.000 A 
ATOM     22  C   UNL     1      48.565   7.633  18.315  0.00  0.00    +0.000 A 
ATOM     23  S   UNL     1      48.650   9.238  18.893  0.00  0.00    +0.000 S 
ATOM     24  C   UNL     1      48.842   9.857  17.319  0.00  0.00    +0.000 A 
ATOM     25  N   UNL     1      49.012  11.186  17.101  0.00  0.00    +0.000 NA
ATOM     26  C   UNL     1      49.128  11.516  15.854  0.00  0.00    +0.000 A 
ATOM     27  N   UNL     1      49.066  10.646  14.787  0.00  0.00    +0.000 N 
ATOM     28  C   UNL     1      49.185  11.124  13.427  0.00  0.00    +0.000 C 
ATOM     29  C   UNL     1      48.884   9.281  14.977  0.00  0.00    +0.000 A 
ATOM     30  O   UNL     1      48.825   8.486  14.041  0.00  0.00    +0.000 OA
ATOM     31  C   UNL     1      48.805   8.861  16.365  0.00  0.00    +0.000 A 
ENDBRANCH  18  21
ENDBRANCH   2  17
TORSDOF 6
ENDMDL
MODEL 6
REMARK VINA RESULT:    -7.302      1.947      2.340
REMARK INTER + INTRA:         -10.941
REMARK INTER:                  -9.714
REMARK INTRA:                  -1.227
REMARK UNBOUND:                -1.077
REMARK  Name = 
REMARK  8 active torsions:
REMARK  status: ('A' for Active; 'I' for Inactive)
REMARK    1  A    between atoms: C_1  and  C_2
REMARK    2  A    between atoms: C_2  and  N_3
REMARK    3  A    between atoms: C_2  and  C_17
REMARK    4  A    between atoms: C_4  and  C_6
REMARK    5  A    between atoms: N_12  and  C_13
REMARK    6  A    between atoms: C_20  and  O_21
REMARK    7  A    between atoms: O_21  and  C_22
REMARK    8  A    between atoms: C_22  and  C_23
REMARK                            x       y       z     vdW  Elec       q    Type
REMARK                         _______ _______ _______ _____ _____    ______ ____
ROOT
ATOM      1  C   UNL     1      47.540   8.769  12.107  0.00  0.00    +0.000 C 
ATOM      2  C   UNL     1      47.033   7.896  13.261  0.00  0.00    +0.000 C 
ENDROOT
BRANCH   2   3
ATOM      3  C   UNL     1      46.244   6.724  12.699  0.00  0.00    +0.000 A 
ATOM      4  C   UNL     1      45.829   6.728  11.360  0.00  0.00    +0.000 A 
ATOM      5  C   UNL     1      45.294   5.572  10.783  0.00  0.00    +0.000 A 
ATOM      6  C   UNL     1      45.163   4.407  11.538  0.00  0.00    +0.000 A 
ATOM      7  C   UNL     1      45.438   4.440  12.905  0.00  0.00    +0.000 A 
ATOM      8  C   UNL     1      45.989   5.583  13.477  0.00  0.00    +0.000 A 
BRANCH   6   9
ATOM      9  O   UNL     1      44.795   3.277  10.854  0.00  0.00    +0.000 OA
BRANCH   9  10
ATOM     10  C   UNL     1      44.442   3.517   9.487  0.00  0.00    +0.000 C 
BRANCH  10  11
ATOM     11  C   UNL     1      45.395   2.812   8.567  0.00  0.00    +0.000 A 
ATOM     12  C   UNL     1      46.154   3.515   7.626  0.00  0.00    +0.000 A 
ATOM     13  C   UNL     1      47.079   2.837   6.841  0.00  0.00    +0.000 A 
ATOM     14  C   UNL     1      47.218   1.471   7.028  0.00  0.00    +0.000 A 
ATOM     15  N   UNL     1      46.512   0.759   7.931  0.00  0.00    +0.000 NA
ATOM     16  C   UNL     1      45.618   1.445   8.679  0.00  0.00    +0.000 A 
ENDBRANCH  10  11
ENDBRANCH   9  10
ENDBRANCH   6   9
ENDBRANCH   2   3
BRANCH   2  17
ATOM     17  N   UNL     1      48.134   7.413  14.063  0.00  0.00    +0.000 N 
ATOM     18  C   UNL     1      48.523   7.983  15.248  0.00  0.00    +0.000 C 
ATOM     19  O   UNL     1      47.881   8.858  15.812  0.00  0.00    +0.000 OA
ATOM     20  H   UNL     1      48.813   6.858  13.564  0.00  0.00    +0.000 HD
BRANCH  18  21
ATOM     21  C   UNL     1      49.739   7.403  15.836  0.00  0.00    +0.000 A 
ATOM     22  C   UNL     1      49.659   6.580  16.949  0.00  0.00    +0.000 A 
ATOM     23  S   UNL     1      51.160   5.896  17.393  0.00  0.00    +0.000 S 
ATOM     24  C   UNL     1      51.972   6.720  16.144  0.00  0.00    +0.000 A 
ATOM     25  N   UNL     1      53.302   6.546  15.934  0.00  0.00    +0.000 NA
ATOM     26  C   UNL     1      53.788   7.249  14.962  0.00  0.00    +0.000 A 
ATOM     27  N   UNL     1      53.079   8.136  14.181  0.00  0.00    +0.000 N 
ATOM     28  C   UNL     1      53.727   8.890  13.131  0.00  0.00    +0.000 C 
ATOM     29  C   UNL     1      51.718   8.341  14.376  0.00  0.00    +0.000 A 
ATOM     30  O   UNL     1      51.064   9.127  13.694  0.00  0.00    +0.000 OA
ATOM     31  C   UNL     1      51.120   7.531  15.423  0.00  0.00    +0.000 A 
ENDBRANCH  18  21
ENDBRANCH   2  17
TORSDOF 6
ENDMDL
MODEL 7
REMARK VINA RESULT:    -6.882      2.466      8.728
REMARK INTER + INTRA:         -10.372
REMARK INTER:                  -9.677
REMARK INTRA:                  -0.695
REMARK UNBOUND:                -1.077
REMARK  Name = 
REMARK  8 active torsions:
REMARK  status: ('A' for Active; 'I' for Inactive)
REMARK    1  A    between atoms: C_1  and  C_2
REMARK    2  A    between atoms: C_2  and  N_3
REMARK    3  A    between atoms: C_2  and  C_17
REMARK    4  A    between atoms: C_4  and  C_6
REMARK    5  A    between atoms: N_12  and  C_13
REMARK    6  A    between atoms: C_20  and  O_21
REMARK    7  A    between atoms: O_21  and  C_22
REMARK    8  A    between atoms: C_22  and  C_23
REMARK                            x       y       z     vdW  Elec       q    Type
REMARK                         _______ _______ _______ _____ _____    ______ ____
ROOT
ATOM      1  C   UNL     1      45.269   8.970  12.727  0.00  0.00    +0.000 C 
ATOM      2  C   UNL     1      46.351   8.216  11.943  0.00  0.00    +0.000 C 
ENDROOT
BRANCH   2   3
ATOM      3  C   UNL     1      47.632   8.176  12.761  0.00  0.00    +0.000 A 
ATOM      4  C   UNL     1      47.635   8.610  14.093  0.00  0.00    +0.000 A 
ATOM      5  C   UNL     1      48.747   8.379  14.909  0.00  0.00    +0.000 A 
ATOM      6  C   UNL     1      49.865   7.720  14.401  0.00  0.00    +0.000 A 
ATOM      7  C   UNL     1      49.924   7.417  13.042  0.00  0.00    +0.000 A 
ATOM      8  C   UNL     1      48.811   7.628  12.232  0.00  0.00    +0.000 A 
BRANCH   6   9
ATOM      9  O   UNL     1      50.836   7.381  15.308  0.00  0.00    +0.000 OA
BRANCH   9  10
ATOM     10  C   UNL     1      50.357   7.270  16.654  0.00  0.00    +0.000 C 
BRANCH  10  11
ATOM     11  C   UNL     1      50.114   5.832  17.008  0.00  0.00    +0.000 A 
ATOM     12  C   UNL     1      48.842   5.262  16.907  0.00  0.00    +0.000 A 
ATOM     13  C   UNL     1      48.670   3.909  17.176  0.00  0.00    +0.000 A 
ATOM     14  C   UNL     1      49.784   3.166  17.533  0.00  0.00    +0.000 A 
ATOM     15  N   UNL     1      51.029   3.678  17.632  0.00  0.00    +0.000 NA
ATOM     16  C   UNL     1      51.165   4.997  17.368  0.00  0.00    +0.000 A 
ENDBRANCH  10  11
ENDBRANCH   9  10
ENDBRANCH   6   9
ENDBRANCH   2   3
BRANCH   2  17
ATOM     17  N   UNL     1      45.918   6.873  11.632  0.00  0.00    +0.000 N 
ATOM     18  C   UNL     1      44.616   6.531  11.368  0.00  0.00    +0.000 C 
ATOM     19  O   UNL     1      43.725   7.356  11.222  0.00  0.00    +0.000 OA
ATOM     20  H   UNL     1      46.541   6.142  11.943  0.00  0.00    +0.000 HD
BRANCH  18  21
ATOM     21  C   UNL     1      44.385   5.090  11.194  0.00  0.00    +0.000 A 
ATOM     22  C   UNL     1      43.649   4.378  12.130  0.00  0.00    +0.000 A 
ATOM     23  S   UNL     1      43.375   2.754  11.677  0.00  0.00    +0.000 S 
ATOM     24  C   UNL     1      44.274   2.938  10.244  0.00  0.00    +0.000 A 
ATOM     25  N   UNL     1      44.406   1.918   9.359  0.00  0.00    +0.000 NA
ATOM     26  C   UNL     1      45.130   2.195   8.323  0.00  0.00    +0.000 A 
ATOM     27  N   UNL     1      45.765   3.396   8.087  0.00  0.00    +0.000 N 
ATOM     28  C   UNL     1      46.573   3.594   6.904  0.00  0.00    +0.000 C 
ATOM     29  C   UNL     1      45.656   4.457   8.978  0.00  0.00    +0.000 A 
ATOM     30  O   UNL     1      46.213   5.537   8.791  0.00  0.00    +0.000 OA
ATOM     31  C   UNL     1      44.806   4.206  10.129  0.00  0.00    +0.000 A 
ENDBRANCH  18  21
ENDBRANCH   2  17
TORSDOF 6
ENDMDL
MODEL 8
REMARK VINA RESULT:    -6.830      2.453      3.297
REMARK INTER + INTRA:         -10.302
REMARK INTER:                  -8.849
REMARK INTRA:                  -1.453
REMARK UNBOUND:                -1.077
REMARK  Name = 
REMARK  8 active torsions:
REMARK  status: ('A' for Active; 'I' for Inactive)
REMARK    1  A    between atoms: C_1  and  C_2
REMARK    2  A    between atoms: C_2  and  N_3
REMARK    3  A    between atoms: C_2  and  C_17
REMARK    4  A    between atoms: C_4  and  C_6
REMARK    5  A    between atoms: N_12  and  C_13
REMARK    6  A    between atoms: C_20  and  O_21
REMARK    7  A    between atoms: O_21  and  C_22
REMARK    8  A    between atoms: C_22  and  C_23
REMARK                            x       y       z     vdW  Elec       q    Type
REMARK                         _______ _______ _______ _____ _____    ______ ____
ROOT
ATOM      1  C   UNL     1      50.583   8.937  13.250  0.00  0.00    +0.000 C 
ATOM      2  C   UNL     1      49.273   8.993  14.045  0.00  0.00    +0.000 C 
ENDROOT
BRANCH   2   3
ATOM      3  C   UNL     1      48.132   8.491  13.175  0.00  0.00    +0.000 A 
ATOM      4  C   UNL     1      48.294   7.342  12.388  0.00  0.00    +0.000 A 
ATOM      5  C   UNL     1      47.193   6.757  11.756  0.00  0.00    +0.000 A 
ATOM      6  C   UNL     1      45.924   7.316  11.897  0.00  0.00    +0.000 A 
ATOM      7  C   UNL     1      45.781   8.537  12.556  0.00  0.00    +0.000 A 
ATOM      8  C   UNL     1      46.873   9.111  13.203  0.00  0.00    +0.000 A 
BRANCH   6   9
ATOM      9  O   UNL     1      44.878   6.588  11.392  0.00  0.00    +0.000 OA
BRANCH   9  10
ATOM     10  C   UNL     1      44.919   5.199  11.740  0.00  0.00    +0.000 C 
BRANCH  10  11
ATOM     11  C   UNL     1      44.816   4.347  10.509  0.00  0.00    +0.000 A 
ATOM     12  C   UNL     1      45.367   4.756   9.291  0.00  0.00    +0.000 A 
ATOM     13  C   UNL     1      45.314   3.906   8.192  0.00  0.00    +0.000 A 
ATOM     14  C   UNL     1      44.713   2.668   8.350  0.00  0.00    +0.000 A 
ATOM     15  N   UNL     1      44.178   2.234   9.511  0.00  0.00    +0.000 NA
ATOM     16  C   UNL     1      44.242   3.082  10.562  0.00  0.00    +0.000 A 
ENDBRANCH  10  11
ENDBRANCH   9  10
ENDBRANCH   6   9
ENDBRANCH   2   3
BRANCH   2  17
ATOM     17  N   UNL     1      49.367   8.196  15.247  0.00  0.00    +0.000 N 
ATOM     18  C   UNL     1      48.734   8.510  16.423  0.00  0.00    +0.000 C 
ATOM     19  O   UNL     1      47.911   9.409  16.519  0.00  0.00    +0.000 OA
ATOM     20  H   UNL     1      50.173   7.590  15.295  0.00  0.00    +0.000 HD
BRANCH  18  21
ATOM     21  C   UNL     1      49.063   7.625  17.550  0.00  0.00    +0.000 A 
ATOM     22  C   UNL     1      49.567   8.149  18.731  0.00  0.00    +0.000 A 
ATOM     23  S   UNL     1      49.751   6.979  19.963  0.00  0.00    +0.000 S 
ATOM     24  C   UNL     1      49.213   5.730  18.940  0.00  0.00    +0.000 A 
ATOM     25  N   UNL     1      49.092   4.455  19.389  0.00  0.00    +0.000 NA
ATOM     26  C   UNL     1      48.689   3.607  18.498  0.00  0.00    +0.000 A 
ATOM     27  N   UNL     1      48.413   3.901  17.180  0.00  0.00    +0.000 N 
ATOM     28  C   UNL     1      47.989   2.870  16.258  0.00  0.00    +0.000 C 
ATOM     29  C   UNL     1      48.535   5.195  16.687  0.00  0.00    +0.000 A 
ATOM     30  O   UNL     1      48.296   5.482  15.516  0.00  0.00    +0.000 OA
ATOM     31  C   UNL     1      48.933   6.189  17.670  0.00  0.00    +0.000 A 
ENDBRANCH  18  21
ENDBRANCH   2  17
TORSDOF 6
ENDMDL
