MODEL 1
REMARK VINA RESULT:    -7.839      0.000      0.000
REMARK INTER + INTRA:         -10.816
REMARK INTER:                 -10.131
REMARK INTRA:                  -0.686
REMARK UNBOUND:                -0.686
REMARK  Name = 
REMARK  5 active torsions:
REMARK  status: ('A' for Active; 'I' for Inactive)
REMARK    1  A    between atoms: C_2  and  C_17
REMARK    2  A    between atoms: N_3  and  C_4
REMARK    3  A    between atoms: C_4  and  C_5
REMARK    4  A    between atoms: C_8  and  C_9
REMARK    5  A    between atoms: C_9  and  C_10
REMARK                            x       y       z     vdW  Elec       q    Type
REMARK                         _______ _______ _______ _____ _____    ______ ____
ROOT
ATOM      1  O   UNL     1      46.692   3.554  14.057  0.00  0.00    +0.000 OA
ATOM      2  C   UNL     1      46.580   4.775  14.115  0.00  0.00    +0.000 C 
ATOM      3  N   UNL     1      45.413   5.418  13.791  0.00  0.00    +0.000 N 
ATOM      4  H   UNL     1      45.425   6.421  13.638  0.00  0.00    +0.000 HD
ENDROOT
BRANCH   2   5
ATOM      5  C   UNL     1      47.682   5.625  14.584  0.00  0.00    +0.000 A 
ATOM      6  C   UNL     1      48.271   6.533  13.716  0.00  0.00    +0.000 A 
ATOM      7  S   UNL     1      49.554   7.412  14.418  0.00  0.00    +0.000 S 
ATOM      8  C   UNL     1      49.335   6.642  15.919  0.00  0.00    +0.000 A 
ATOM      9  N   UNL     1      50.108   6.961  16.992  0.00  0.00    +0.000 NA
ATOM     10  C   UNL     1      49.815   6.323  18.073  0.00  0.00    +0.000 A 
ATOM     11  N   UNL     1      48.815   5.392  18.179  0.00  0.00    +0.000 N 
ATOM     12  C   UNL     1      48.023   5.020  17.124  0.00  0.00    +0.000 A 
ATOM     13  O   UNL     1      47.162   4.156  17.246  0.00  0.00    +0.000 OA
ATOM     14  C   UNL     1      48.309   5.716  15.881  0.00  0.00    +0.000 A 
ATOM     15  H   UNL     1      48.641   4.920  19.057  0.00  0.00    +0.000 HD
ENDBRANCH   2   5
BRANCH   3  16
ATOM     16  C   UNL     1      44.301   4.695  13.232  0.00  0.00    +0.000 C 
BRANCH  16  17
ATOM     17  C   UNL     1      44.502   4.437  11.763  0.00  0.00    +0.000 A 
ATOM     18  C   UNL     1      44.045   3.242  11.200  0.00  0.00    +0.000 A 
ATOM     19  C   UNL     1      44.226   2.980   9.841  0.00  0.00    +0.000 A 
ATOM     20  C   UNL     1      44.846   3.913   9.001  0.00  0.00    +0.000 A 
ATOM     21  C   UNL     1      45.345   5.091   9.578  0.00  0.00    +0.000 A 
ATOM     22  C   UNL     1      45.183   5.346  10.945  0.00  0.00    +0.000 A 
BRANCH  20  23
ATOM     23  C   UNL     1      45.061   3.624   7.529  0.00  0.00    +0.000 C 
BRANCH  23  24
ATOM     24  C   UNL     1      46.513   3.339   7.082  0.00  0.00    +0.000 C 
ATOM     25  C   UNL     1      46.686   3.125   5.585  0.00  0.00    +0.000 C 
ATOM     26  C   UNL     1      47.904   2.233   5.463  0.00  0.00    +0.000 C 
ATOM     27  C   UNL     1      47.930   1.443   6.755  0.00  0.00    +0.000 C 
ATOM     28  N   UNL     1      46.964   2.060   7.662  0.00  0.00    +0.000 NA
ATOM     29  H   UNL     1      47.378   2.211   8.580  0.00  0.00    +0.000 HD
ENDBRANCH  23  24
ENDBRANCH  20  23
ENDBRANCH  16  17
ENDBRANCH   3  16
TORSDOF 5
ENDMDL
MODEL 2
REMARK VINA RESULT:    -7.604      1.656      2.543
REMARK INTER + INTRA:         -10.513
REMARK INTER:                  -9.763
REMARK INTRA:                  -0.749
REMARK UNBOUND:                -0.686
REMARK  Name = 
REMARK  5 active torsions:
REMARK  status: ('A' for Active; 'I' for Inactive)
REMARK    1  A    between atoms: C_2  and  C_17
REMARK    2  A    between atoms: N_3  and  C_4
REMARK    3  A    between atoms: C_4  and  C_5
REMARK    4  A    between atoms: C_8  and  C_9
REMARK    5  A    between atoms: C_9  and  C_10
REMARK                            x       y       z     vdW  Elec       q    Type
REMARK                         _______ _______ _______ _____ _____    ______ ____
ROOT
ATOM      1  O   UNL     1      46.867   3.732  14.517  0.00  0.00    +0.000 OA
ATOM      2  C   UNL     1      46.837   4.948  14.349  0.00  0.00    +0.000 C 
ATOM      3  N   UNL     1      45.728   5.590  13.862  0.00  0.00    +0.000 N 
ATOM      4  H   UNL     1      45.812   6.546  13.531  0.00  0.00    +0.000 HD
ENDROOT
BRANCH   2   5
ATOM      5  C   UNL     1      47.978   5.800  14.706  0.00  0.00    +0.000 A 
ATOM      6  C   UNL     1      48.518   5.732  15.982  0.00  0.00    +0.000 A 
ATOM      7  S   UNL     1      49.815   6.812  16.231  0.00  0.00    +0.000 S 
ATOM      8  C   UNL     1      49.729   7.373  14.627  0.00  0.00    +0.000 A 
ATOM      9  N   UNL     1      50.599   8.310  14.163  0.00  0.00    +0.000 NA
ATOM     10  C   UNL     1      50.440   8.621  12.922  0.00  0.00    +0.000 A 
ATOM     11  N   UNL     1      49.488   8.079  12.100  0.00  0.00    +0.000 N 
ATOM     12  C   UNL     1      48.575   7.148  12.524  0.00  0.00    +0.000 A 
ATOM     13  O   UNL     1      47.712   6.711  11.771  0.00  0.00    +0.000 OA
ATOM     14  C   UNL     1      48.716   6.757  13.916  0.00  0.00    +0.000 A 
ATOM     15  H   UNL     1      49.410   8.373  11.135  0.00  0.00    +0.000 HD
ENDBRANCH   2   5
BRANCH   3  16
ATOM     16  C   UNL     1      44.589   4.846  13.393  0.00  0.00    +0.000 C 
BRANCH  16  17
ATOM     17  C   UNL     1      44.712   4.525  11.928  0.00  0.00    +0.000 A 
ATOM     18  C   UNL     1      44.402   3.241  11.470  0.00  0.00    +0.000 A 
ATOM     19  C   UNL     1      44.515   2.922  10.117  0.00  0.00    +0.000 A 
ATOM     20  C   UNL     1      44.917   3.880   9.178  0.00  0.00    +0.000 A 
ATOM     21  C   UNL     1      45.271   5.154   9.646  0.00  0.00    +0.000 A 
ATOM     22  C   UNL     1      45.179   5.471  11.007  0.00  0.00    +0.000 A 
BRANCH  20  23
ATOM     23  C   UNL     1      45.059   3.531   7.710  0.00  0.00    +0.000 C 
BRANCH  23  24
ATOM     24  C   UNL     1      46.490   3.253   7.197  0.00  0.00    +0.000 C 
ATOM     25  C   UNL     1      46.616   3.161   5.683  0.00  0.00    +0.000 C 
ATOM     26  C   UNL     1      47.808   2.257   5.452  0.00  0.00    +0.000 C 
ATOM     27  C   UNL     1      47.851   1.360   6.672  0.00  0.00    +0.000 C 
ATOM     28  N   UNL     1      46.926   1.920   7.655  0.00  0.00    +0.000 NA
ATOM     29  H   UNL     1      47.370   1.985   8.570  0.00  0.00    +0.000 HD
ENDBRANCH  23  24
ENDBRANCH  20  23
ENDBRANCH  16  17
ENDBRANCH   3  16
TORSDOF 5
ENDMDL
MODEL 3
REMARK VINA RESULT:    -7.550      1.658      2.136
REMARK INTER + INTRA:         -10.442
REMARK INTER:                  -9.718
REMARK INTRA:                  -0.724
REMARK UNBOUND:                -0.686
REMARK  Name = 
REMARK  5 active torsions:
REMARK  status: ('A' for Active; 'I' for Inactive)
REMARK    1  A    between atoms: C_2  and  C_17
REMARK    2  A    between atoms: N_3  and  C_4
REMARK    3  A    between atoms: C_4  and  C_5
REMARK    4  A    between atoms: C_8  and  C_9
REMARK    5  A    between atoms: C_9  and  C_10
REMARK                            x       y       z     vdW  Elec       q    Type
REMARK                         _______ _______ _______ _____ _____    ______ ____
ROOT
ATOM      1  O   UNL     1      48.107   7.666  12.758  0.00  0.00    +0.000 OA
ATOM      2  C   UNL     1      47.500   7.130  13.681  0.00  0.00    +0.000 C 
ATOM      3  N   UNL     1      46.147   6.912  13.636  0.00  0.00    +0.000 N 
ATOM      4  H   UNL     1      45.653   6.676  14.490  0.00  0.00    +0.000 HD
ENDROOT
BRANCH   2   5
ATOM      5  C   UNL     1      48.198   6.644  14.877  0.00  0.00    +0.000 A 
ATOM      6  C   UNL     1      49.163   7.435  15.484  0.00  0.00    +0.000 A 
ATOM      7  S   UNL     1      49.892   6.701  16.840  0.00  0.00    +0.000 S 
ATOM      8  C   UNL     1      48.910   5.320  16.691  0.00  0.00    +0.000 A 
ATOM      9  N   UNL     1      49.006   4.291  17.575  0.00  0.00    +0.000 NA
ATOM     10  C   UNL     1      48.182   3.322  17.362  0.00  0.00    +0.000 A 
ATOM     11  N   UNL     1      47.269   3.288  16.341  0.00  0.00    +0.000 N 
ATOM     12  C   UNL     1      47.147   4.289  15.413  0.00  0.00    +0.000 A 
ATOM     13  O   UNL     1      46.344   4.210  14.490  0.00  0.00    +0.000 OA
ATOM     14  C   UNL     1      48.050   5.410  15.612  0.00  0.00    +0.000 A 
ATOM     15  H   UNL     1      46.655   2.493  16.223  0.00  0.00    +0.000 HD
ENDBRANCH   2   5
BRANCH   3  16
ATOM     16  C   UNL     1      45.350   7.431  12.555  0.00  0.00    +0.000 C 
BRANCH  16  17
ATOM     17  C   UNL     1      45.259   6.443  11.423  0.00  0.00    +0.000 A 
ATOM     18  C   UNL     1      44.217   5.511  11.398  0.00  0.00    +0.000 A 
ATOM     19  C   UNL     1      44.118   4.584  10.360  0.00  0.00    +0.000 A 
ATOM     20  C   UNL     1      45.039   4.575   9.306  0.00  0.00    +0.000 A 
ATOM     21  C   UNL     1      46.109   5.480   9.358  0.00  0.00    +0.000 A 
ATOM     22  C   UNL     1      46.224   6.398  10.410  0.00  0.00    +0.000 A 
BRANCH  20  23
ATOM     23  C   UNL     1      44.945   3.556   8.188  0.00  0.00    +0.000 C 
BRANCH  23  24
ATOM     24  C   UNL     1      46.276   2.963   7.674  0.00  0.00    +0.000 C 
ATOM     25  C   UNL     1      46.412   2.927   6.158  0.00  0.00    +0.000 C 
ATOM     26  C   UNL     1      47.350   1.771   5.885  0.00  0.00    +0.000 C 
ATOM     27  C   UNL     1      47.143   0.825   7.050  0.00  0.00    +0.000 C 
ATOM     28  N   UNL     1      46.360   1.540   8.055  0.00  0.00    +0.000 NA
ATOM     29  H   UNL     1      46.784   1.443   8.977  0.00  0.00    +0.000 HD
ENDBRANCH  23  24
ENDBRANCH  20  23
ENDBRANCH  16  17
ENDBRANCH   3  16
TORSDOF 5
ENDMDL
MODEL 4
REMARK VINA RESULT:    -7.514      2.081      3.241
REMARK INTER + INTRA:         -10.396
REMARK INTER:                  -9.495
REMARK INTRA:                  -0.901
REMARK UNBOUND:                -0.686
REMARK  Name = 
REMARK  5 active torsions:
REMARK  status: ('A' for Active; 'I' for Inactive)
REMARK    1  A    between atoms: C_2  and  C_17
REMARK    2  A    between atoms: N_3  and  C_4
REMARK    3  A    between atoms: C_4  and  C_5
REMARK    4  A    between atoms: C_8  and  C_9
REMARK    5  A    between atoms: C_9  and  C_10
REMARK                            x       y       z     vdW  Elec       q    Type
REMARK                         _______ _______ _______ _____ _____    ______ ____
ROOT
ATOM      1  O   UNL     1      49.787   7.086  14.012  0.00  0.00    +0.000 OA
ATOM      2  C   UNL     1      48.921   7.008  14.878  0.00  0.00    +0.000 C 
ATOM      3  N   UNL     1      47.615   7.354  14.638  0.00  0.00    +0.000 N 
ATOM      4  H   UNL     1      46.985   7.488  15.421  0.00  0.00    +0.000 HD
ENDROOT
BRANCH   2   5
ATOM      5  C   UNL     1      49.221   6.493  16.220  0.00  0.00    +0.000 A 
ATOM      6  C   UNL     1      50.008   7.238  17.086  0.00  0.00    +0.000 A 
ATOM      7  S   UNL     1      50.280   6.474  18.587  0.00  0.00    +0.000 S 
ATOM      8  C   UNL     1      49.316   5.143  18.147  0.00  0.00    +0.000 A 
ATOM      9  N   UNL     1      49.104   4.114  19.011  0.00  0.00    +0.000 NA
ATOM     10  C   UNL     1      48.331   3.186  18.560  0.00  0.00    +0.000 A 
ATOM     11  N   UNL     1      47.748   3.194  17.320  0.00  0.00    +0.000 N 
ATOM     12  C   UNL     1      47.947   4.196  16.406  0.00  0.00    +0.000 A 
ATOM     13  O   UNL     1      47.440   4.152  15.291  0.00  0.00    +0.000 OA
ATOM     14  C   UNL     1      48.808   5.271  16.868  0.00  0.00    +0.000 A 
ATOM     15  H   UNL     1      47.157   2.429  17.023  0.00  0.00    +0.000 HD
ENDBRANCH   2   5
BRANCH   3  16
ATOM     16  C   UNL     1      47.228   7.957  13.390  0.00  0.00    +0.000 C 
BRANCH  16  17
ATOM     17  C   UNL     1      46.351   7.035  12.587  0.00  0.00    +0.000 A 
ATOM     18  C   UNL     1      45.245   7.550  11.904  0.00  0.00    +0.000 A 
ATOM     19  C   UNL     1      44.416   6.711  11.159  0.00  0.00    +0.000 A 
ATOM     20  C   UNL     1      44.680   5.341  11.053  0.00  0.00    +0.000 A 
ATOM     21  C   UNL     1      45.762   4.819  11.776  0.00  0.00    +0.000 A 
ATOM     22  C   UNL     1      46.584   5.656  12.543  0.00  0.00    +0.000 A 
BRANCH  20  23
ATOM     23  C   UNL     1      43.769   4.424  10.260  0.00  0.00    +0.000 C 
BRANCH  23  24
ATOM     24  C   UNL     1      44.336   3.852   8.941  0.00  0.00    +0.000 C 
ATOM     25  C   UNL     1      45.067   2.525   9.085  0.00  0.00    +0.000 C 
ATOM     26  C   UNL     1      46.065   2.511   7.947  0.00  0.00    +0.000 C 
ATOM     27  C   UNL     1      46.363   3.972   7.681  0.00  0.00    +0.000 C 
ATOM     28  N   UNL     1      45.378   4.758   8.420  0.00  0.00    +0.000 NA
ATOM     29  H   UNL     1      44.963   5.471   7.821  0.00  0.00    +0.000 HD
ENDBRANCH  23  24
ENDBRANCH  20  23
ENDBRANCH  16  17
ENDBRANCH   3  16
TORSDOF 5
ENDMDL
MODEL 5
REMARK VINA RESULT:    -7.301      4.020      8.979
REMARK INTER + INTRA:         -10.121
REMARK INTER:                  -9.396
REMARK INTRA:                  -0.725
REMARK UNBOUND:                -0.686
REMARK  Name = 
REMARK  5 active torsions:
REMARK  status: ('A' for Active; 'I' for Inactive)
REMARK    1  A    between atoms: C_2  and  C_17
REMARK    2  A    between atoms: N_3  and  C_4
REMARK    3  A    between atoms: C_4  and  C_5
REMARK    4  A    between atoms: C_8  and  C_9
REMARK    5  A    between atoms: C_9  and  C_10
REMARK                            x       y       z     vdW  Elec       q    Type
REMARK                         _______ _______ _______ _____ _____    ______ ____
ROOT
ATOM      1  O   UNL     1      47.200   3.059  14.056  0.00  0.00    +0.000 OA
ATOM      2  C   UNL     1      46.795   4.136  14.482  0.00  0.00    +0.000 C 
ATOM      3  N   UNL     1      46.791   4.438  15.820  0.00  0.00    +0.000 N 
ATOM      4  H   UNL     1      46.253   5.233  16.148  0.00  0.00    +0.000 HD
ENDROOT
BRANCH   2   5
ATOM      5  C   UNL     1      46.330   5.193  13.576  0.00  0.00    +0.000 A 
ATOM      6  C   UNL     1      47.170   6.250  13.258  0.00  0.00    +0.000 A 
ATOM      7  S   UNL     1      46.457   7.400  12.220  0.00  0.00    +0.000 S 
ATOM      8  C   UNL     1      45.016   6.500  12.121  0.00  0.00    +0.000 A 
ATOM      9  N   UNL     1      43.977   6.920  11.351  0.00  0.00    +0.000 NA
ATOM     10  C   UNL     1      42.960   6.127  11.344  0.00  0.00    +0.000 A 
ATOM     11  N   UNL     1      42.888   4.949  12.039  0.00  0.00    +0.000 N 
ATOM     12  C   UNL     1      43.899   4.492  12.844  0.00  0.00    +0.000 A 
ATOM     13  O   UNL     1      43.786   3.451  13.481  0.00  0.00    +0.000 OA
ATOM     14  C   UNL     1      45.073   5.347  12.882  0.00  0.00    +0.000 A 
ATOM     15  H   UNL     1      42.056   4.375  11.998  0.00  0.00    +0.000 HD
ENDBRANCH   2   5
BRANCH   3  16
ATOM     16  C   UNL     1      47.137   3.445  16.803  0.00  0.00    +0.000 C 
BRANCH  16  17
ATOM     17  C   UNL     1      48.613   3.457  17.095  0.00  0.00    +0.000 A 
ATOM     18  C   UNL     1      49.253   4.666  17.382  0.00  0.00    +0.000 A 
ATOM     19  C   UNL     1      50.622   4.699  17.650  0.00  0.00    +0.000 A 
ATOM     20  C   UNL     1      51.386   3.526  17.662  0.00  0.00    +0.000 A 
ATOM     21  C   UNL     1      50.751   2.322  17.327  0.00  0.00    +0.000 A 
ATOM     22  C   UNL     1      49.381   2.288  17.037  0.00  0.00    +0.000 A 
BRANCH  20  23
ATOM     23  C   UNL     1      52.877   3.562  17.933  0.00  0.00    +0.000 C 
BRANCH  23  24
ATOM     24  C   UNL     1      53.523   2.255  18.445  0.00  0.00    +0.000 C 
ATOM     25  C   UNL     1      54.426   2.424  19.658  0.00  0.00    +0.000 C 
ATOM     26  C   UNL     1      55.422   1.289  19.556  0.00  0.00    +0.000 C 
ATOM     27  C   UNL     1      55.521   0.998  18.073  0.00  0.00    +0.000 C 
ATOM     28  N   UNL     1      54.435   1.721  17.415  0.00  0.00    +0.000 NA
ATOM     29  H   UNL     1      53.930   1.109  16.775  0.00  0.00    +0.000 HD
ENDBRANCH  23  24
ENDBRANCH  20  23
ENDBRANCH  16  17
ENDBRANCH   3  16
TORSDOF 5
ENDMDL
MODEL 6
REMARK VINA RESULT:    -7.049      2.950      3.533
REMARK INTER + INTRA:          -9.795
REMARK INTER:                  -9.019
REMARK INTRA:                  -0.776
REMARK UNBOUND:                -0.686
REMARK  Name = 
REMARK  5 active torsions:
REMARK  status: ('A' for Active; 'I' for Inactive)
REMARK    1  A    between atoms: C_2  and  C_17
REMARK    2  A    between atoms: N_3  and  C_4
REMARK    3  A    between atoms: C_4  and  C_5
REMARK    4  A    between atoms: C_8  and  C_9
REMARK    5  A    between atoms: C_9  and  C_10
REMARK                            x       y       z     vdW  Elec       q    Type
REMARK                         _______ _______ _______ _____ _____    ______ ____
ROOT
ATOM      1  O   UNL     1      46.054   9.268  12.684  0.00  0.00    +0.000 OA
ATOM      2  C   UNL     1      46.627   8.369  13.293  0.00  0.00    +0.000 C 
ATOM      3  N   UNL     1      46.094   7.110  13.408  0.00  0.00    +0.000 N 
ATOM      4  H   UNL     1      46.479   6.468  14.093  0.00  0.00    +0.000 HD
ENDROOT
BRANCH   2   5
ATOM      5  C   UNL     1      47.948   8.573  13.899  0.00  0.00    +0.000 A 
ATOM      6  C   UNL     1      48.046   8.974  15.224  0.00  0.00    +0.000 A 
ATOM      7  S   UNL     1      49.653   9.193  15.752  0.00  0.00    +0.000 S 
ATOM      8  C   UNL     1      50.274   8.715  14.243  0.00  0.00    +0.000 A 
ATOM      9  N   UNL     1      51.615   8.652  14.023  0.00  0.00    +0.000 NA
ATOM     10  C   UNL     1      51.947   8.246  12.845  0.00  0.00    +0.000 A 
ATOM     11  N   UNL     1      51.057   7.895  11.864  0.00  0.00    +0.000 N 
ATOM     12  C   UNL     1      49.698   7.961  12.028  0.00  0.00    +0.000 A 
ATOM     13  O   UNL     1      48.930   7.675  11.116  0.00  0.00    +0.000 OA
ATOM     14  C   UNL     1      49.270   8.408  13.343  0.00  0.00    +0.000 A 
ATOM     15  H   UNL     1      51.383   7.592  10.956  0.00  0.00    +0.000 HD
ENDBRANCH   2   5
BRANCH   3  16
ATOM     16  C   UNL     1      44.766   6.824  12.934  0.00  0.00    +0.000 C 
BRANCH  16  17
ATOM     17  C   UNL     1      44.801   6.002  11.674  0.00  0.00    +0.000 A 
ATOM     18  C   UNL     1      45.842   6.180  10.758  0.00  0.00    +0.000 A 
ATOM     19  C   UNL     1      45.891   5.432   9.582  0.00  0.00    +0.000 A 
ATOM     20  C   UNL     1      44.916   4.468   9.296  0.00  0.00    +0.000 A 
ATOM     21  C   UNL     1      43.848   4.324  10.194  0.00  0.00    +0.000 A 
ATOM     22  C   UNL     1      43.786   5.089  11.365  0.00  0.00    +0.000 A 
BRANCH  20  23
ATOM     23  C   UNL     1      44.956   3.667   8.010  0.00  0.00    +0.000 C 
BRANCH  23  24
ATOM     24  C   UNL     1      46.337   3.134   7.565  0.00  0.00    +0.000 C 
ATOM     25  C   UNL     1      46.553   3.105   6.059  0.00  0.00    +0.000 C 
ATOM     26  C   UNL     1      47.554   1.992   5.836  0.00  0.00    +0.000 C 
ATOM     27  C   UNL     1      47.329   1.037   6.990  0.00  0.00    +0.000 C 
ATOM     28  N   UNL     1      46.464   1.716   7.953  0.00  0.00    +0.000 NA
ATOM     29  H   UNL     1      46.844   1.637   8.895  0.00  0.00    +0.000 HD
ENDBRANCH  23  24
ENDBRANCH  20  23
ENDBRANCH  16  17
ENDBRANCH   3  16
TORSDOF 5
ENDMDL
MODEL 7
REMARK VINA RESULT:    -6.816      3.876      8.382
REMARK INTER + INTRA:          -9.494
REMARK INTER:                  -8.583
REMARK INTRA:                  -0.911
REMARK UNBOUND:                -0.686
REMARK  Name = 
REMARK  5 active torsions:
REMARK  status: ('A' for Active; 'I' for Inactive)
REMARK    1  A    between atoms: C_2  and  C_17
REMARK    2  A    between atoms: N_3  and  C_4
REMARK    3  A    between atoms: C_4  and  C_5
REMARK    4  A    between atoms: C_8  and  C_9
REMARK    5  A    between atoms: C_9  and  C_10
REMARK                            x       y       z     vdW  Elec       q    Type
REMARK                         _______ _______ _______ _____ _____    ______ ____
ROOT
ATOM      1  O   UNL     1      48.234   6.839  12.157  0.00  0.00    +0.000 OA
ATOM      2  C   UNL     1      47.222   6.917  12.847  0.00  0.00    +0.000 C 
ATOM      3  N   UNL     1      47.227   7.502  14.087  0.00  0.00    +0.000 N 
ATOM      4  H   UNL     1      46.440   7.352  14.710  0.00  0.00    +0.000 HD
ENDROOT
BRANCH   2   5
ATOM      5  C   UNL     1      45.925   6.428  12.363  0.00  0.00    +0.000 A 
ATOM      6  C   UNL     1      45.047   7.300  11.736  0.00  0.00    +0.000 A 
ATOM      7  S   UNL     1      43.578   6.571  11.269  0.00  0.00    +0.000 S 
ATOM      8  C   UNL     1      44.084   5.053  11.846  0.00  0.00    +0.000 A 
ATOM      9  N   UNL     1      43.288   3.955  11.727  0.00  0.00    +0.000 NA
ATOM     10  C   UNL     1      43.808   2.865  12.179  0.00  0.00    +0.000 A 
ATOM     11  N   UNL     1      45.054   2.772  12.740  0.00  0.00    +0.000 N 
ATOM     12  C   UNL     1      45.885   3.850  12.901  0.00  0.00    +0.000 A 
ATOM     13  O   UNL     1      46.979   3.737  13.442  0.00  0.00    +0.000 OA
ATOM     14  C   UNL     1      45.348   5.105  12.402  0.00  0.00    +0.000 A 
ATOM     15  H   UNL     1      45.401   1.886  13.084  0.00  0.00    +0.000 HD
ENDBRANCH   2   5
BRANCH   3  16
ATOM     16  C   UNL     1      48.458   7.930  14.698  0.00  0.00    +0.000 C 
BRANCH  16  17
ATOM     17  C   UNL     1      49.000   6.879  15.628  0.00  0.00    +0.000 A 
ATOM     18  C   UNL     1      50.348   6.907  15.996  0.00  0.00    +0.000 A 
ATOM     19  C   UNL     1      50.872   5.939  16.853  0.00  0.00    +0.000 A 
ATOM     20  C   UNL     1      50.062   4.929  17.386  0.00  0.00    +0.000 A 
ATOM     21  C   UNL     1      48.721   4.875  16.977  0.00  0.00    +0.000 A 
ATOM     22  C   UNL     1      48.198   5.834  16.101  0.00  0.00    +0.000 A 
BRANCH  20  23
ATOM     23  C   UNL     1      50.633   3.864  18.301  0.00  0.00    +0.000 C 
BRANCH  23  24
ATOM     24  C   UNL     1      51.800   3.020  17.742  0.00  0.00    +0.000 C 
ATOM     25  C   UNL     1      51.430   1.592  17.366  0.00  0.00    +0.000 C 
ATOM     26  C   UNL     1      52.715   0.808  17.522  0.00  0.00    +0.000 C 
ATOM     27  C   UNL     1      53.496   1.560  18.581  0.00  0.00    +0.000 C 
ATOM     28  N   UNL     1      52.822   2.840  18.790  0.00  0.00    +0.000 NA
ATOM     29  H   UNL     1      53.493   3.607  18.769  0.00  0.00    +0.000 HD
ENDBRANCH  23  24
ENDBRANCH  20  23
ENDBRANCH  16  17
ENDBRANCH   3  16
TORSDOF 5
ENDMDL
MODEL 8
REMARK VINA RESULT:    -6.773      4.223      8.823
REMARK INTER + INTRA:          -9.438
REMARK INTER:                  -8.439
REMARK INTRA:                  -1.000
REMARK UNBOUND:                -0.686
REMARK  Name = 
REMARK  5 active torsions:
REMARK  status: ('A' for Active; 'I' for Inactive)
REMARK    1  A    between atoms: C_2  and  C_17
REMARK    2  A    between atoms: N_3  and  C_4
REMARK    3  A    between atoms: C_4  and  C_5
REMARK    4  A    between atoms: C_8  and  C_9
REMARK    5  A    between atoms: C_9  and  C_10
REMARK                            x       y       z     vdW  Elec       q    Type
REMARK                         _______ _______ _______ _____ _____    ______ ____
ROOT
ATOM      1  O   UNL     1      47.131   3.228  14.056  0.00  0.00    +0.000 OA
ATOM      2  C   UNL     1      47.038   4.383  14.461  0.00  0.00    +0.000 C 
ATOM      3  N   UNL     1      47.148   4.702  15.790  0.00  0.00    +0.000 N 
ATOM      4  H   UNL     1      46.848   5.618  16.108  0.00  0.00    +0.000 HD
ENDROOT
BRANCH   2   5
ATOM      5  C   UNL     1      46.848   5.507  13.536  0.00  0.00    +0.000 A 
ATOM      6  C   UNL     1      45.732   5.544  12.713  0.00  0.00    +0.000 A 
ATOM      7  S   UNL     1      45.689   6.903  11.683  0.00  0.00    +0.000 S 
ATOM      8  C   UNL     1      47.137   7.513  12.336  0.00  0.00    +0.000 A 
ATOM      9  N   UNL     1      47.659   8.694  11.906  0.00  0.00    +0.000 NA
ATOM     10  C   UNL     1      48.742   9.051  12.507  0.00  0.00    +0.000 A 
ATOM     11  N   UNL     1      49.353   8.334  13.501  0.00  0.00    +0.000 N 
ATOM     12  C   UNL     1      48.879   7.131  13.955  0.00  0.00    +0.000 A 
ATOM     13  O   UNL     1      49.472   6.497  14.821  0.00  0.00    +0.000 OA
ATOM     14  C   UNL     1      47.654   6.684  13.313  0.00  0.00    +0.000 A 
ATOM     15  H   UNL     1      50.208   8.667  13.928  0.00  0.00    +0.000 HD
ENDBRANCH   2   5
BRANCH   3  16
ATOM     16  C   UNL     1      47.241   3.672  16.792  0.00  0.00    +0.000 C 
BRANCH  16  17
ATOM     17  C   UNL     1      48.676   3.326  17.086  0.00  0.00    +0.000 A 
ATOM     18  C   UNL     1      49.192   2.095  16.671  0.00  0.00    +0.000 A 
ATOM     19  C   UNL     1      50.517   1.752  16.939  0.00  0.00    +0.000 A 
ATOM     20  C   UNL     1      51.373   2.637  17.606  0.00  0.00    +0.000 A 
ATOM     21  C   UNL     1      50.841   3.852  18.062  0.00  0.00    +0.000 A 
ATOM     22  C   UNL     1      49.504   4.189  17.813  0.00  0.00    +0.000 A 
BRANCH  20  23
ATOM     23  C   UNL     1      52.808   2.259  17.915  0.00  0.00    +0.000 C 
BRANCH  23  24
ATOM     24  C   UNL     1      53.498   3.029  19.064  0.00  0.00    +0.000 C 
ATOM     25  C   UNL     1      54.575   4.006  18.618  0.00  0.00    +0.000 C 
ATOM     26  C   UNL     1      55.523   4.097  19.795  0.00  0.00    +0.000 C 
ATOM     27  C   UNL     1      55.393   2.759  20.495  0.00  0.00    +0.000 C 
ATOM     28  N   UNL     1      54.234   2.079  19.919  0.00  0.00    +0.000 NA
ATOM     29  H   UNL     1      53.628   1.717  20.654  0.00  0.00    +0.000 HD
ENDBRANCH  23  24
ENDBRANCH  20  23
ENDBRANCH  16  17
ENDBRANCH   3  16
TORSDOF 5
ENDMDL
MODEL 9
REMARK VINA RESULT:    -6.755      3.155      4.676
REMARK INTER + INTRA:          -9.415
REMARK INTER:                  -8.362
REMARK INTRA:                  -1.053
REMARK UNBOUND:                -0.686
REMARK  Name = 
REMARK  5 active torsions:
REMARK  status: ('A' for Active; 'I' for Inactive)
REMARK    1  A    between atoms: C_2  and  C_17
REMARK    2  A    between atoms: N_3  and  C_4
REMARK    3  A    between atoms: C_4  and  C_5
REMARK    4  A    between atoms: C_8  and  C_9
REMARK    5  A    between atoms: C_9  and  C_10
REMARK                            x       y       z     vdW  Elec       q    Type
REMARK                         _______ _______ _______ _____ _____    ______ ____
ROOT
ATOM      1  O   UNL     1      48.388   8.636  16.051  0.00  0.00    +0.000 OA
ATOM      2  C   UNL     1      48.791   7.508  15.785  0.00  0.00    +0.000 C 
ATOM      3  N   UNL     1      49.098   7.125  14.504  0.00  0.00    +0.000 N 
ATOM      4  H   UNL     1      49.212   6.139  14.295  0.00  0.00    +0.000 HD
ENDROOT
BRANCH   2   5
ATOM      5  C   UNL     1      49.016   6.506  16.835  0.00  0.00    +0.000 A 
ATOM      6  C   UNL     1      49.847   6.803  17.906  0.00  0.00    +0.000 A 
ATOM      7  S   UNL     1      50.019   5.515  19.012  0.00  0.00    +0.000 S 
ATOM      8  C   UNL     1      48.952   4.534  18.121  0.00  0.00    +0.000 A 
ATOM      9  N   UNL     1      48.631   3.281  18.543  0.00  0.00    +0.000 NA
ATOM     10  C   UNL     1      47.789   2.661  17.790  0.00  0.00    +0.000 A 
ATOM     11  N   UNL     1      47.236   3.180  16.649  0.00  0.00    +0.000 N 
ATOM     12  C   UNL     1      47.542   4.428  16.171  0.00  0.00    +0.000 A 
ATOM     13  O   UNL     1      47.057   4.847  15.126  0.00  0.00    +0.000 OA
ATOM     14  C   UNL     1      48.484   5.173  16.988  0.00  0.00    +0.000 A 
ATOM     15  H   UNL     1      46.586   2.637  16.096  0.00  0.00    +0.000 HD
ENDBRANCH   2   5
BRANCH   3  16
ATOM     16  C   UNL     1      48.828   7.993  13.389  0.00  0.00    +0.000 C 
BRANCH  16  17
ATOM     17  C   UNL     1      47.466   7.727  12.808  0.00  0.00    +0.000 A 
ATOM     18  C   UNL     1      47.296   6.692  11.883  0.00  0.00    +0.000 A 
ATOM     19  C   UNL     1      46.043   6.433  11.328  0.00  0.00    +0.000 A 
ATOM     20  C   UNL     1      44.918   7.181  11.697  0.00  0.00    +0.000 A 
ATOM     21  C   UNL     1      45.100   8.248  12.590  0.00  0.00    +0.000 A 
ATOM     22  C   UNL     1      46.362   8.524  13.132  0.00  0.00    +0.000 A 
BRANCH  20  23
ATOM     23  C   UNL     1      43.560   6.913  11.081  0.00  0.00    +0.000 C 
BRANCH  23  24
ATOM     24  C   UNL     1      43.034   5.462  11.160  0.00  0.00    +0.000 C 
ATOM     25  C   UNL     1      43.398   4.723  12.440  0.00  0.00    +0.000 C 
ATOM     26  C   UNL     1      43.423   3.262  12.045  0.00  0.00    +0.000 C 
ATOM     27  C   UNL     1      43.780   3.269  10.572  0.00  0.00    +0.000 C 
ATOM     28  N   UNL     1      43.671   4.651  10.107  0.00  0.00    +0.000 NA
ATOM     29  H   UNL     1      43.130   4.698   9.244  0.00  0.00    +0.000 HD
ENDBRANCH  23  24
ENDBRANCH  20  23
ENDBRANCH  16  17
ENDBRANCH   3  16
TORSDOF 5
ENDMDL
