MODEL 1
REMARK VINA RESULT:    -7.062      0.000      0.000
REMARK INTER + INTRA:         -11.134
REMARK INTER:                  -9.952
REMARK INTRA:                  -1.182
REMARK UNBOUND:                -1.182
REMARK  Name = 
REMARK  9 active torsions:
REMARK  status: ('A' for Active; 'I' for Inactive)
REMARK    1  A    between atoms: C_1  and  N_2
REMARK    2  A    between atoms: C_8  and  C_9
REMARK    3  A    between atoms: N_11  and  C_12
REMARK    4  A    between atoms: C_12  and  C_13
REMARK    5  A    between atoms: C_16  and  C_17
REMARK    6  A    between atoms: C_17  and  N_18
REMARK    7  A    between atoms: N_18  and  C_19
REMARK    8  A    between atoms: C_19  and  C_20
REMARK    9  A    between atoms: C_20  and  C_21
REMARK                            x       y       z     vdW  Elec       q    Type
REMARK                         _______ _______ _______ _____ _____    ______ ____
ROOT
ATOM      1  C   UNL     1      47.007   7.939  12.022  0.00  0.00    +0.000 C 
ENDROOT
BRANCH   1   2
ATOM      2  C   UNL     1      47.900   7.955  13.224  0.00  0.00    +0.000 A 
ATOM      3  C   UNL     1      47.689   8.863  14.263  0.00  0.00    +0.000 A 
ATOM      4  C   UNL     1      48.530   8.855  15.370  0.00  0.00    +0.000 A 
ATOM      5  C   UNL     1      49.574   7.933  15.408  0.00  0.00    +0.000 A 
ATOM      6  N   UNL     1      49.778   7.015  14.425  0.00  0.00    +0.000 NA
ATOM      7  C   UNL     1      48.941   7.049  13.367  0.00  0.00    +0.000 A 
BRANCH   5   8
ATOM      8  C   UNL     1      50.534   7.937  16.590  0.00  0.00    +0.000 C 
BRANCH   8   9
ATOM      9  N   UNL     1      50.823   6.604  17.143  0.00  0.00    +0.000 NA
ATOM     10  H   UNL     1      51.560   6.729  17.847  0.00  0.00    +0.000 HD
BRANCH   9  11
ATOM     11  C   UNL     1      49.648   6.054  17.843  0.00  0.00    +0.000 C 
BRANCH  11  12
ATOM     12  C   UNL     1      49.356   4.551  17.551  0.00  0.00    +0.000 C 
ATOM     13  C   UNL     1      50.612   3.700  17.682  0.00  0.00    +0.000 C 
ATOM     14  O   UNL     1      48.348   4.040  18.437  0.00  0.00    +0.000 OA
ATOM     15  C   UNL     1      47.118   4.320  17.780  0.00  0.00    +0.000 C 
ATOM     16  C   UNL     1      47.453   4.257  16.309  0.00  0.00    +0.000 C 
ATOM     17  O   UNL     1      48.862   4.467  16.203  0.00  0.00    +0.000 OA
ENDBRANCH  11  12
ENDBRANCH   9  11
ENDBRANCH   8   9
ENDBRANCH   5   8
ENDBRANCH   1   2
BRANCH   1  20
ATOM     18  C   UNL     1      45.061   6.505  11.511  0.00  0.00    +0.000 C 
ATOM     19  O   UNL     1      44.282   7.453  11.442  0.00  0.00    +0.000 OA
ATOM     20  N   UNL     1      46.381   6.655  11.846  0.00  0.00    +0.000 N 
ATOM     21  H   UNL     1      47.001   5.857  11.774  0.00  0.00    +0.000 HD
BRANCH  18  29
ATOM     22  C   UNL     1      46.405   3.570   6.810  0.00  0.00    +0.000 C 
ATOM     23  N   UNL     1      45.661   3.412   8.041  0.00  0.00    +0.000 N 
ATOM     24  C   UNL     1      45.009   2.230   8.326  0.00  0.00    +0.000 A 
ATOM     25  N   UNL     1      44.329   1.987   9.399  0.00  0.00    +0.000 NA
ATOM     26  C   UNL     1      44.278   3.018  10.279  0.00  0.00    +0.000 A 
ATOM     27  S   UNL     1      43.391   2.892  11.728  0.00  0.00    +0.000 S 
ATOM     28  C   UNL     1      43.790   4.489  12.178  0.00  0.00    +0.000 A 
ATOM     29  C   UNL     1      44.619   5.128  11.267  0.00  0.00    +0.000 A 
ATOM     30  C   UNL     1      44.888   4.250  10.149  0.00  0.00    +0.000 A 
ATOM     31  C   UNL     1      45.664   4.472   8.940  0.00  0.00    +0.000 A 
ATOM     32  O   UNL     1      46.298   5.508   8.739  0.00  0.00    +0.000 OA
ENDBRANCH  18  29
ENDBRANCH   1  20
TORSDOF 7
ENDMDL
MODEL 2
REMARK VINA RESULT:    -6.597      3.871      6.677
REMARK INTER + INTRA:         -10.478
REMARK INTER:                  -9.253
REMARK INTRA:                  -1.225
REMARK UNBOUND:                -1.182
REMARK  Name = 
REMARK  9 active torsions:
REMARK  status: ('A' for Active; 'I' for Inactive)
REMARK    1  A    between atoms: C_1  and  N_2
REMARK    2  A    between atoms: C_8  and  C_9
REMARK    3  A    between atoms: N_11  and  C_12
REMARK    4  A    between atoms: C_12  and  C_13
REMARK    5  A    between atoms: C_16  and  C_17
REMARK    6  A    between atoms: C_17  and  N_18
REMARK    7  A    between atoms: N_18  and  C_19
REMARK    8  A    between atoms: C_19  and  C_20
REMARK    9  A    between atoms: C_20  and  C_21
REMARK                            x       y       z     vdW  Elec       q    Type
REMARK                         _______ _______ _______ _____ _____    ______ ____
ROOT
ATOM      1  C   UNL     1      47.222   3.530  16.868  0.00  0.00    +0.000 C 
ENDROOT
BRANCH   1   2
ATOM      2  C   UNL     1      48.679   3.359  17.168  0.00  0.00    +0.000 A 
ATOM      3  C   UNL     1      49.332   2.155  16.895  0.00  0.00    +0.000 A 
ATOM      4  C   UNL     1      50.686   2.023  17.178  0.00  0.00    +0.000 A 
ATOM      5  C   UNL     1      51.360   3.106  17.737  0.00  0.00    +0.000 A 
ATOM      6  N   UNL     1      50.755   4.301  17.979  0.00  0.00    +0.000 NA
ATOM      7  C   UNL     1      49.440   4.396  17.689  0.00  0.00    +0.000 A 
BRANCH   5   8
ATOM      8  C   UNL     1      52.833   2.968  18.097  0.00  0.00    +0.000 C 
BRANCH   8   9
ATOM      9  N   UNL     1      53.157   1.770  18.888  0.00  0.00    +0.000 NA
ATOM     10  H   UNL     1      52.480   1.047  18.620  0.00  0.00    +0.000 HD
BRANCH   9  11
ATOM     11  C   UNL     1      54.495   1.255  18.547  0.00  0.00    +0.000 C 
BRANCH  11  12
ATOM     12  C   UNL     1      54.513  -0.194  17.973  0.00  0.00    +0.000 C 
ATOM     13  C   UNL     1      54.240  -0.207  16.475  0.00  0.00    +0.000 C 
ATOM     14  O   UNL     1      55.775  -0.833  18.227  0.00  0.00    +0.000 OA
ATOM     15  C   UNL     1      55.622  -1.432  19.507  0.00  0.00    +0.000 C 
ATOM     16  C   UNL     1      54.154  -1.777  19.589  0.00  0.00    +0.000 C 
ATOM     17  O   UNL     1      53.484  -0.934  18.652  0.00  0.00    +0.000 OA
ENDBRANCH  11  12
ENDBRANCH   9  11
ENDBRANCH   8   9
ENDBRANCH   5   8
ENDBRANCH   1   2
BRANCH   1  20
ATOM     18  C   UNL     1      46.963   4.278  14.528  0.00  0.00    +0.000 C 
ATOM     19  O   UNL     1      47.219   3.169  14.063  0.00  0.00    +0.000 OA
ATOM     20  N   UNL     1      47.003   4.544  15.872  0.00  0.00    +0.000 N 
ATOM     21  H   UNL     1      46.670   5.441  16.206  0.00  0.00    +0.000 HD
BRANCH  18  29
ATOM     22  C   UNL     1      50.211   8.940  14.049  0.00  0.00    +0.000 C 
ATOM     23  N   UNL     1      48.971   8.397  13.542  0.00  0.00    +0.000 N 
ATOM     24  C   UNL     1      48.204   9.106  12.639  0.00  0.00    +0.000 A 
ATOM     25  N   UNL     1      47.090   8.704  12.120  0.00  0.00    +0.000 NA
ATOM     26  C   UNL     1      46.682   7.481  12.540  0.00  0.00    +0.000 A 
ATOM     27  S   UNL     1      45.215   6.810  11.995  0.00  0.00    +0.000 S 
ATOM     28  C   UNL     1      45.432   5.412  12.949  0.00  0.00    +0.000 A 
ATOM     29  C   UNL     1      46.621   5.413  13.664  0.00  0.00    +0.000 A 
ATOM     30  C   UNL     1      47.341   6.644  13.419  0.00  0.00    +0.000 A 
ATOM     31  C   UNL     1      48.602   7.123  13.959  0.00  0.00    +0.000 A 
ATOM     32  O   UNL     1      49.306   6.443  14.706  0.00  0.00    +0.000 OA
ENDBRANCH  18  29
ENDBRANCH   1  20
TORSDOF 7
ENDMDL
MODEL 3
REMARK VINA RESULT:    -6.558      4.131      6.264
REMARK INTER + INTRA:         -10.423
REMARK INTER:                  -9.636
REMARK INTRA:                  -0.788
REMARK UNBOUND:                -1.182
REMARK  Name = 
REMARK  9 active torsions:
REMARK  status: ('A' for Active; 'I' for Inactive)
REMARK    1  A    between atoms: C_1  and  N_2
REMARK    2  A    between atoms: C_8  and  C_9
REMARK    3  A    between atoms: N_11  and  C_12
REMARK    4  A    between atoms: C_12  and  C_13
REMARK    5  A    between atoms: C_16  and  C_17
REMARK    6  A    between atoms: C_17  and  N_18
REMARK    7  A    between atoms: N_18  and  C_19
REMARK    8  A    between atoms: C_19  and  C_20
REMARK    9  A    between atoms: C_20  and  C_21
REMARK                            x       y       z     vdW  Elec       q    Type
REMARK                         _______ _______ _______ _____ _____    ______ ____
ROOT
ATOM      1  C   UNL     1      47.552   3.551  16.821  0.00  0.00    +0.000 C 
ENDROOT
BRANCH   1   2
ATOM      2  C   UNL     1      48.996   3.354  17.164  0.00  0.00    +0.000 A 
ATOM      3  C   UNL     1      49.731   4.363  17.787  0.00  0.00    +0.000 A 
ATOM      4  C   UNL     1      51.069   4.154  18.099  0.00  0.00    +0.000 A 
ATOM      5  C   UNL     1      51.646   2.929  17.772  0.00  0.00    +0.000 A 
ATOM      6  N   UNL     1      50.942   1.916  17.197  0.00  0.00    +0.000 NA
ATOM      7  C   UNL     1      49.644   2.153  16.911  0.00  0.00    +0.000 A 
BRANCH   5   8
ATOM      8  C   UNL     1      53.122   2.694  18.064  0.00  0.00    +0.000 C 
BRANCH   8   9
ATOM      9  N   UNL     1      53.385   1.664  19.082  0.00  0.00    +0.000 NA
ATOM     10  H   UNL     1      52.648   0.957  18.985  0.00  0.00    +0.000 HD
BRANCH   9  11
ATOM     11  C   UNL     1      54.669   0.985  18.830  0.00  0.00    +0.000 C 
BRANCH  11  12
ATOM     12  C   UNL     1      54.551  -0.392  18.109  0.00  0.00    +0.000 C 
ATOM     13  C   UNL     1      54.360  -0.224  16.608  0.00  0.00    +0.000 C 
ATOM     14  O   UNL     1      55.716  -1.199  18.347  0.00  0.00    +0.000 OA
ATOM     15  C   UNL     1      55.426  -1.899  19.551  0.00  0.00    +0.000 C 
ATOM     16  C   UNL     1      53.926  -2.073  19.535  0.00  0.00    +0.000 C 
ATOM     17  O   UNL     1      53.409  -1.067  18.663  0.00  0.00    +0.000 OA
ENDBRANCH  11  12
ENDBRANCH   9  11
ENDBRANCH   8   9
ENDBRANCH   5   8
ENDBRANCH   1   2
BRANCH   1  20
ATOM     18  C   UNL     1      47.221   4.383  14.518  0.00  0.00    +0.000 C 
ATOM     19  O   UNL     1      47.330   3.267  14.016  0.00  0.00    +0.000 OA
ATOM     20  N   UNL     1      47.376   4.608  15.861  0.00  0.00    +0.000 N 
ATOM     21  H   UNL     1      47.160   5.525  16.234  0.00  0.00    +0.000 HD
BRANCH  18  29
ATOM     22  C   UNL     1      42.315   5.193  11.727  0.00  0.00    +0.000 C 
ATOM     23  N   UNL     1      43.586   5.846  11.946  0.00  0.00    +0.000 N 
ATOM     24  C   UNL     1      43.862   7.069  11.368  0.00  0.00    +0.000 A 
ATOM     25  N   UNL     1      44.960   7.737  11.511  0.00  0.00    +0.000 NA
ATOM     26  C   UNL     1      45.887   7.135  12.297  0.00  0.00    +0.000 A 
ATOM     27  S   UNL     1      47.410   7.850  12.562  0.00  0.00    +0.000 S 
ATOM     28  C   UNL     1      47.918   6.544  13.535  0.00  0.00    +0.000 A 
ATOM     29  C   UNL     1      46.944   5.570  13.702  0.00  0.00    +0.000 A 
ATOM     30  C   UNL     1      45.758   5.929  12.957  0.00  0.00    +0.000 A 
ATOM     31  C   UNL     1      44.498   5.224  12.791  0.00  0.00    +0.000 A 
ATOM     32  O   UNL     1      44.246   4.170  13.374  0.00  0.00    +0.000 OA
ENDBRANCH  18  29
ENDBRANCH   1  20
TORSDOF 7
ENDMDL
MODEL 4
REMARK VINA RESULT:    -6.454      3.126      7.658
REMARK INTER + INTRA:         -10.278
REMARK INTER:                  -8.486
REMARK INTRA:                  -1.792
REMARK UNBOUND:                -1.182
REMARK  Name = 
REMARK  9 active torsions:
REMARK  status: ('A' for Active; 'I' for Inactive)
REMARK    1  A    between atoms: C_1  and  N_2
REMARK    2  A    between atoms: C_8  and  C_9
REMARK    3  A    between atoms: N_11  and  C_12
REMARK    4  A    between atoms: C_12  and  C_13
REMARK    5  A    between atoms: C_16  and  C_17
REMARK    6  A    between atoms: C_17  and  N_18
REMARK    7  A    between atoms: N_18  and  C_19
REMARK    8  A    between atoms: C_19  and  C_20
REMARK    9  A    between atoms: C_20  and  C_21
REMARK                            x       y       z     vdW  Elec       q    Type
REMARK                         _______ _______ _______ _____ _____    ______ ____
ROOT
ATOM      1  C   UNL     1      50.487   8.265  13.198  0.00  0.00    +0.000 C 
ENDROOT
BRANCH   1   2
ATOM      2  C   UNL     1      49.037   8.140  12.848  0.00  0.00    +0.000 A 
ATOM      3  C   UNL     1      48.619   7.326  11.793  0.00  0.00    +0.000 A 
ATOM      4  C   UNL     1      47.266   7.224  11.491  0.00  0.00    +0.000 A 
ATOM      5  C   UNL     1      46.356   7.951  12.255  0.00  0.00    +0.000 A 
ATOM      6  N   UNL     1      46.733   8.723  13.310  0.00  0.00    +0.000 NA
ATOM      7  C   UNL     1      48.055   8.796  13.578  0.00  0.00    +0.000 A 
BRANCH   5   8
ATOM      8  C   UNL     1      44.873   7.889  11.913  0.00  0.00    +0.000 C 
BRANCH   8   9
ATOM      9  N   UNL     1      44.404   6.565  11.474  0.00  0.00    +0.000 NA
ATOM     10  H   UNL     1      45.172   6.140  10.942  0.00  0.00    +0.000 HD
BRANCH   9  11
ATOM     11  C   UNL     1      44.140   5.686  12.627  0.00  0.00    +0.000 C 
BRANCH  11  12
ATOM     12  C   UNL     1      44.903   4.328  12.604  0.00  0.00    +0.000 C 
ATOM     13  C   UNL     1      46.147   4.369  13.482  0.00  0.00    +0.000 C 
ATOM     14  O   UNL     1      44.056   3.253  13.041  0.00  0.00    +0.000 OA
ATOM     15  C   UNL     1      43.402   2.810  11.858  0.00  0.00    +0.000 C 
ATOM     16  C   UNL     1      44.398   3.074  10.755  0.00  0.00    +0.000 C 
ATOM     17  O   UNL     1      45.289   4.079  11.242  0.00  0.00    +0.000 OA
ENDBRANCH  11  12
ENDBRANCH   9  11
ENDBRANCH   8   9
ENDBRANCH   5   8
ENDBRANCH   1   2
BRANCH   1  20
ATOM     18  C   UNL     1      51.004   7.896  15.585  0.00  0.00    +0.000 C 
ATOM     19  O   UNL     1      50.976   9.094  15.857  0.00  0.00    +0.000 OA
ATOM     20  N   UNL     1      50.836   7.422  14.310  0.00  0.00    +0.000 N 
ATOM     21  H   UNL     1      50.752   6.423  14.164  0.00  0.00    +0.000 HD
BRANCH  18  29
ATOM     22  C   UNL     1      47.219   3.867  16.988  0.00  0.00    +0.000 C 
ATOM     23  N   UNL     1      48.546   4.314  17.348  0.00  0.00    +0.000 N 
ATOM     24  C   UNL     1      49.270   3.664  18.326  0.00  0.00    +0.000 A 
ATOM     25  N   UNL     1      50.464   3.978  18.711  0.00  0.00    +0.000 NA
ATOM     26  C   UNL     1      50.998   5.050  18.074  0.00  0.00    +0.000 A 
ATOM     27  S   UNL     1      52.545   5.633  18.482  0.00  0.00    +0.000 S 
ATOM     28  C   UNL     1      52.434   6.895  17.340  0.00  0.00    +0.000 A 
ATOM     29  C   UNL     1      51.251   6.879  16.614  0.00  0.00    +0.000 A 
ATOM     30  C   UNL     1      50.412   5.792  17.067  0.00  0.00    +0.000 A 
ATOM     31  C   UNL     1      49.081   5.389  16.646  0.00  0.00    +0.000 A 
ATOM     32  O   UNL     1      48.483   5.937  15.721  0.00  0.00    +0.000 OA
ENDBRANCH  18  29
ENDBRANCH   1  20
TORSDOF 7
ENDMDL
MODEL 5
REMARK VINA RESULT:    -6.414      3.453      9.061
REMARK INTER + INTRA:         -10.221
REMARK INTER:                  -9.294
REMARK INTRA:                  -0.927
REMARK UNBOUND:                -1.182
REMARK  Name = 
REMARK  9 active torsions:
REMARK  status: ('A' for Active; 'I' for Inactive)
REMARK    1  A    between atoms: C_1  and  N_2
REMARK    2  A    between atoms: C_8  and  C_9
REMARK    3  A    between atoms: N_11  and  C_12
REMARK    4  A    between atoms: C_12  and  C_13
REMARK    5  A    between atoms: C_16  and  C_17
REMARK    6  A    between atoms: C_17  and  N_18
REMARK    7  A    between atoms: N_18  and  C_19
REMARK    8  A    between atoms: C_19  and  C_20
REMARK    9  A    between atoms: C_20  and  C_21
REMARK                            x       y       z     vdW  Elec       q    Type
REMARK                         _______ _______ _______ _____ _____    ______ ____
ROOT
ATOM      1  C   UNL     1      48.077   3.545  17.867  0.00  0.00    +0.000 C 
ENDROOT
BRANCH   1   2
ATOM      2  C   UNL     1      47.896   4.328  16.604  0.00  0.00    +0.000 A 
ATOM      3  C   UNL     1      48.533   5.557  16.422  0.00  0.00    +0.000 A 
ATOM      4  C   UNL     1      48.352   6.262  15.239  0.00  0.00    +0.000 A 
ATOM      5  C   UNL     1      47.526   5.718  14.258  0.00  0.00    +0.000 A 
ATOM      6  N   UNL     1      46.923   4.506  14.396  0.00  0.00    +0.000 NA
ATOM      7  C   UNL     1      47.123   3.847  15.557  0.00  0.00    +0.000 A 
BRANCH   5   8
ATOM      8  C   UNL     1      47.278   6.494  12.972  0.00  0.00    +0.000 C 
BRANCH   8   9
ATOM      9  N   UNL     1      45.866   6.831  12.727  0.00  0.00    +0.000 NA
ATOM     10  H   UNL     1      45.820   7.850  12.614  0.00  0.00    +0.000 HD
BRANCH   9  11
ATOM     11  C   UNL     1      45.391   6.235  11.465  0.00  0.00    +0.000 C 
BRANCH  11  12
ATOM     12  C   UNL     1      44.343   5.094  11.633  0.00  0.00    +0.000 C 
ATOM     13  C   UNL     1      43.515   5.275  12.898  0.00  0.00    +0.000 C 
ATOM     14  O   UNL     1      43.462   5.031  10.500  0.00  0.00    +0.000 OA
ATOM     15  C   UNL     1      44.125   4.173   9.579  0.00  0.00    +0.000 C 
ATOM     16  C   UNL     1      44.902   3.214  10.449  0.00  0.00    +0.000 C 
ATOM     17  O   UNL     1      45.071   3.856  11.713  0.00  0.00    +0.000 OA
ENDBRANCH  11  12
ENDBRANCH   9  11
ENDBRANCH   8   9
ENDBRANCH   5   8
ENDBRANCH   1   2
BRANCH   1  20
ATOM     18  C   UNL     1      50.136   2.342  17.221  0.00  0.00    +0.000 C 
ATOM     19  O   UNL     1      49.594   1.759  16.285  0.00  0.00    +0.000 OA
ATOM     20  N   UNL     1      49.453   3.175  18.068  0.00  0.00    +0.000 N 
ATOM     21  H   UNL     1      49.972   3.718  18.748  0.00  0.00    +0.000 HD
BRANCH  18  29
ATOM     22  C   UNL     1      53.809   6.675  17.722  0.00  0.00    +0.000 C 
ATOM     23  N   UNL     1      53.783   5.231  17.792  0.00  0.00    +0.000 N 
ATOM     24  C   UNL     1      54.932   4.515  18.062  0.00  0.00    +0.000 A 
ATOM     25  N   UNL     1      55.009   3.227  18.156  0.00  0.00    +0.000 NA
ATOM     26  C   UNL     1      53.836   2.575  17.955  0.00  0.00    +0.000 A 
ATOM     27  S   UNL     1      53.759   0.875  17.998  0.00  0.00    +0.000 S 
ATOM     28  C   UNL     1      52.091   0.884  17.642  0.00  0.00    +0.000 A 
ATOM     29  C   UNL     1      51.561   2.161  17.518  0.00  0.00    +0.000 A 
ATOM     30  C   UNL     1      52.606   3.145  17.695  0.00  0.00    +0.000 A 
ATOM     31  C   UNL     1      52.557   4.596  17.624  0.00  0.00    +0.000 A 
ATOM     32  O   UNL     1      51.509   5.218  17.454  0.00  0.00    +0.000 OA
ENDBRANCH  18  29
ENDBRANCH   1  20
TORSDOF 7
ENDMDL
MODEL 6
REMARK VINA RESULT:    -6.297      3.854      5.415
REMARK INTER + INTRA:         -10.056
REMARK INTER:                  -9.208
REMARK INTRA:                  -0.849
REMARK UNBOUND:                -1.182
REMARK  Name = 
REMARK  9 active torsions:
REMARK  status: ('A' for Active; 'I' for Inactive)
REMARK    1  A    between atoms: C_1  and  N_2
REMARK    2  A    between atoms: C_8  and  C_9
REMARK    3  A    between atoms: N_11  and  C_12
REMARK    4  A    between atoms: C_12  and  C_13
REMARK    5  A    between atoms: C_16  and  C_17
REMARK    6  A    between atoms: C_17  and  N_18
REMARK    7  A    between atoms: N_18  and  C_19
REMARK    8  A    between atoms: C_19  and  C_20
REMARK    9  A    between atoms: C_20  and  C_21
REMARK                            x       y       z     vdW  Elec       q    Type
REMARK                         _______ _______ _______ _____ _____    ______ ____
ROOT
ATOM      1  C   UNL     1      46.113   8.229  12.390  0.00  0.00    +0.000 C 
ENDROOT
BRANCH   1   2
ATOM      2  C   UNL     1      47.594   8.355  12.213  0.00  0.00    +0.000 A 
ATOM      3  C   UNL     1      48.407   7.223  12.126  0.00  0.00    +0.000 A 
ATOM      4  C   UNL     1      49.779   7.366  11.958  0.00  0.00    +0.000 A 
ATOM      5  C   UNL     1      50.311   8.652  11.886  0.00  0.00    +0.000 A 
ATOM      6  N   UNL     1      49.537   9.770  11.931  0.00  0.00    +0.000 NA
ATOM      7  C   UNL     1      48.208   9.594  12.091  0.00  0.00    +0.000 A 
BRANCH   5   8
ATOM      8  C   UNL     1      51.816   8.833  11.747  0.00  0.00    +0.000 C 
BRANCH   8   9
ATOM      9  N   UNL     1      52.502   7.724  11.063  0.00  0.00    +0.000 NA
ATOM     10  H   UNL     1      51.847   6.935  11.047  0.00  0.00    +0.000 HD
BRANCH   9  11
ATOM     11  C   UNL     1      52.798   8.068   9.661  0.00  0.00    +0.000 C 
BRANCH  11  12
ATOM     12  C   UNL     1      53.297   6.878   8.787  0.00  0.00    +0.000 C 
ATOM     13  C   UNL     1      52.376   6.629   7.600  0.00  0.00    +0.000 C 
ATOM     14  O   UNL     1      54.630   7.116   8.305  0.00  0.00    +0.000 OA
ATOM     15  C   UNL     1      55.476   6.609   9.329  0.00  0.00    +0.000 C 
ATOM     16  C   UNL     1      54.691   5.472   9.939  0.00  0.00    +0.000 C 
ATOM     17  O   UNL     1      53.318   5.712   9.626  0.00  0.00    +0.000 OA
ENDBRANCH  11  12
ENDBRANCH   9  11
ENDBRANCH   8   9
ENDBRANCH   5   8
ENDBRANCH   1   2
BRANCH   1  20
ATOM     18  C   UNL     1      44.518   6.571  11.488  0.00  0.00    +0.000 C 
ATOM     19  O   UNL     1      43.723   7.427  11.107  0.00  0.00    +0.000 OA
ATOM     20  N   UNL     1      45.667   6.879  12.170  0.00  0.00    +0.000 N 
ATOM     21  H   UNL     1      46.340   6.145  12.356  0.00  0.00    +0.000 HD
BRANCH  18  29
ATOM     22  C   UNL     1      46.595   3.700   7.020  0.00  0.00    +0.000 C 
ATOM     23  N   UNL     1      45.781   3.484   8.195  0.00  0.00    +0.000 N 
ATOM     24  C   UNL     1      45.262   2.235   8.476  0.00  0.00    +0.000 A 
ATOM     25  N   UNL     1      44.535   1.938   9.503  0.00  0.00    +0.000 NA
ATOM     26  C   UNL     1      44.283   2.979  10.336  0.00  0.00    +0.000 A 
ATOM     27  S   UNL     1      43.306   2.781  11.717  0.00  0.00    +0.000 S 
ATOM     28  C   UNL     1      43.463   4.428  12.135  0.00  0.00    +0.000 A 
ATOM     29  C   UNL     1      44.275   5.142  11.264  0.00  0.00    +0.000 A 
ATOM     30  C   UNL     1      44.742   4.275  10.205  0.00  0.00    +0.000 A 
ATOM     31  C   UNL     1      45.577   4.560   9.051  0.00  0.00    +0.000 A 
ATOM     32  O   UNL     1      46.090   5.663   8.859  0.00  0.00    +0.000 OA
ENDBRANCH  18  29
ENDBRANCH   1  20
TORSDOF 7
ENDMDL
MODEL 7
REMARK VINA RESULT:    -6.242      2.989      8.418
REMARK INTER + INTRA:          -9.978
REMARK INTER:                  -8.577
REMARK INTRA:                  -1.401
REMARK UNBOUND:                -1.182
REMARK  Name = 
REMARK  9 active torsions:
REMARK  status: ('A' for Active; 'I' for Inactive)
REMARK    1  A    between atoms: C_1  and  N_2
REMARK    2  A    between atoms: C_8  and  C_9
REMARK    3  A    between atoms: N_11  and  C_12
REMARK    4  A    between atoms: C_12  and  C_13
REMARK    5  A    between atoms: C_16  and  C_17
REMARK    6  A    between atoms: C_17  and  N_18
REMARK    7  A    between atoms: N_18  and  C_19
REMARK    8  A    between atoms: C_19  and  C_20
REMARK    9  A    between atoms: C_20  and  C_21
REMARK                            x       y       z     vdW  Elec       q    Type
REMARK                         _______ _______ _______ _____ _____    ______ ____
ROOT
ATOM      1  C   UNL     1      47.276   4.567  14.763  0.00  0.00    +0.000 C 
ENDROOT
BRANCH   1   2
ATOM      2  C   UNL     1      46.273   4.451  13.658  0.00  0.00    +0.000 A 
ATOM      3  C   UNL     1      45.511   5.551  13.260  0.00  0.00    +0.000 A 
ATOM      4  C   UNL     1      44.590   5.418  12.228  0.00  0.00    +0.000 A 
ATOM      5  C   UNL     1      44.448   4.175  11.616  0.00  0.00    +0.000 A 
ATOM      6  N   UNL     1      45.204   3.097  11.961  0.00  0.00    +0.000 NA
ATOM      7  C   UNL     1      46.091   3.262  12.965  0.00  0.00    +0.000 A 
BRANCH   5   8
ATOM      8  C   UNL     1      43.413   3.996  10.514  0.00  0.00    +0.000 C 
BRANCH   8   9
ATOM      9  N   UNL     1      43.714   4.725   9.272  0.00  0.00    +0.000 NA
ATOM     10  H   UNL     1      44.429   5.424   9.504  0.00  0.00    +0.000 HD
BRANCH   9  11
ATOM     11  C   UNL     1      44.301   3.828   8.259  0.00  0.00    +0.000 C 
BRANCH  11  12
ATOM     12  C   UNL     1      45.850   3.922   8.122  0.00  0.00    +0.000 C 
ATOM     13  C   UNL     1      46.397   5.183   8.778  0.00  0.00    +0.000 C 
ATOM     14  O   UNL     1      46.490   2.774   8.705  0.00  0.00    +0.000 OA
ATOM     15  C   UNL     1      46.538   1.819   7.653  0.00  0.00    +0.000 C 
ATOM     16  C   UNL     1      46.652   2.647   6.395  0.00  0.00    +0.000 C 
ATOM     17  O   UNL     1      46.153   3.946   6.717  0.00  0.00    +0.000 OA
ENDBRANCH  11  12
ENDBRANCH   9  11
ENDBRANCH   8   9
ENDBRANCH   5   8
ENDBRANCH   1   2
BRANCH   1  20
ATOM     18  C   UNL     1      48.672   6.354  15.743  0.00  0.00    +0.000 C 
ATOM     19  O   UNL     1      49.512   5.569  16.176  0.00  0.00    +0.000 OA
ATOM     20  N   UNL     1      47.534   5.941  15.102  0.00  0.00    +0.000 N 
ATOM     21  H   UNL     1      46.936   6.633  14.664  0.00  0.00    +0.000 HD
BRANCH  18  29
ATOM     22  C   UNL     1      48.747  10.024  11.379  0.00  0.00    +0.000 C 
ATOM     23  N   UNL     1      48.839  10.016  12.822  0.00  0.00    +0.000 N 
ATOM     24  C   UNL     1      48.992  11.193  13.527  0.00  0.00    +0.000 A 
ATOM     25  N   UNL     1      49.073  11.292  14.814  0.00  0.00    +0.000 NA
ATOM     26  C   UNL     1      49.004  10.110  15.476  0.00  0.00    +0.000 A 
ATOM     27  S   UNL     1      49.136  10.046  17.173  0.00  0.00    +0.000 S 
ATOM     28  C   UNL     1      48.996   8.345  17.177  0.00  0.00    +0.000 A 
ATOM     29  C   UNL     1      48.817   7.804  15.911  0.00  0.00    +0.000 A 
ATOM     30  C   UNL     1      48.834   8.858  14.920  0.00  0.00    +0.000 A 
ATOM     31  C   UNL     1      48.722   8.793  13.473  0.00  0.00    +0.000 A 
ATOM     32  O   UNL     1      48.511   7.741  12.869  0.00  0.00    +0.000 OA
ENDBRANCH  18  29
ENDBRANCH   1  20
TORSDOF 7
ENDMDL
MODEL 8
REMARK VINA RESULT:    -6.179      3.109      4.930
REMARK INTER + INTRA:          -9.890
REMARK INTER:                  -8.365
REMARK INTRA:                  -1.526
REMARK UNBOUND:                -1.182
REMARK  Name = 
REMARK  9 active torsions:
REMARK  status: ('A' for Active; 'I' for Inactive)
REMARK    1  A    between atoms: C_1  and  N_2
REMARK    2  A    between atoms: C_8  and  C_9
REMARK    3  A    between atoms: N_11  and  C_12
REMARK    4  A    between atoms: C_12  and  C_13
REMARK    5  A    between atoms: C_16  and  C_17
REMARK    6  A    between atoms: C_17  and  N_18
REMARK    7  A    between atoms: N_18  and  C_19
REMARK    8  A    between atoms: C_19  and  C_20
REMARK    9  A    between atoms: C_20  and  C_21
REMARK                            x       y       z     vdW  Elec       q    Type
REMARK                         _______ _______ _______ _____ _____    ______ ____
ROOT
ATOM      1  C   UNL     1      47.844   4.125  15.968  0.00  0.00    +0.000 C 
ENDROOT
BRANCH   1   2
ATOM      2  C   UNL     1      48.130   4.889  17.224  0.00  0.00    +0.000 A 
ATOM      3  C   UNL     1      47.115   5.173  18.139  0.00  0.00    +0.000 A 
ATOM      4  C   UNL     1      47.407   5.880  19.300  0.00  0.00    +0.000 A 
ATOM      5  C   UNL     1      48.720   6.293  19.516  0.00  0.00    +0.000 A 
ATOM      6  N   UNL     1      49.734   5.997  18.658  0.00  0.00    +0.000 NA
ATOM      7  C   UNL     1      49.415   5.306  17.543  0.00  0.00    +0.000 A 
BRANCH   5   8
ATOM      8  C   UNL     1      49.054   7.107  20.759  0.00  0.00    +0.000 C 
BRANCH   8   9
ATOM      9  N   UNL     1      48.459   8.453  20.783  0.00  0.00    +0.000 NA
ATOM     10  H   UNL     1      48.443   8.752  21.765  0.00  0.00    +0.000 HD
BRANCH   9  11
ATOM     11  C   UNL     1      49.301   9.418  20.053  0.00  0.00    +0.000 C 
BRANCH  11  12
ATOM     12  C   UNL     1      48.563  10.217  18.937  0.00  0.00    +0.000 C 
ATOM     13  C   UNL     1      47.801  11.406  19.509  0.00  0.00    +0.000 C 
ATOM     14  O   UNL     1      49.487  10.686  17.942  0.00  0.00    +0.000 OA
ATOM     15  C   UNL     1      49.574   9.620  17.004  0.00  0.00    +0.000 C 
ATOM     16  C   UNL     1      48.215   8.965  17.051  0.00  0.00    +0.000 C 
ATOM     17  O   UNL     1      47.636   9.316  18.308  0.00  0.00    +0.000 OA
ENDBRANCH  11  12
ENDBRANCH   9  11
ENDBRANCH   8   9
ENDBRANCH   5   8
ENDBRANCH   1   2
BRANCH   1  20
ATOM     18  C   UNL     1      47.410   5.654  14.077  0.00  0.00    +0.000 C 
ATOM     19  O   UNL     1      48.601   5.898  13.899  0.00  0.00    +0.000 OA
ATOM     20  N   UNL     1      46.963   4.854  15.096  0.00  0.00    +0.000 N 
ATOM     21  H   UNL     1      45.983   4.594  15.124  0.00  0.00    +0.000 HD
BRANCH  18  29
ATOM     22  C   UNL     1      43.288   2.569  11.625  0.00  0.00    +0.000 C 
ATOM     23  N   UNL     1      43.745   3.938  11.711  0.00  0.00    +0.000 N 
ATOM     24  C   UNL     1      43.079   4.949  11.048  0.00  0.00    +0.000 A 
ATOM     25  N   UNL     1      43.400   6.202  11.071  0.00  0.00    +0.000 NA
ATOM     26  C   UNL     1      44.497   6.488  11.816  0.00  0.00    +0.000 A 
ATOM     27  S   UNL     1      45.092   8.080  11.926  0.00  0.00    +0.000 S 
ATOM     28  C   UNL     1      46.383   7.590  12.927  0.00  0.00    +0.000 A 
ATOM     29  C   UNL     1      46.370   6.234  13.220  0.00  0.00    +0.000 A 
ATOM     30  C   UNL     1      45.257   5.598  12.549  0.00  0.00    +0.000 A 
ATOM     31  C   UNL     1      44.846   4.205  12.517  0.00  0.00    +0.000 A 
ATOM     32  O   UNL     1      45.411   3.331  13.175  0.00  0.00    +0.000 OA
ENDBRANCH  18  29
ENDBRANCH   1  20
TORSDOF 7
ENDMDL
MODEL 9
REMARK VINA RESULT:    -5.823      3.203      5.330
REMARK INTER + INTRA:          -9.388
REMARK INTER:                  -7.672
REMARK INTRA:                  -1.715
REMARK UNBOUND:                -1.182
REMARK  Name = 
REMARK  9 active torsions:
REMARK  status: ('A' for Active; 'I' for Inactive)
REMARK    1  A    between atoms: C_1  and  N_2
REMARK    2  A    between atoms: C_8  and  C_9
REMARK    3  A    between atoms: N_11  and  C_12
REMARK    4  A    between atoms: C_12  and  C_13
REMARK    5  A    between atoms: C_16  and  C_17
REMARK    6  A    between atoms: C_17  and  N_18
REMARK    7  A    between atoms: N_18  and  C_19
REMARK    8  A    between atoms: C_19  and  C_20
REMARK    9  A    between atoms: C_20  and  C_21
REMARK                            x       y       z     vdW  Elec       q    Type
REMARK                         _______ _______ _______ _____ _____    ______ ____
ROOT
ATOM      1  C   UNL     1      47.479   3.862  16.475  0.00  0.00    +0.000 C 
ENDROOT
BRANCH   1   2
ATOM      2  C   UNL     1      48.097   4.820  17.445  0.00  0.00    +0.000 A 
ATOM      3  C   UNL     1      47.352   5.363  18.493  0.00  0.00    +0.000 A 
ATOM      4  C   UNL     1      47.950   6.247  19.383  0.00  0.00    +0.000 A 
ATOM      5  C   UNL     1      49.292   6.574  19.198  0.00  0.00    +0.000 A 
ATOM      6  N   UNL     1      50.050   6.031  18.207  0.00  0.00    +0.000 NA
ATOM      7  C   UNL     1      49.437   5.173  17.363  0.00  0.00    +0.000 A 
BRANCH   5   8
ATOM      8  C   UNL     1      49.955   7.574  20.134  0.00  0.00    +0.000 C 
BRANCH   8   9
ATOM      9  N   UNL     1      50.568   8.729  19.456  0.00  0.00    +0.000 NA
ATOM     10  H   UNL     1      51.086   8.359  18.651  0.00  0.00    +0.000 HD
BRANCH   9  11
ATOM     11  C   UNL     1      49.537   9.639  18.924  0.00  0.00    +0.000 C 
BRANCH  11  12
ATOM     12  C   UNL     1      49.542   9.798  17.374  0.00  0.00    +0.000 C 
ATOM     13  C   UNL     1      48.327   9.136  16.739  0.00  0.00    +0.000 C 
ATOM     14  O   UNL     1      49.571  11.185  16.998  0.00  0.00    +0.000 OA
ATOM     15  C   UNL     1      50.954  11.514  16.952  0.00  0.00    +0.000 C 
ATOM     16  C   UNL     1      51.634  10.229  16.546  0.00  0.00    +0.000 C 
ATOM     17  O   UNL     1      50.738   9.169  16.884  0.00  0.00    +0.000 OA
ENDBRANCH  11  12
ENDBRANCH   9  11
ENDBRANCH   8   9
ENDBRANCH   5   8
ENDBRANCH   1   2
BRANCH   1  20
ATOM     18  C   UNL     1      46.718   4.177  14.146  0.00  0.00    +0.000 C 
ATOM     19  O   UNL     1      47.452   3.296  13.704  0.00  0.00    +0.000 OA
ATOM     20  N   UNL     1      46.719   4.548  15.465  0.00  0.00    +0.000 N 
ATOM     21  H   UNL     1      46.013   5.197  15.794  0.00  0.00    +0.000 HD
BRANCH  18  29
ATOM     22  C   UNL     1      47.397   9.693  12.866  0.00  0.00    +0.000 C 
ATOM     23  N   UNL     1      46.495   8.595  12.596  0.00  0.00    +0.000 N 
ATOM     24  C   UNL     1      45.394   8.769  11.781  0.00  0.00    +0.000 A 
ATOM     25  N   UNL     1      44.538   7.851  11.471  0.00  0.00    +0.000 NA
ATOM     26  C   UNL     1      44.784   6.638  12.027  0.00  0.00    +0.000 A 
ATOM     27  S   UNL     1      43.736   5.322  11.763  0.00  0.00    +0.000 S 
ATOM     28  C   UNL     1      44.673   4.301  12.758  0.00  0.00    +0.000 A 
ATOM     29  C   UNL     1      45.801   4.922  13.276  0.00  0.00    +0.000 A 
ATOM     30  C   UNL     1      45.846   6.301  12.843  0.00  0.00    +0.000 A 
ATOM     31  C   UNL     1      46.799   7.355  13.146  0.00  0.00    +0.000 A 
ATOM     32  O   UNL     1      47.814   7.160  13.815  0.00  0.00    +0.000 OA
ENDBRANCH  18  29
ENDBRANCH   1  20
TORSDOF 7
ENDMDL
