MODEL 1
REMARK VINA RESULT:    -7.940      0.000      0.000
REMARK INTER + INTRA:         -10.933
REMARK INTER:                 -10.261
REMARK INTRA:                  -0.671
REMARK UNBOUND:                -0.671
REMARK  Name = 
REMARK  5 active torsions:
REMARK  status: ('A' for Active; 'I' for Inactive)
REMARK    1  A    between atoms: C_2  and  C_5
REMARK    2  A    between atoms: C_9  and  C_10
REMARK    3  A    between atoms: C_10  and  C_11
REMARK    4  A    between atoms: C_11  and  C_12
REMARK    5  A    between atoms: C_16  and  C_17
REMARK                            x       y       z     vdW  Elec       q    Type
REMARK                         _______ _______ _______ _____ _____    ______ ____
ROOT
ATOM      1  C   UNL     1      44.487   2.894  12.042  0.00  0.00    +0.000 C 
ENDROOT
BRANCH   1   2
ATOM      2  C   UNL     1      45.424   3.967  12.544  0.00  0.00    +0.000 A 
ATOM      3  C   UNL     1      46.545   3.687  13.317  0.00  0.00    +0.000 A 
ATOM      4  N   UNL     1      47.405   4.618  13.772  0.00  0.00    +0.000 NA
ATOM      5  C   UNL     1      47.152   5.900  13.427  0.00  0.00    +0.000 A 
ATOM      6  C   UNL     1      46.092   6.324  12.623  0.00  0.00    +0.000 A 
ATOM      7  C   UNL     1      45.223   5.310  12.183  0.00  0.00    +0.000 A 
BRANCH   6   8
ATOM      8  C   UNL     1      45.910   7.742  12.271  0.00  0.00    +0.000 A 
ATOM      9  C   UNL     1      46.857   8.721  12.538  0.00  0.00    +0.000 A 
ATOM     10  N   UNL     1      46.720  10.034  12.244  0.00  0.00    +0.000 NA
ATOM     11  C   UNL     1      45.576  10.376  11.643  0.00  0.00    +0.000 A 
ATOM     12  N   UNL     1      44.580   9.538  11.320  0.00  0.00    +0.000 NA
ATOM     13  C   UNL     1      44.777   8.241  11.648  0.00  0.00    +0.000 A 
ENDBRANCH   6   8
ENDBRANCH   1   2
BRANCH   1  14
ATOM     14  C   UNL     1      43.812   3.205  10.697  0.00  0.00    +0.000 C 
BRANCH  14  19
ATOM     15  C   UNL     1      46.318   2.322   7.952  0.00  0.00    +0.000 A 
ATOM     16  C   UNL     1      46.631   3.597   7.461  0.00  0.00    +0.000 A 
ATOM     17  C   UNL     1      46.041   4.733   8.016  0.00  0.00    +0.000 A 
ATOM     18  C   UNL     1      45.132   4.606   9.066  0.00  0.00    +0.000 A 
ATOM     19  C   UNL     1      44.814   3.342   9.579  0.00  0.00    +0.000 A 
ATOM     20  C   UNL     1      45.416   2.207   9.022  0.00  0.00    +0.000 A 
BRANCH  15  22
ATOM     21  F   UNL     1      48.279   1.045   7.402  0.00  0.00    +0.000 F 
ATOM     22  C   UNL     1      46.920   1.079   7.345  0.00  0.00    +0.000 C 
ATOM     23  F   UNL     1      46.599   0.942   6.027  0.00  0.00    +0.000 F 
ATOM     24  F   UNL     1      46.489  -0.061   7.952  0.00  0.00    +0.000 F 
ENDBRANCH  15  22
ENDBRANCH  14  19
ENDBRANCH   1  14
TORSDOF 5
ENDMDL
MODEL 2
REMARK VINA RESULT:    -7.720      2.199      3.076
REMARK INTER + INTRA:         -10.648
REMARK INTER:                  -9.740
REMARK INTRA:                  -0.908
REMARK UNBOUND:                -0.671
REMARK  Name = 
REMARK  5 active torsions:
REMARK  status: ('A' for Active; 'I' for Inactive)
REMARK    1  A    between atoms: C_2  and  C_5
REMARK    2  A    between atoms: C_9  and  C_10
REMARK    3  A    between atoms: C_10  and  C_11
REMARK    4  A    between atoms: C_11  and  C_12
REMARK    5  A    between atoms: C_16  and  C_17
REMARK                            x       y       z     vdW  Elec       q    Type
REMARK                         _______ _______ _______ _____ _____    ______ ____
ROOT
ATOM      1  C   UNL     1      44.502   5.537  11.027  0.00  0.00    +0.000 C 
ENDROOT
BRANCH   1   2
ATOM      2  C   UNL     1      45.488   5.447  12.168  0.00  0.00    +0.000 A 
ATOM      3  C   UNL     1      45.330   4.565  13.231  0.00  0.00    +0.000 A 
ATOM      4  N   UNL     1      46.194   4.453  14.258  0.00  0.00    +0.000 NA
ATOM      5  C   UNL     1      47.288   5.246  14.223  0.00  0.00    +0.000 A 
ATOM      6  C   UNL     1      47.598   6.145  13.201  0.00  0.00    +0.000 A 
ATOM      7  C   UNL     1      46.657   6.226  12.159  0.00  0.00    +0.000 A 
BRANCH   6   8
ATOM      8  C   UNL     1      48.831   6.950  13.228  0.00  0.00    +0.000 A 
ATOM      9  C   UNL     1      49.538   7.221  14.392  0.00  0.00    +0.000 A 
ATOM     10  N   UNL     1      50.664   7.967  14.460  0.00  0.00    +0.000 NA
ATOM     11  C   UNL     1      51.104   8.457  13.297  0.00  0.00    +0.000 A 
ATOM     12  N   UNL     1      50.529   8.271  12.101  0.00  0.00    +0.000 NA
ATOM     13  C   UNL     1      49.402   7.522  12.103  0.00  0.00    +0.000 A 
ENDBRANCH   6   8
ENDBRANCH   1   2
BRANCH   1  14
ATOM     14  C   UNL     1      45.134   5.517   9.627  0.00  0.00    +0.000 C 
BRANCH  14  19
ATOM     15  C   UNL     1      46.354   2.546   7.557  0.00  0.00    +0.000 A 
ATOM     16  C   UNL     1      45.652   1.496   8.165  0.00  0.00    +0.000 A 
ATOM     17  C   UNL     1      44.788   1.747   9.231  0.00  0.00    +0.000 A 
ATOM     18  C   UNL     1      44.617   3.048   9.701  0.00  0.00    +0.000 A 
ATOM     19  C   UNL     1      45.300   4.114   9.101  0.00  0.00    +0.000 A 
ATOM     20  C   UNL     1      46.160   3.856   8.026  0.00  0.00    +0.000 A 
BRANCH  15  22
ATOM     21  F   UNL     1      46.931   2.844   5.242  0.00  0.00    +0.000 F 
ATOM     22  C   UNL     1      47.318   2.293   6.425  0.00  0.00    +0.000 C 
ATOM     23  F   UNL     1      47.485   0.963   6.179  0.00  0.00    +0.000 F 
ATOM     24  F   UNL     1      48.563   2.783   6.678  0.00  0.00    +0.000 F 
ENDBRANCH  15  22
ENDBRANCH  14  19
ENDBRANCH   1  14
TORSDOF 5
ENDMDL
MODEL 3
REMARK VINA RESULT:    -7.662      2.162      4.353
REMARK INTER + INTRA:         -10.573
REMARK INTER:                  -9.738
REMARK INTRA:                  -0.835
REMARK UNBOUND:                -0.671
REMARK  Name = 
REMARK  5 active torsions:
REMARK  status: ('A' for Active; 'I' for Inactive)
REMARK    1  A    between atoms: C_2  and  C_5
REMARK    2  A    between atoms: C_9  and  C_10
REMARK    3  A    between atoms: C_10  and  C_11
REMARK    4  A    between atoms: C_11  and  C_12
REMARK    5  A    between atoms: C_16  and  C_17
REMARK                            x       y       z     vdW  Elec       q    Type
REMARK                         _______ _______ _______ _____ _____    ______ ____
ROOT
ATOM      1  C   UNL     1      45.034   5.963  11.403  0.00  0.00    +0.000 C 
ENDROOT
BRANCH   1   2
ATOM      2  C   UNL     1      46.269   6.179  12.246  0.00  0.00    +0.000 A 
ATOM      3  C   UNL     1      47.277   7.068  11.891  0.00  0.00    +0.000 A 
ATOM      4  N   UNL     1      48.384   7.291  12.624  0.00  0.00    +0.000 NA
ATOM      5  C   UNL     1      48.493   6.610  13.786  0.00  0.00    +0.000 A 
ATOM      6  C   UNL     1      47.542   5.720  14.289  0.00  0.00    +0.000 A 
ATOM      7  C   UNL     1      46.410   5.520  13.479  0.00  0.00    +0.000 A 
BRANCH   6   8
ATOM      8  C   UNL     1      47.728   5.041  15.583  0.00  0.00    +0.000 A 
ATOM      9  C   UNL     1      47.073   3.867  15.928  0.00  0.00    +0.000 A 
ATOM     10  N   UNL     1      47.206   3.223  17.111  0.00  0.00    +0.000 NA
ATOM     11  C   UNL     1      48.047   3.786  17.984  0.00  0.00    +0.000 A 
ATOM     12  N   UNL     1      48.748   4.911  17.783  0.00  0.00    +0.000 NA
ATOM     13  C   UNL     1      48.564   5.509  16.584  0.00  0.00    +0.000 A 
ENDBRANCH   6   8
ENDBRANCH   1   2
BRANCH   1  14
ATOM     14  C   UNL     1      45.295   5.872   9.891  0.00  0.00    +0.000 C 
BRANCH  14  19
ATOM     15  C   UNL     1      46.061   2.735   7.850  0.00  0.00    +0.000 A 
ATOM     16  C   UNL     1      45.279   1.785   8.523  0.00  0.00    +0.000 A 
ATOM     17  C   UNL     1      44.507   2.158   9.623  0.00  0.00    +0.000 A 
ATOM     18  C   UNL     1      44.509   3.480  10.063  0.00  0.00    +0.000 A 
ATOM     19  C   UNL     1      45.274   4.447   9.398  0.00  0.00    +0.000 A 
ATOM     20  C   UNL     1      46.041   4.068   8.290  0.00  0.00    +0.000 A 
BRANCH  15  22
ATOM     21  F   UNL     1      46.506   2.861   5.490  0.00  0.00    +0.000 F 
ATOM     22  C   UNL     1      46.929   2.347   6.678  0.00  0.00    +0.000 C 
ATOM     23  F   UNL     1      46.983   0.997   6.501  0.00  0.00    +0.000 F 
ATOM     24  F   UNL     1      48.219   2.754   6.825  0.00  0.00    +0.000 F 
ENDBRANCH  15  22
ENDBRANCH  14  19
ENDBRANCH   1  14
TORSDOF 5
ENDMDL
MODEL 4
REMARK VINA RESULT:    -7.479      1.655      2.548
REMARK INTER + INTRA:         -10.337
REMARK INTER:                  -9.165
REMARK INTRA:                  -1.172
REMARK UNBOUND:                -0.671
REMARK  Name = 
REMARK  5 active torsions:
REMARK  status: ('A' for Active; 'I' for Inactive)
REMARK    1  A    between atoms: C_2  and  C_5
REMARK    2  A    between atoms: C_9  and  C_10
REMARK    3  A    between atoms: C_10  and  C_11
REMARK    4  A    between atoms: C_11  and  C_12
REMARK    5  A    between atoms: C_16  and  C_17
REMARK                            x       y       z     vdW  Elec       q    Type
REMARK                         _______ _______ _______ _____ _____    ______ ____
ROOT
ATOM      1  C   UNL     1      43.921   4.880  12.398  0.00  0.00    +0.000 C 
ENDROOT
BRANCH   1   2
ATOM      2  C   UNL     1      45.330   5.326  12.710  0.00  0.00    +0.000 A 
ATOM      3  C   UNL     1      46.261   4.501  13.331  0.00  0.00    +0.000 A 
ATOM      4  N   UNL     1      47.527   4.863  13.614  0.00  0.00    +0.000 NA
ATOM      5  C   UNL     1      47.900   6.108  13.245  0.00  0.00    +0.000 A 
ATOM      6  C   UNL     1      47.088   7.028  12.578  0.00  0.00    +0.000 A 
ATOM      7  C   UNL     1      45.776   6.598  12.314  0.00  0.00    +0.000 A 
BRANCH   6   8
ATOM      8  C   UNL     1      47.588   8.356  12.184  0.00  0.00    +0.000 A 
ATOM      9  C   UNL     1      46.790   9.492  12.154  0.00  0.00    +0.000 A 
ATOM     10  N   UNL     1      47.208  10.724  11.784  0.00  0.00    +0.000 NA
ATOM     11  C   UNL     1      48.496  10.818  11.437  0.00  0.00    +0.000 A 
ATOM     12  N   UNL     1      49.380   9.810  11.427  0.00  0.00    +0.000 NA
ATOM     13  C   UNL     1      48.896   8.603  11.799  0.00  0.00    +0.000 A 
ENDBRANCH   6   8
ENDBRANCH   1   2
BRANCH   1  14
ATOM     14  C   UNL     1      43.520   4.996  10.919  0.00  0.00    +0.000 C 
BRANCH  14  19
ATOM     15  C   UNL     1      45.785   3.351   8.319  0.00  0.00    +0.000 A 
ATOM     16  C   UNL     1      45.482   1.997   8.525  0.00  0.00    +0.000 A 
ATOM     17  C   UNL     1      44.549   1.621   9.491  0.00  0.00    +0.000 A 
ATOM     18  C   UNL     1      43.912   2.592  10.263  0.00  0.00    +0.000 A 
ATOM     19  C   UNL     1      44.192   3.950  10.067  0.00  0.00    +0.000 A 
ATOM     20  C   UNL     1      45.123   4.321   9.089  0.00  0.00    +0.000 A 
BRANCH  15  22
ATOM     21  F   UNL     1      46.324   3.878   6.036  0.00  0.00    +0.000 F 
ATOM     22  C   UNL     1      46.814   3.778   7.302  0.00  0.00    +0.000 C 
ATOM     23  F   UNL     1      47.859   2.906   7.229  0.00  0.00    +0.000 F 
ATOM     24  F   UNL     1      47.363   4.990   7.590  0.00  0.00    +0.000 F 
ENDBRANCH  15  22
ENDBRANCH  14  19
ENDBRANCH   1  14
TORSDOF 5
ENDMDL
MODEL 5
REMARK VINA RESULT:    -7.435      2.321      3.267
REMARK INTER + INTRA:         -10.280
REMARK INTER:                  -9.424
REMARK INTRA:                  -0.856
REMARK UNBOUND:                -0.671
REMARK  Name = 
REMARK  5 active torsions:
REMARK  status: ('A' for Active; 'I' for Inactive)
REMARK    1  A    between atoms: C_2  and  C_5
REMARK    2  A    between atoms: C_9  and  C_10
REMARK    3  A    between atoms: C_10  and  C_11
REMARK    4  A    between atoms: C_11  and  C_12
REMARK    5  A    between atoms: C_16  and  C_17
REMARK                            x       y       z     vdW  Elec       q    Type
REMARK                         _______ _______ _______ _____ _____    ______ ____
ROOT
ATOM      1  C   UNL     1      45.264   5.703  11.700  0.00  0.00    +0.000 C 
ENDROOT
BRANCH   1   2
ATOM      2  C   UNL     1      46.554   6.117  12.369  0.00  0.00    +0.000 A 
ATOM      3  C   UNL     1      46.998   5.554  13.559  0.00  0.00    +0.000 A 
ATOM      4  N   UNL     1      48.146   5.893  14.177  0.00  0.00    +0.000 NA
ATOM      5  C   UNL     1      48.909   6.831  13.572  0.00  0.00    +0.000 A 
ATOM      6  C   UNL     1      48.610   7.450  12.356  0.00  0.00    +0.000 A 
ATOM      7  C   UNL     1      47.397   7.063  11.761  0.00  0.00    +0.000 A 
BRANCH   6   8
ATOM      8  C   UNL     1      49.516   8.442  11.753  0.00  0.00    +0.000 A 
ATOM      9  C   UNL     1      49.134   9.745  11.464  0.00  0.00    +0.000 A 
ATOM     10  N   UNL     1      49.931  10.679  10.897  0.00  0.00    +0.000 NA
ATOM     11  C   UNL     1      51.176  10.283  10.614  0.00  0.00    +0.000 A 
ATOM     12  N   UNL     1      51.680   9.063  10.843  0.00  0.00    +0.000 NA
ATOM     13  C   UNL     1      50.830   8.174  11.405  0.00  0.00    +0.000 A 
ENDBRANCH   6   8
ENDBRANCH   1   2
BRANCH   1  14
ATOM     14  C   UNL     1      45.283   5.772  10.165  0.00  0.00    +0.000 C 
BRANCH  14  19
ATOM     15  C   UNL     1      46.098   2.852   7.840  0.00  0.00    +0.000 A 
ATOM     16  C   UNL     1      45.313   1.838   8.406  0.00  0.00    +0.000 A 
ATOM     17  C   UNL     1      44.523   2.098   9.526  0.00  0.00    +0.000 A 
ATOM     18  C   UNL     1      44.511   3.372  10.093  0.00  0.00    +0.000 A 
ATOM     19  C   UNL     1      45.279   4.402   9.536  0.00  0.00    +0.000 A 
ATOM     20  C   UNL     1      46.063   4.137   8.407  0.00  0.00    +0.000 A 
BRANCH  15  22
ATOM     21  F   UNL     1      46.688   3.351   5.563  0.00  0.00    +0.000 F 
ATOM     22  C   UNL     1      46.984   2.585   6.649  0.00  0.00    +0.000 C 
ATOM     23  F   UNL     1      46.902   1.292   6.225  0.00  0.00    +0.000 F 
ATOM     24  F   UNL     1      48.301   2.805   6.916  0.00  0.00    +0.000 F 
ENDBRANCH  15  22
ENDBRANCH  14  19
ENDBRANCH   1  14
TORSDOF 5
ENDMDL
MODEL 6
REMARK VINA RESULT:    -7.334      2.638      5.120
REMARK INTER + INTRA:         -10.149
REMARK INTER:                  -9.156
REMARK INTRA:                  -0.993
REMARK UNBOUND:                -0.671
REMARK  Name = 
REMARK  5 active torsions:
REMARK  status: ('A' for Active; 'I' for Inactive)
REMARK    1  A    between atoms: C_2  and  C_5
REMARK    2  A    between atoms: C_9  and  C_10
REMARK    3  A    between atoms: C_10  and  C_11
REMARK    4  A    between atoms: C_11  and  C_12
REMARK    5  A    between atoms: C_16  and  C_17
REMARK                            x       y       z     vdW  Elec       q    Type
REMARK                         _______ _______ _______ _____ _____    ______ ____
ROOT
ATOM      1  C   UNL     1      46.850   6.791  11.517  0.00  0.00    +0.000 C 
ENDROOT
BRANCH   1   2
ATOM      2  C   UNL     1      47.670   6.893  12.781  0.00  0.00    +0.000 A 
ATOM      3  C   UNL     1      48.558   7.935  13.020  0.00  0.00    +0.000 A 
ATOM      4  N   UNL     1      49.296   8.061  14.140  0.00  0.00    +0.000 NA
ATOM      5  C   UNL     1      49.134   7.110  15.086  0.00  0.00    +0.000 A 
ATOM      6  C   UNL     1      48.250   6.033  15.002  0.00  0.00    +0.000 A 
ATOM      7  C   UNL     1      47.510   5.948  13.809  0.00  0.00    +0.000 A 
BRANCH   6   8
ATOM      8  C   UNL     1      48.114   5.058  16.097  0.00  0.00    +0.000 A 
ATOM      9  C   UNL     1      47.074   4.141  16.176  0.00  0.00    +0.000 A 
ATOM     10  N   UNL     1      46.907   3.242  17.173  0.00  0.00    +0.000 NA
ATOM     11  C   UNL     1      47.837   3.261  18.132  0.00  0.00    +0.000 A 
ATOM     12  N   UNL     1      48.895   4.083  18.180  0.00  0.00    +0.000 NA
ATOM     13  C   UNL     1      49.000   4.963  17.158  0.00  0.00    +0.000 A 
ENDBRANCH   6   8
ENDBRANCH   1   2
BRANCH   1  14
ATOM     14  C   UNL     1      45.329   6.768  11.735  0.00  0.00    +0.000 C 
BRANCH  14  19
ATOM     15  C   UNL     1      44.514   3.333  10.275  0.00  0.00    +0.000 A 
ATOM     16  C   UNL     1      43.735   2.787  11.306  0.00  0.00    +0.000 A 
ATOM     17  C   UNL     1      43.471   3.526  12.459  0.00  0.00    +0.000 A 
ATOM     18  C   UNL     1      43.984   4.815  12.596  0.00  0.00    +0.000 A 
ATOM     19  C   UNL     1      44.755   5.383  11.574  0.00  0.00    +0.000 A 
ATOM     20  C   UNL     1      45.009   4.640  10.416  0.00  0.00    +0.000 A 
BRANCH  15  22
ATOM     21  F   UNL     1      46.172   2.344   8.842  0.00  0.00    +0.000 F 
ATOM     22  C   UNL     1      44.838   2.540   9.034  0.00  0.00    +0.000 C 
ATOM     23  F   UNL     1      44.385   3.147   7.901  0.00  0.00    +0.000 F 
ATOM     24  F   UNL     1      44.274   1.301   9.042  0.00  0.00    +0.000 F 
ENDBRANCH  15  22
ENDBRANCH  14  19
ENDBRANCH   1  14
TORSDOF 5
ENDMDL
MODEL 7
REMARK VINA RESULT:    -6.684      4.657      7.668
REMARK INTER + INTRA:          -9.310
REMARK INTER:                  -8.349
REMARK INTRA:                  -0.960
REMARK UNBOUND:                -0.671
REMARK  Name = 
REMARK  5 active torsions:
REMARK  status: ('A' for Active; 'I' for Inactive)
REMARK    1  A    between atoms: C_2  and  C_5
REMARK    2  A    between atoms: C_9  and  C_10
REMARK    3  A    between atoms: C_10  and  C_11
REMARK    4  A    between atoms: C_11  and  C_12
REMARK    5  A    between atoms: C_16  and  C_17
REMARK                            x       y       z     vdW  Elec       q    Type
REMARK                         _______ _______ _______ _____ _____    ______ ____
ROOT
ATOM      1  C   UNL     1      48.780   7.434  13.652  0.00  0.00    +0.000 C 
ENDROOT
BRANCH   1   2
ATOM      2  C   UNL     1      47.416   7.433  13.004  0.00  0.00    +0.000 A 
ATOM      3  C   UNL     1      46.810   8.587  12.523  0.00  0.00    +0.000 A 
ATOM      4  N   UNL     1      45.601   8.620  11.931  0.00  0.00    +0.000 NA
ATOM      5  C   UNL     1      44.960   7.438  11.789  0.00  0.00    +0.000 A 
ATOM      6  C   UNL     1      45.464   6.198  12.185  0.00  0.00    +0.000 A 
ATOM      7  C   UNL     1      46.726   6.225  12.803  0.00  0.00    +0.000 A 
BRANCH   6   8
ATOM      8  C   UNL     1      44.709   4.953  11.964  0.00  0.00    +0.000 A 
ATOM      9  C   UNL     1      44.312   4.110  12.993  0.00  0.00    +0.000 A 
ATOM     10  N   UNL     1      43.632   2.952  12.829  0.00  0.00    +0.000 NA
ATOM     11  C   UNL     1      43.330   2.632  11.567  0.00  0.00    +0.000 A 
ATOM     12  N   UNL     1      43.642   3.352  10.481  0.00  0.00    +0.000 NA
ATOM     13  C   UNL     1      44.329   4.494  10.713  0.00  0.00    +0.000 A 
ENDBRANCH   6   8
ENDBRANCH   1   2
BRANCH   1  14
ATOM     14  C   UNL     1      48.781   7.781  15.149  0.00  0.00    +0.000 C 
BRANCH  14  19
ATOM     15  C   UNL     1      48.966   4.490  17.082  0.00  0.00    +0.000 A 
ATOM     16  C   UNL     1      50.301   4.511  17.510  0.00  0.00    +0.000 A 
ATOM     17  C   UNL     1      51.132   5.582  17.182  0.00  0.00    +0.000 A 
ATOM     18  C   UNL     1      50.639   6.642  16.421  0.00  0.00    +0.000 A 
ATOM     19  C   UNL     1      49.305   6.646  15.993  0.00  0.00    +0.000 A 
ATOM     20  C   UNL     1      48.475   5.572  16.333  0.00  0.00    +0.000 A 
BRANCH  15  22
ATOM     21  F   UNL     1      48.305   2.220  16.643  0.00  0.00    +0.000 F 
ATOM     22  C   UNL     1      48.060   3.327  17.398  0.00  0.00    +0.000 C 
ATOM     23  F   UNL     1      46.746   3.628  17.200  0.00  0.00    +0.000 F 
ATOM     24  F   UNL     1      48.157   2.925  18.695  0.00  0.00    +0.000 F 
ENDBRANCH  15  22
ENDBRANCH  14  19
ENDBRANCH   1  14
TORSDOF 5
ENDMDL
MODEL 8
REMARK VINA RESULT:    -6.606      4.489      7.616
REMARK INTER + INTRA:          -9.208
REMARK INTER:                  -8.193
REMARK INTRA:                  -1.015
REMARK UNBOUND:                -0.671
REMARK  Name = 
REMARK  5 active torsions:
REMARK  status: ('A' for Active; 'I' for Inactive)
REMARK    1  A    between atoms: C_2  and  C_5
REMARK    2  A    between atoms: C_9  and  C_10
REMARK    3  A    between atoms: C_10  and  C_11
REMARK    4  A    between atoms: C_11  and  C_12
REMARK    5  A    between atoms: C_16  and  C_17
REMARK                            x       y       z     vdW  Elec       q    Type
REMARK                         _______ _______ _______ _____ _____    ______ ____
ROOT
ATOM      1  C   UNL     1      49.281   7.259  14.403  0.00  0.00    +0.000 C 
ENDROOT
BRANCH   1   2
ATOM      2  C   UNL     1      47.982   7.460  13.660  0.00  0.00    +0.000 A 
ATOM      3  C   UNL     1      47.561   8.704  13.203  0.00  0.00    +0.000 A 
ATOM      4  N   UNL     1      46.415   8.917  12.529  0.00  0.00    +0.000 NA
ATOM      5  C   UNL     1      45.648   7.833  12.276  0.00  0.00    +0.000 A 
ATOM      6  C   UNL     1      45.963   6.522  12.635  0.00  0.00    +0.000 A 
ATOM      7  C   UNL     1      47.167   6.360  13.343  0.00  0.00    +0.000 A 
BRANCH   6   8
ATOM      8  C   UNL     1      45.081   5.394  12.291  0.00  0.00    +0.000 A 
ATOM      9  C   UNL     1      44.455   5.265  11.059  0.00  0.00    +0.000 A 
ATOM     10  N   UNL     1      43.627   4.253  10.711  0.00  0.00    +0.000 NA
ATOM     11  C   UNL     1      43.428   3.321  11.648  0.00  0.00    +0.000 A 
ATOM     12  N   UNL     1      43.970   3.314  12.873  0.00  0.00    +0.000 NA
ATOM     13  C   UNL     1      44.782   4.357  13.160  0.00  0.00    +0.000 A 
ENDBRANCH   6   8
ENDBRANCH   1   2
BRANCH   1  14
ATOM     14  C   UNL     1      49.290   7.798  15.842  0.00  0.00    +0.000 C 
BRANCH  14  19
ATOM     15  C   UNL     1      48.022   4.542  17.387  0.00  0.00    +0.000 A 
ATOM     16  C   UNL     1      47.623   4.990  18.655  0.00  0.00    +0.000 A 
ATOM     17  C   UNL     1      47.757   6.333  19.004  0.00  0.00    +0.000 A 
ATOM     18  C   UNL     1      48.293   7.242  18.093  0.00  0.00    +0.000 A 
ATOM     19  C   UNL     1      48.688   6.818  16.817  0.00  0.00    +0.000 A 
ATOM     20  C   UNL     1      48.542   5.469  16.470  0.00  0.00    +0.000 A 
BRANCH  15  22
ATOM     21  F   UNL     1      49.052   2.375  17.232  0.00  0.00    +0.000 F 
ATOM     22  C   UNL     1      47.915   3.088  17.001  0.00  0.00    +0.000 C 
ATOM     23  F   UNL     1      47.637   2.925  15.676  0.00  0.00    +0.000 F 
ATOM     24  F   UNL     1      46.923   2.439  17.670  0.00  0.00    +0.000 F 
ENDBRANCH  15  22
ENDBRANCH  14  19
ENDBRANCH   1  14
TORSDOF 5
ENDMDL
MODEL 9
REMARK VINA RESULT:    -6.237      3.449      4.742
REMARK INTER + INTRA:          -8.731
REMARK INTER:                  -7.941
REMARK INTRA:                  -0.790
REMARK UNBOUND:                -0.671
REMARK  Name = 
REMARK  5 active torsions:
REMARK  status: ('A' for Active; 'I' for Inactive)
REMARK    1  A    between atoms: C_2  and  C_5
REMARK    2  A    between atoms: C_9  and  C_10
REMARK    3  A    between atoms: C_10  and  C_11
REMARK    4  A    between atoms: C_11  and  C_12
REMARK    5  A    between atoms: C_16  and  C_17
REMARK                            x       y       z     vdW  Elec       q    Type
REMARK                         _______ _______ _______ _____ _____    ______ ____
ROOT
ATOM      1  C   UNL     1      45.958   7.222  11.588  0.00  0.00    +0.000 C 
ENDROOT
BRANCH   1   2
ATOM      2  C   UNL     1      47.334   7.267  12.211  0.00  0.00    +0.000 A 
ATOM      3  C   UNL     1      47.581   6.862  13.517  0.00  0.00    +0.000 A 
ATOM      4  N   UNL     1      48.795   6.879  14.100  0.00  0.00    +0.000 NA
ATOM      5  C   UNL     1      49.829   7.305  13.340  0.00  0.00    +0.000 A 
ATOM      6  C   UNL     1      49.737   7.700  12.004  0.00  0.00    +0.000 A 
ATOM      7  C   UNL     1      48.445   7.668  11.450  0.00  0.00    +0.000 A 
BRANCH   6   8
ATOM      8  C   UNL     1      50.923   8.121  11.240  0.00  0.00    +0.000 A 
ATOM      9  C   UNL     1      51.496   9.381  11.356  0.00  0.00    +0.000 A 
ATOM     10  N   UNL     1      52.575   9.809  10.662  0.00  0.00    +0.000 NA
ATOM     11  C   UNL     1      53.108   8.922   9.816  0.00  0.00    +0.000 A 
ATOM     12  N   UNL     1      52.666   7.674   9.609  0.00  0.00    +0.000 NA
ATOM     13  C   UNL     1      51.579   7.310  10.328  0.00  0.00    +0.000 A 
ENDBRANCH   6   8
ENDBRANCH   1   2
BRANCH   1  14
ATOM     14  C   UNL     1      44.863   6.626  12.486  0.00  0.00    +0.000 C 
BRANCH  14  19
ATOM     15  C   UNL     1      44.355   3.538  10.295  0.00  0.00    +0.000 A 
ATOM     16  C   UNL     1      43.697   2.684  11.192  0.00  0.00    +0.000 A 
ATOM     17  C   UNL     1      43.415   3.106  12.491  0.00  0.00    +0.000 A 
ATOM     18  C   UNL     1      43.789   4.383  12.908  0.00  0.00    +0.000 A 
ATOM     19  C   UNL     1      44.437   5.255  12.025  0.00  0.00    +0.000 A 
ATOM     20  C   UNL     1      44.710   4.828  10.720  0.00  0.00    +0.000 A 
BRANCH  15  22
ATOM     21  F   UNL     1      44.387   4.004   7.937  0.00  0.00    +0.000 F 
ATOM     22  C   UNL     1      44.699   3.090   8.896  0.00  0.00    +0.000 C 
ATOM     23  F   UNL     1      44.046   1.946   8.546  0.00  0.00    +0.000 F 
ATOM     24  F   UNL     1      46.025   2.823   8.743  0.00  0.00    +0.000 F 
ENDBRANCH  15  22
ENDBRANCH  14  19
ENDBRANCH   1  14
TORSDOF 5
ENDMDL
