MODEL 1
REMARK VINA RESULT:    -8.785      0.000      0.000
REMARK INTER + INTRA:         -11.463
REMARK INTER:                 -10.839
REMARK INTRA:                  -0.624
REMARK UNBOUND:                -0.624
REMARK  Name = 
REMARK  4 active torsions:
REMARK  status: ('A' for Active; 'I' for Inactive)
REMARK    1  A    between atoms: C_2  and  C_4
REMARK    2  A    between atoms: N_8  and  C_9
REMARK    3  A    between atoms: C_9  and  C_10
REMARK    4  A    between atoms: C_14  and  C_15
REMARK                            x       y       z     vdW  Elec       q    Type
REMARK                         _______ _______ _______ _____ _____    ______ ____
ROOT
ATOM      1  C   UNL     1      43.484   3.755  11.122  0.00  0.00    +0.000 C 
ENDROOT
BRANCH   1   6
ATOM      2  C   UNL     1      46.612   2.491   7.205  0.00  0.00    +0.000 A 
ATOM      3  C   UNL     1      46.017   3.706   7.526  0.00  0.00    +0.000 A 
ATOM      4  C   UNL     1      45.187   3.781   8.645  0.00  0.00    +0.000 A 
ATOM      5  C   UNL     1      44.967   2.650   9.422  0.00  0.00    +0.000 A 
ATOM      6  N   UNL     1      44.244   2.653  10.580  0.00  0.00    +0.000 N 
ATOM      7  N   UNL     1      45.502   1.457   9.090  0.00  0.00    +0.000 NA
ATOM      8  C   UNL     1      46.303   1.395   7.994  0.00  0.00    +0.000 A 
ATOM      9  H   UNL     1      44.134   1.731  10.982  0.00  0.00    +0.000 HD
BRANCH   2  11
ATOM     10  N   UNL     1      47.474   3.265   5.075  0.00  0.00    +0.000 N 
ATOM     11  C   UNL     1      47.547   2.332   6.073  0.00  0.00    +0.000 C 
ATOM     12  O   UNL     1      48.378   1.436   6.048  0.00  0.00    +0.000 OA
ATOM     13  H   UNL     1      48.189   3.218   4.360  0.00  0.00    +0.000 HD
ATOM     14  H   UNL     1      46.991   4.146   5.187  0.00  0.00    +0.000 HD
ENDBRANCH   2  11
ENDBRANCH   1   6
BRANCH   1  15
ATOM     15  C   UNL     1      44.363   4.800  11.766  0.00  0.00    +0.000 A 
ATOM     16  C   UNL     1      44.377   6.110  11.286  0.00  0.00    +0.000 A 
ATOM     17  C   UNL     1      45.229   7.024  11.883  0.00  0.00    +0.000 A 
ATOM     18  N   UNL     1      46.056   6.726  12.909  0.00  0.00    +0.000 NA
ATOM     19  C   UNL     1      46.049   5.455  13.381  0.00  0.00    +0.000 A 
ATOM     20  C   UNL     1      45.233   4.475  12.815  0.00  0.00    +0.000 A 
BRANCH  19  21
ATOM     21  C   UNL     1      46.950   5.178  14.510  0.00  0.00    +0.000 A 
ATOM     22  C   UNL     1      47.990   6.053  14.845  0.00  0.00    +0.000 A 
ATOM     23  N   UNL     1      48.879   5.865  15.858  0.00  0.00    +0.000 NA
ATOM     24  C   UNL     1      48.719   4.742  16.590  0.00  0.00    +0.000 A 
ATOM     25  C   UNL     1      47.719   3.817  16.356  0.00  0.00    +0.000 A 
ATOM     26  F   UNL     1      47.609   2.721  17.117  0.00  0.00    +0.000 F 
ATOM     27  C   UNL     1      46.829   4.035  15.314  0.00  0.00    +0.000 A 
ENDBRANCH  19  21
ENDBRANCH   1  15
TORSDOF 4
ENDMDL
MODEL 2
REMARK VINA RESULT:    -8.390      2.957      4.461
REMARK INTER + INTRA:         -10.975
REMARK INTER:                 -10.422
REMARK INTRA:                  -0.554
REMARK UNBOUND:                -0.624
REMARK  Name = 
REMARK  4 active torsions:
REMARK  status: ('A' for Active; 'I' for Inactive)
REMARK    1  A    between atoms: C_2  and  C_4
REMARK    2  A    between atoms: N_8  and  C_9
REMARK    3  A    between atoms: C_9  and  C_10
REMARK    4  A    between atoms: C_14  and  C_15
REMARK                            x       y       z     vdW  Elec       q    Type
REMARK                         _______ _______ _______ _____ _____    ______ ____
ROOT
ATOM      1  C   UNL     1      43.460   3.720  11.360  0.00  0.00    +0.000 C 
ENDROOT
BRANCH   1   6
ATOM      2  C   UNL     1      46.515   2.768   7.300  0.00  0.00    +0.000 A 
ATOM      3  C   UNL     1      45.964   3.962   7.752  0.00  0.00    +0.000 A 
ATOM      4  C   UNL     1      45.145   3.947   8.881  0.00  0.00    +0.000 A 
ATOM      5  C   UNL     1      44.892   2.749   9.539  0.00  0.00    +0.000 A 
ATOM      6  N   UNL     1      44.178   2.656  10.698  0.00  0.00    +0.000 N 
ATOM      7  N   UNL     1      45.383   1.581   9.080  0.00  0.00    +0.000 NA
ATOM      8  C   UNL     1      46.174   1.607   7.974  0.00  0.00    +0.000 A 
ATOM      9  H   UNL     1      44.039   1.702  11.004  0.00  0.00    +0.000 HD
BRANCH   2  11
ATOM     10  N   UNL     1      48.741   2.391   6.417  0.00  0.00    +0.000 N 
ATOM     11  C   UNL     1      47.435   2.697   6.148  0.00  0.00    +0.000 C 
ATOM     12  O   UNL     1      47.043   2.860   5.002  0.00  0.00    +0.000 OA
ATOM     13  H   UNL     1      49.342   2.234   5.618  0.00  0.00    +0.000 HD
ATOM     14  H   UNL     1      49.039   2.002   7.302  0.00  0.00    +0.000 HD
ENDBRANCH   2  11
ENDBRANCH   1   6
BRANCH   1  15
ATOM     15  C   UNL     1      44.383   4.750  11.964  0.00  0.00    +0.000 A 
ATOM     16  C   UNL     1      45.318   4.385  12.933  0.00  0.00    +0.000 A 
ATOM     17  C   UNL     1      46.116   5.372  13.487  0.00  0.00    +0.000 A 
ATOM     18  N   UNL     1      46.046   6.678  13.147  0.00  0.00    +0.000 NA
ATOM     19  C   UNL     1      45.141   7.041  12.206  0.00  0.00    +0.000 A 
ATOM     20  C   UNL     1      44.288   6.105  11.621  0.00  0.00    +0.000 A 
BRANCH  19  21
ATOM     21  C   UNL     1      45.110   8.468  11.853  0.00  0.00    +0.000 A 
ATOM     22  C   UNL     1      46.117   9.345  12.271  0.00  0.00    +0.000 A 
ATOM     23  N   UNL     1      46.157  10.680  12.006  0.00  0.00    +0.000 NA
ATOM     24  C   UNL     1      45.138  11.171  11.270  0.00  0.00    +0.000 A 
ATOM     25  C   UNL     1      44.099  10.394  10.793  0.00  0.00    +0.000 A 
ATOM     26  F   UNL     1      43.115  10.937  10.066  0.00  0.00    +0.000 F 
ATOM     27  C   UNL     1      44.085   9.036  11.082  0.00  0.00    +0.000 A 
ENDBRANCH  19  21
ENDBRANCH   1  15
TORSDOF 4
ENDMDL
MODEL 3
REMARK VINA RESULT:    -8.334      1.147      1.368
REMARK INTER + INTRA:         -10.907
REMARK INTER:                 -10.243
REMARK INTRA:                  -0.664
REMARK UNBOUND:                -0.624
REMARK  Name = 
REMARK  4 active torsions:
REMARK  status: ('A' for Active; 'I' for Inactive)
REMARK    1  A    between atoms: C_2  and  C_4
REMARK    2  A    between atoms: N_8  and  C_9
REMARK    3  A    between atoms: C_9  and  C_10
REMARK    4  A    between atoms: C_14  and  C_15
REMARK                            x       y       z     vdW  Elec       q    Type
REMARK                         _______ _______ _______ _____ _____    ______ ____
ROOT
ATOM      1  C   UNL     1      43.647   4.870  11.031  0.00  0.00    +0.000 C 
ENDROOT
BRANCH   1   6
ATOM      2  C   UNL     1      46.559   2.671   7.370  0.00  0.00    +0.000 A 
ATOM      3  C   UNL     1      46.321   4.013   7.646  0.00  0.00    +0.000 A 
ATOM      4  C   UNL     1      45.467   4.349   8.696  0.00  0.00    +0.000 A 
ATOM      5  C   UNL     1      44.868   3.347   9.451  0.00  0.00    +0.000 A 
ATOM      6  N   UNL     1      44.091   3.585  10.548  0.00  0.00    +0.000 N 
ATOM      7  N   UNL     1      45.055   2.044   9.160  0.00  0.00    +0.000 NA
ATOM      8  C   UNL     1      45.884   1.729   8.129  0.00  0.00    +0.000 A 
ATOM      9  H   UNL     1      43.687   2.743  10.938  0.00  0.00    +0.000 HD
BRANCH   2  11
ATOM     10  N   UNL     1      47.514   2.956   5.160  0.00  0.00    +0.000 N 
ATOM     11  C   UNL     1      47.490   2.224   6.315  0.00  0.00    +0.000 C 
ATOM     12  O   UNL     1      48.238   1.272   6.481  0.00  0.00    +0.000 OA
ATOM     13  H   UNL     1      48.230   2.715   4.487  0.00  0.00    +0.000 HD
ATOM     14  H   UNL     1      47.109   3.880   5.091  0.00  0.00    +0.000 HD
ENDBRANCH   2  11
ENDBRANCH   1   6
BRANCH   1  15
ATOM     15  C   UNL     1      44.711   5.588  11.825  0.00  0.00    +0.000 A 
ATOM     16  C   UNL     1      45.063   6.902  11.516  0.00  0.00    +0.000 A 
ATOM     17  C   UNL     1      46.073   7.505  12.247  0.00  0.00    +0.000 A 
ATOM     18  N   UNL     1      46.747   6.897  13.247  0.00  0.00    +0.000 NA
ATOM     19  C   UNL     1      46.411   5.620  13.554  0.00  0.00    +0.000 A 
ATOM     20  C   UNL     1      45.419   4.941  12.847  0.00  0.00    +0.000 A 
BRANCH  19  21
ATOM     21  C   UNL     1      47.157   5.002  14.661  0.00  0.00    +0.000 A 
ATOM     22  C   UNL     1      47.195   3.613  14.828  0.00  0.00    +0.000 A 
ATOM     23  N   UNL     1      47.843   2.961  15.832  0.00  0.00    +0.000 NA
ATOM     24  C   UNL     1      48.501   3.736  16.719  0.00  0.00    +0.000 A 
ATOM     25  C   UNL     1      48.542   5.116  16.642  0.00  0.00    +0.000 A 
ATOM     26  F   UNL     1      49.214   5.833  17.550  0.00  0.00    +0.000 F 
ATOM     27  C   UNL     1      47.870   5.753  15.607  0.00  0.00    +0.000 A 
ENDBRANCH  19  21
ENDBRANCH   1  15
TORSDOF 4
ENDMDL
MODEL 4
REMARK VINA RESULT:    -8.022      3.493      7.174
REMARK INTER + INTRA:         -10.522
REMARK INTER:                  -9.821
REMARK INTRA:                  -0.701
REMARK UNBOUND:                -0.624
REMARK  Name = 
REMARK  4 active torsions:
REMARK  status: ('A' for Active; 'I' for Inactive)
REMARK    1  A    between atoms: C_2  and  C_4
REMARK    2  A    between atoms: N_8  and  C_9
REMARK    3  A    between atoms: C_9  and  C_10
REMARK    4  A    between atoms: C_14  and  C_15
REMARK                            x       y       z     vdW  Elec       q    Type
REMARK                         _______ _______ _______ _____ _____    ______ ____
ROOT
ATOM      1  C   UNL     1      44.551   6.159  12.810  0.00  0.00    +0.000 C 
ENDROOT
BRANCH   1   6
ATOM      2  C   UNL     1      49.471   7.728  12.573  0.00  0.00    +0.000 A 
ATOM      3  C   UNL     1      48.410   7.960  11.705  0.00  0.00    +0.000 A 
ATOM      4  C   UNL     1      47.164   7.399  11.992  0.00  0.00    +0.000 A 
ATOM      5  C   UNL     1      46.998   6.624  13.133  0.00  0.00    +0.000 A 
ATOM      6  N   UNL     1      45.798   6.112  13.535  0.00  0.00    +0.000 N 
ATOM      7  N   UNL     1      48.034   6.355  13.954  0.00  0.00    +0.000 NA
ATOM      8  C   UNL     1      49.244   6.901  13.661  0.00  0.00    +0.000 A 
ATOM      9  H   UNL     1      45.873   5.522  14.353  0.00  0.00    +0.000 HD
BRANCH   2  11
ATOM     10  N   UNL     1      51.763   8.017  13.308  0.00  0.00    +0.000 N 
ATOM     11  C   UNL     1      50.807   8.325  12.379  0.00  0.00    +0.000 C 
ATOM     12  O   UNL     1      51.063   9.026  11.411  0.00  0.00    +0.000 OA
ATOM     13  H   UNL     1      52.703   8.336  13.111  0.00  0.00    +0.000 HD
ATOM     14  H   UNL     1      51.663   7.251  13.960  0.00  0.00    +0.000 HD
ENDBRANCH   2  11
ENDBRANCH   1   6
BRANCH   1  15
ATOM     15  C   UNL     1      44.306   4.907  12.003  0.00  0.00    +0.000 A 
ATOM     16  C   UNL     1      43.382   3.954  12.433  0.00  0.00    +0.000 A 
ATOM     17  C   UNL     1      43.220   2.803  11.680  0.00  0.00    +0.000 A 
ATOM     18  N   UNL     1      43.906   2.541  10.546  0.00  0.00    +0.000 NA
ATOM     19  C   UNL     1      44.806   3.461  10.122  0.00  0.00    +0.000 A 
ATOM     20  C   UNL     1      45.038   4.634  10.840  0.00  0.00    +0.000 A 
BRANCH  19  21
ATOM     21  C   UNL     1      45.518   3.145   8.874  0.00  0.00    +0.000 A 
ATOM     22  C   UNL     1      45.886   4.148   7.970  0.00  0.00    +0.000 A 
ATOM     23  N   UNL     1      46.528   3.942   6.788  0.00  0.00    +0.000 NA
ATOM     24  C   UNL     1      46.831   2.661   6.490  0.00  0.00    +0.000 A 
ATOM     25  C   UNL     1      46.527   1.594   7.314  0.00  0.00    +0.000 A 
ATOM     26  F   UNL     1      46.854   0.344   6.966  0.00  0.00    +0.000 F 
ATOM     27  C   UNL     1      45.870   1.836   8.513  0.00  0.00    +0.000 A 
ENDBRANCH  19  21
ENDBRANCH   1  15
TORSDOF 4
ENDMDL
MODEL 5
REMARK VINA RESULT:    -7.803      3.669      7.413
REMARK INTER + INTRA:         -10.251
REMARK INTER:                  -9.797
REMARK INTRA:                  -0.454
REMARK UNBOUND:                -0.624
REMARK  Name = 
REMARK  4 active torsions:
REMARK  status: ('A' for Active; 'I' for Inactive)
REMARK    1  A    between atoms: C_2  and  C_4
REMARK    2  A    between atoms: N_8  and  C_9
REMARK    3  A    between atoms: C_9  and  C_10
REMARK    4  A    between atoms: C_14  and  C_15
REMARK                            x       y       z     vdW  Elec       q    Type
REMARK                         _______ _______ _______ _____ _____    ______ ____
ROOT
ATOM      1  C   UNL     1      43.134   6.279  11.161  0.00  0.00    +0.000 C 
ENDROOT
BRANCH   1   6
ATOM      2  C   UNL     1      47.746   7.037  13.371  0.00  0.00    +0.000 A 
ATOM      3  C   UNL     1      46.797   6.043  13.586  0.00  0.00    +0.000 A 
ATOM      4  C   UNL     1      45.606   6.075  12.861  0.00  0.00    +0.000 A 
ATOM      5  C   UNL     1      45.383   7.088  11.937  0.00  0.00    +0.000 A 
ATOM      6  N   UNL     1      44.288   7.145  11.123  0.00  0.00    +0.000 N 
ATOM      7  N   UNL     1      46.276   8.081  11.756  0.00  0.00    +0.000 NA
ATOM      8  C   UNL     1      47.430   8.044  12.474  0.00  0.00    +0.000 A 
ATOM      9  H   UNL     1      44.258   7.984  10.557  0.00  0.00    +0.000 HD
BRANCH   2  11
ATOM     10  N   UNL     1      49.969   7.974  13.617  0.00  0.00    +0.000 N 
ATOM     11  C   UNL     1      49.056   7.053  14.052  0.00  0.00    +0.000 C 
ATOM     12  O   UNL     1      49.300   6.309  14.990  0.00  0.00    +0.000 OA
ATOM     13  H   UNL     1      50.820   8.056  14.158  0.00  0.00    +0.000 HD
ATOM     14  H   UNL     1      49.714   8.760  13.033  0.00  0.00    +0.000 HD
ENDBRANCH   2  11
ENDBRANCH   1   6
BRANCH   1  15
ATOM     15  C   UNL     1      43.486   4.837  10.885  0.00  0.00    +0.000 A 
ATOM     16  C   UNL     1      43.039   3.822  11.731  0.00  0.00    +0.000 A 
ATOM     17  C   UNL     1      43.420   2.519  11.459  0.00  0.00    +0.000 A 
ATOM     18  N   UNL     1      44.206   2.164  10.418  0.00  0.00    +0.000 NA
ATOM     19  C   UNL     1      44.644   3.144   9.591  0.00  0.00    +0.000 A 
ATOM     20  C   UNL     1      44.319   4.482   9.815  0.00  0.00    +0.000 A 
BRANCH  19  21
ATOM     21  C   UNL     1      45.481   2.713   8.461  0.00  0.00    +0.000 A 
ATOM     22  C   UNL     1      46.036   1.429   8.412  0.00  0.00    +0.000 A 
ATOM     23  N   UNL     1      46.834   0.956   7.417  0.00  0.00    +0.000 NA
ATOM     24  C   UNL     1      47.088   1.808   6.401  0.00  0.00    +0.000 A 
ATOM     25  C   UNL     1      46.582   3.092   6.340  0.00  0.00    +0.000 A 
ATOM     26  F   UNL     1      46.867   3.892   5.306  0.00  0.00    +0.000 F 
ATOM     27  C   UNL     1      45.772   3.548   7.372  0.00  0.00    +0.000 A 
ENDBRANCH  19  21
ENDBRANCH   1  15
TORSDOF 4
ENDMDL
MODEL 6
REMARK VINA RESULT:    -7.710      2.922      3.808
REMARK INTER + INTRA:         -10.137
REMARK INTER:                  -9.501
REMARK INTRA:                  -0.637
REMARK UNBOUND:                -0.624
REMARK  Name = 
REMARK  4 active torsions:
REMARK  status: ('A' for Active; 'I' for Inactive)
REMARK    1  A    between atoms: C_2  and  C_4
REMARK    2  A    between atoms: N_8  and  C_9
REMARK    3  A    between atoms: C_9  and  C_10
REMARK    4  A    between atoms: C_14  and  C_15
REMARK                            x       y       z     vdW  Elec       q    Type
REMARK                         _______ _______ _______ _____ _____    ______ ____
ROOT
ATOM      1  C   UNL     1      44.051   4.403  11.348  0.00  0.00    +0.000 C 
ENDROOT
BRANCH   1   6
ATOM      2  C   UNL     1      46.625   2.627   7.232  0.00  0.00    +0.000 A 
ATOM      3  C   UNL     1      46.422   3.930   7.673  0.00  0.00    +0.000 A 
ATOM      4  C   UNL     1      45.662   4.146   8.823  0.00  0.00    +0.000 A 
ATOM      5  C   UNL     1      45.122   3.066   9.511  0.00  0.00    +0.000 A 
ATOM      6  N   UNL     1      44.443   3.180  10.689  0.00  0.00    +0.000 N 
ATOM      7  N   UNL     1      45.274   1.803   9.063  0.00  0.00    +0.000 NA
ATOM      8  C   UNL     1      46.010   1.606   7.937  0.00  0.00    +0.000 A 
ATOM      9  H   UNL     1      44.067   2.299  11.017  0.00  0.00    +0.000 HD
BRANCH   2  11
ATOM     10  N   UNL     1      47.317   3.098   4.957  0.00  0.00    +0.000 N 
ATOM     11  C   UNL     1      47.460   2.301   6.059  0.00  0.00    +0.000 C 
ATOM     12  O   UNL     1      48.274   1.389   6.083  0.00  0.00    +0.000 OA
ATOM     13  H   UNL     1      47.969   2.941   4.198  0.00  0.00    +0.000 HD
ATOM     14  H   UNL     1      46.856   3.998   4.991  0.00  0.00    +0.000 HD
ENDBRANCH   2  11
ENDBRANCH   1   6
BRANCH   1  15
ATOM     15  C   UNL     1      45.165   4.995  12.177  0.00  0.00    +0.000 A 
ATOM     16  C   UNL     1      45.533   4.414  13.391  0.00  0.00    +0.000 A 
ATOM     17  C   UNL     1      46.533   5.015  14.135  0.00  0.00    +0.000 A 
ATOM     18  N   UNL     1      47.182   6.139  13.759  0.00  0.00    +0.000 NA
ATOM     19  C   UNL     1      46.831   6.710  12.581  0.00  0.00    +0.000 A 
ATOM     20  C   UNL     1      45.816   6.173  11.788  0.00  0.00    +0.000 A 
BRANCH  19  21
ATOM     21  C   UNL     1      47.574   7.921  12.201  0.00  0.00    +0.000 A 
ATOM     22  C   UNL     1      48.930   7.867  11.858  0.00  0.00    +0.000 A 
ATOM     23  N   UNL     1      49.695   8.939  11.513  0.00  0.00    +0.000 NA
ATOM     24  C   UNL     1      49.072  10.136  11.498  0.00  0.00    +0.000 A 
ATOM     25  C   UNL     1      47.735  10.303  11.806  0.00  0.00    +0.000 A 
ATOM     26  F   UNL     1      47.171  11.516  11.773  0.00  0.00    +0.000 F 
ATOM     27  C   UNL     1      46.980   9.191  12.156  0.00  0.00    +0.000 A 
ENDBRANCH  19  21
ENDBRANCH   1  15
TORSDOF 4
ENDMDL
MODEL 7
REMARK VINA RESULT:    -7.434      2.471      3.234
REMARK INTER + INTRA:          -9.796
REMARK INTER:                  -9.176
REMARK INTRA:                  -0.620
REMARK UNBOUND:                -0.624
REMARK  Name = 
REMARK  4 active torsions:
REMARK  status: ('A' for Active; 'I' for Inactive)
REMARK    1  A    between atoms: C_2  and  C_4
REMARK    2  A    between atoms: N_8  and  C_9
REMARK    3  A    between atoms: C_9  and  C_10
REMARK    4  A    between atoms: C_14  and  C_15
REMARK                            x       y       z     vdW  Elec       q    Type
REMARK                         _______ _______ _______ _____ _____    ______ ____
ROOT
ATOM      1  C   UNL     1      43.776   5.058  10.899  0.00  0.00    +0.000 C 
ENDROOT
BRANCH   1   6
ATOM      2  C   UNL     1      46.493   2.239   7.523  0.00  0.00    +0.000 A 
ATOM      3  C   UNL     1      46.040   1.924   8.799  0.00  0.00    +0.000 A 
ATOM      4  C   UNL     1      45.331   2.883   9.523  0.00  0.00    +0.000 A 
ATOM      5  C   UNL     1      45.087   4.133   8.966  0.00  0.00    +0.000 A 
ATOM      6  N   UNL     1      44.329   5.097   9.566  0.00  0.00    +0.000 N 
ATOM      7  N   UNL     1      45.564   4.462   7.749  0.00  0.00    +0.000 NA
ATOM      8  C   UNL     1      46.259   3.522   7.056  0.00  0.00    +0.000 A 
ATOM      9  H   UNL     1      44.308   5.965   9.047  0.00  0.00    +0.000 HD
BRANCH   2  11
ATOM     10  N   UNL     1      48.231   1.753   5.904  0.00  0.00    +0.000 N 
ATOM     11  C   UNL     1      47.202   1.269   6.665  0.00  0.00    +0.000 C 
ATOM     12  O   UNL     1      46.914   0.081   6.665  0.00  0.00    +0.000 OA
ATOM     13  H   UNL     1      48.784   1.067   5.405  0.00  0.00    +0.000 HD
ATOM     14  H   UNL     1      48.656   2.655   6.071  0.00  0.00    +0.000 HD
ENDBRANCH   2  11
ENDBRANCH   1   6
BRANCH   1  15
ATOM     15  C   UNL     1      44.836   5.174  11.967  0.00  0.00    +0.000 A 
ATOM     16  C   UNL     1      44.802   4.353  13.094  0.00  0.00    +0.000 A 
ATOM     17  C   UNL     1      45.773   4.523  14.067  0.00  0.00    +0.000 A 
ATOM     18  N   UNL     1      46.760   5.443  13.994  0.00  0.00    +0.000 NA
ATOM     19  C   UNL     1      46.800   6.245  12.902  0.00  0.00    +0.000 A 
ATOM     20  C   UNL     1      45.842   6.146  11.893  0.00  0.00    +0.000 A 
BRANCH  19  21
ATOM     21  C   UNL     1      47.900   7.221  12.854  0.00  0.00    +0.000 A 
ATOM     22  C   UNL     1      47.877   8.303  11.968  0.00  0.00    +0.000 A 
ATOM     23  N   UNL     1      48.859   9.238  11.845  0.00  0.00    +0.000 NA
ATOM     24  C   UNL     1      49.924   9.094  12.661  0.00  0.00    +0.000 A 
ATOM     25  C   UNL     1      50.045   8.072  13.583  0.00  0.00    +0.000 A 
ATOM     26  F   UNL     1      51.125   7.981  14.368  0.00  0.00    +0.000 F 
ATOM     27  C   UNL     1      49.028   7.132  13.684  0.00  0.00    +0.000 A 
ENDBRANCH  19  21
ENDBRANCH   1  15
TORSDOF 4
ENDMDL
MODEL 8
REMARK VINA RESULT:    -7.291      3.756      8.285
REMARK INTER + INTRA:          -9.620
REMARK INTER:                  -9.180
REMARK INTRA:                  -0.441
REMARK UNBOUND:                -0.624
REMARK  Name = 
REMARK  4 active torsions:
REMARK  status: ('A' for Active; 'I' for Inactive)
REMARK    1  A    between atoms: C_2  and  C_4
REMARK    2  A    between atoms: N_8  and  C_9
REMARK    3  A    between atoms: C_9  and  C_10
REMARK    4  A    between atoms: C_14  and  C_15
REMARK                            x       y       z     vdW  Elec       q    Type
REMARK                         _______ _______ _______ _____ _____    ______ ____
ROOT
ATOM      1  C   UNL     1      46.040   5.714  13.318  0.00  0.00    +0.000 C 
ENDROOT
BRANCH   1   6
ATOM      2  C   UNL     1      48.636   4.364  17.581  0.00  0.00    +0.000 A 
ATOM      3  C   UNL     1      48.777   5.474  16.754  0.00  0.00    +0.000 A 
ATOM      4  C   UNL     1      47.950   5.597  15.637  0.00  0.00    +0.000 A 
ATOM      5  C   UNL     1      47.001   4.620  15.365  0.00  0.00    +0.000 A 
ATOM      6  N   UNL     1      46.094   4.704  14.348  0.00  0.00    +0.000 N 
ATOM      7  N   UNL     1      46.890   3.518  16.134  0.00  0.00    +0.000 NA
ATOM      8  C   UNL     1      47.706   3.405  17.216  0.00  0.00    +0.000 A 
ATOM      9  H   UNL     1      45.520   3.875  14.259  0.00  0.00    +0.000 HD
BRANCH   2  11
ATOM     10  N   UNL     1      48.756   3.738  19.920  0.00  0.00    +0.000 N 
ATOM     11  C   UNL     1      49.428   4.179  18.812  0.00  0.00    +0.000 C 
ATOM     12  O   UNL     1      50.635   4.367  18.833  0.00  0.00    +0.000 OA
ATOM     13  H   UNL     1      49.321   3.506  20.727  0.00  0.00    +0.000 HD
ATOM     14  H   UNL     1      47.831   3.332  19.871  0.00  0.00    +0.000 HD
ENDBRANCH   2  11
ENDBRANCH   1   6
BRANCH   1  15
ATOM     15  C   UNL     1      45.243   5.270  12.116  0.00  0.00    +0.000 A 
ATOM     16  C   UNL     1      43.865   5.480  12.060  0.00  0.00    +0.000 A 
ATOM     17  C   UNL     1      43.170   5.020  10.954  0.00  0.00    +0.000 A 
ATOM     18  N   UNL     1      43.746   4.374   9.916  0.00  0.00    +0.000 NA
ATOM     19  C   UNL     1      45.085   4.166   9.963  0.00  0.00    +0.000 A 
ATOM     20  C   UNL     1      45.847   4.582  11.055  0.00  0.00    +0.000 A 
BRANCH  19  21
ATOM     21  C   UNL     1      45.674   3.475   8.805  0.00  0.00    +0.000 A 
ATOM     22  C   UNL     1      46.058   4.176   7.656  0.00  0.00    +0.000 A 
ATOM     23  N   UNL     1      46.592   3.615   6.537  0.00  0.00    +0.000 NA
ATOM     24  C   UNL     1      46.765   2.277   6.565  0.00  0.00    +0.000 A 
ATOM     25  C   UNL     1      46.434   1.489   7.651  0.00  0.00    +0.000 A 
ATOM     26  F   UNL     1      46.629   0.166   7.622  0.00  0.00    +0.000 F 
ATOM     27  C   UNL     1      45.889   2.089   8.778  0.00  0.00    +0.000 A 
ENDBRANCH  19  21
ENDBRANCH   1  15
TORSDOF 4
ENDMDL
MODEL 9
REMARK VINA RESULT:    -6.875      4.424      8.482
REMARK INTER + INTRA:          -9.106
REMARK INTER:                  -8.439
REMARK INTRA:                  -0.667
REMARK UNBOUND:                -0.624
REMARK  Name = 
REMARK  4 active torsions:
REMARK  status: ('A' for Active; 'I' for Inactive)
REMARK    1  A    between atoms: C_2  and  C_4
REMARK    2  A    between atoms: N_8  and  C_9
REMARK    3  A    between atoms: C_9  and  C_10
REMARK    4  A    between atoms: C_14  and  C_15
REMARK                            x       y       z     vdW  Elec       q    Type
REMARK                         _______ _______ _______ _____ _____    ______ ____
ROOT
ATOM      1  C   UNL     1      47.637   4.019  17.052  0.00  0.00    +0.000 C 
ENDROOT
BRANCH   1   6
ATOM      2  C   UNL     1      52.429   2.270  17.897  0.00  0.00    +0.000 A 
ATOM      3  C   UNL     1      51.877   3.528  18.118  0.00  0.00    +0.000 A 
ATOM      4  C   UNL     1      50.541   3.751  17.782  0.00  0.00    +0.000 A 
ATOM      5  C   UNL     1      49.782   2.723  17.237  0.00  0.00    +0.000 A 
ATOM      6  N   UNL     1      48.448   2.828  16.963  0.00  0.00    +0.000 N 
ATOM      7  N   UNL     1      50.321   1.515  16.976  0.00  0.00    +0.000 NA
ATOM      8  C   UNL     1      51.626   1.312  17.300  0.00  0.00    +0.000 A 
ATOM      9  H   UNL     1      48.070   2.004  16.513  0.00  0.00    +0.000 HD
BRANCH   2  11
ATOM     10  N   UNL     1      54.754   1.975  17.278  0.00  0.00    +0.000 N 
ATOM     11  C   UNL     1      53.815   1.928  18.272  0.00  0.00    +0.000 C 
ATOM     12  O   UNL     1      54.120   1.658  19.424  0.00  0.00    +0.000 OA
ATOM     13  H   UNL     1      55.718   1.850  17.562  0.00  0.00    +0.000 HD
ATOM     14  H   UNL     1      54.589   2.437  16.394  0.00  0.00    +0.000 HD
ENDBRANCH   2  11
ENDBRANCH   1   6
BRANCH   1  15
ATOM     15  C   UNL     1      47.556   4.761  15.740  0.00  0.00    +0.000 A 
ATOM     16  C   UNL     1      48.346   5.888  15.511  0.00  0.00    +0.000 A 
ATOM     17  C   UNL     1      48.208   6.559  14.308  0.00  0.00    +0.000 A 
ATOM     18  N   UNL     1      47.350   6.189  13.332  0.00  0.00    +0.000 NA
ATOM     19  C   UNL     1      46.579   5.095  13.546  0.00  0.00    +0.000 A 
ATOM     20  C   UNL     1      46.647   4.382  14.743  0.00  0.00    +0.000 A 
BRANCH  19  21
ATOM     21  C   UNL     1      45.671   4.717  12.452  0.00  0.00    +0.000 A 
ATOM     22  C   UNL     1      45.655   5.420  11.242  0.00  0.00    +0.000 A 
ATOM     23  N   UNL     1      44.838   5.150  10.188  0.00  0.00    +0.000 NA
ATOM     24  C   UNL     1      43.990   4.111  10.342  0.00  0.00    +0.000 A 
ATOM     25  C   UNL     1      43.931   3.340  11.487  0.00  0.00    +0.000 A 
ATOM     26  F   UNL     1      43.070   2.320  11.582  0.00  0.00    +0.000 F 
ATOM     27  C   UNL     1      44.776   3.641  12.547  0.00  0.00    +0.000 A 
ENDBRANCH  19  21
ENDBRANCH   1  15
TORSDOF 4
ENDMDL
