MODEL 1
REMARK VINA RESULT:    -6.512      0.000      0.000
REMARK INTER + INTRA:         -10.139
REMARK INTER:                  -9.367
REMARK INTRA:                  -0.772
REMARK UNBOUND:                -0.772
REMARK  Name = 
REMARK  10 active torsions:
REMARK  status: ('A' for Active; 'I' for Inactive)
REMARK    1  A    between atoms: C_1  and  N_2
REMARK    2  A    between atoms: C_3  and  C_5
REMARK    3  A    between atoms: C_8  and  S_9
REMARK    4  A    between atoms: S_9  and  C_10
REMARK    5  A    between atoms: C_10  and  C_11
REMARK    6  A    between atoms: C_11  and  C_12
REMARK    7  A    between atoms: C_11  and  C_13
REMARK    8  A    between atoms: C_17  and  C_18
REMARK    9  A    between atoms: C_18  and  C_19
REMARK   10  A    between atoms: C_19  and  O_20
REMARK                            x       y       z     vdW  Elec       q    Type
REMARK                         _______ _______ _______ _____ _____    ______ ____
ROOT
ATOM      1  C   UNL     1      43.684   6.019  11.715  0.00  0.00    +0.000 C 
ENDROOT
BRANCH   1   2
ATOM      2  C   UNL     1      44.691   6.165  12.882  0.00  0.00    +0.000 C 
ATOM      3  C   UNL     1      45.395   4.850  13.244  0.00  0.00    +0.000 C 
BRANCH   2   4
ATOM      4  C   UNL     1      45.699   7.256  12.531  0.00  0.00    +0.000 A 
ATOM      5  C   UNL     1      45.284   8.576  12.294  0.00  0.00    +0.000 A 
ATOM      6  C   UNL     1      46.217   9.585  12.068  0.00  0.00    +0.000 A 
ATOM      7  C   UNL     1      47.580   9.295  12.093  0.00  0.00    +0.000 A 
ATOM      8  C   UNL     1      48.025   7.989  12.340  0.00  0.00    +0.000 A 
ATOM      9  C   UNL     1      47.075   6.971  12.526  0.00  0.00    +0.000 A 
BRANCH   8  10
ATOM     10  C   UNL     1      49.504   7.701  12.466  0.00  0.00    +0.000 C 
BRANCH  10  11
ATOM     11  C   UNL     1      50.093   7.990  13.844  0.00  0.00    +0.000 C 
BRANCH  11  12
ATOM     12  O   UNL     1      50.170   6.813  14.639  0.00  0.00    +0.000 OA
ATOM     13  H   UNL     1      49.260   6.474  14.722  0.00  0.00    +0.000 HD
ENDBRANCH  11  12
ENDBRANCH  10  11
ENDBRANCH   8  10
ENDBRANCH   2   4
ENDBRANCH   1   2
BRANCH   1  14
ATOM     14  S   UNL     1      43.212   4.285  11.391  0.00  0.00    +0.000 S 
BRANCH  14  18
ATOM     15  C   UNL     1      45.951   2.664   8.155  0.00  0.00    +0.000 A 
ATOM     16  C   UNL     1      45.920   4.047   8.303  0.00  0.00    +0.000 A 
ATOM     17  C   UNL     1      45.104   4.600   9.295  0.00  0.00    +0.000 A 
ATOM     18  C   UNL     1      44.340   3.763  10.111  0.00  0.00    +0.000 A 
ATOM     19  C   UNL     1      44.468   2.389   9.891  0.00  0.00    +0.000 A 
ATOM     20  N   UNL     1      45.241   1.812   8.938  0.00  0.00    +0.000 NA
BRANCH  15  23
ATOM     21  C   UNL     1      48.029   2.448   4.998  0.00  0.00    +0.000 C 
ATOM     22  N   UNL     1      47.221   2.912   6.096  0.00  0.00    +0.000 N 
ATOM     23  C   UNL     1      46.793   2.048   7.081  0.00  0.00    +0.000 C 
ATOM     24  O   UNL     1      47.074   0.851   7.106  0.00  0.00    +0.000 OA
ATOM     25  H   UNL     1      47.006   3.896   6.213  0.00  0.00    +0.000 HD
ENDBRANCH  15  23
ENDBRANCH  14  18
ENDBRANCH   1  14
TORSDOF 8
ENDMDL
MODEL 2
REMARK VINA RESULT:    -6.267      3.537      7.528
REMARK INTER + INTRA:          -9.786
REMARK INTER:                  -9.471
REMARK INTRA:                  -0.315
REMARK UNBOUND:                -0.772
REMARK  Name = 
REMARK  10 active torsions:
REMARK  status: ('A' for Active; 'I' for Inactive)
REMARK    1  A    between atoms: C_1  and  N_2
REMARK    2  A    between atoms: C_3  and  C_5
REMARK    3  A    between atoms: C_8  and  S_9
REMARK    4  A    between atoms: S_9  and  C_10
REMARK    5  A    between atoms: C_10  and  C_11
REMARK    6  A    between atoms: C_11  and  C_12
REMARK    7  A    between atoms: C_11  and  C_13
REMARK    8  A    between atoms: C_17  and  C_18
REMARK    9  A    between atoms: C_18  and  C_19
REMARK   10  A    between atoms: C_19  and  O_20
REMARK                            x       y       z     vdW  Elec       q    Type
REMARK                         _______ _______ _______ _____ _____    ______ ____
ROOT
ATOM      1  C   UNL     1      45.628   6.414  10.623  0.00  0.00    +0.000 C 
ENDROOT
BRANCH   1   2
ATOM      2  C   UNL     1      44.625   5.274  10.922  0.00  0.00    +0.000 C 
ATOM      3  C   UNL     1      43.158   5.716  10.833  0.00  0.00    +0.000 C 
BRANCH   2   4
ATOM      4  C   UNL     1      44.911   4.106   9.980  0.00  0.00    +0.000 A 
ATOM      5  C   UNL     1      44.287   2.862  10.160  0.00  0.00    +0.000 A 
ATOM      6  C   UNL     1      44.478   1.831   9.242  0.00  0.00    +0.000 A 
ATOM      7  C   UNL     1      45.282   2.033   8.122  0.00  0.00    +0.000 A 
ATOM      8  C   UNL     1      45.907   3.270   7.909  0.00  0.00    +0.000 A 
ATOM      9  C   UNL     1      45.741   4.289   8.860  0.00  0.00    +0.000 A 
BRANCH   8  10
ATOM     10  C   UNL     1      46.695   3.515   6.641  0.00  0.00    +0.000 C 
BRANCH  10  11
ATOM     11  C   UNL     1      47.820   2.514   6.389  0.00  0.00    +0.000 C 
BRANCH  11  12
ATOM     12  O   UNL     1      48.314   2.605   5.059  0.00  0.00    +0.000 OA
ATOM     13  H   UNL     1      48.396   1.692   4.729  0.00  0.00    +0.000 HD
ENDBRANCH  11  12
ENDBRANCH  10  11
ENDBRANCH   8  10
ENDBRANCH   2   4
ENDBRANCH   1   2
BRANCH   1  14
ATOM     14  S   UNL     1      46.084   7.373  12.109  0.00  0.00    +0.000 S 
BRANCH  14  18
ATOM     15  C   UNL     1      47.595   4.420  15.207  0.00  0.00    +0.000 A 
ATOM     16  C   UNL     1      46.397   4.096  14.578  0.00  0.00    +0.000 A 
ATOM     17  C   UNL     1      45.893   4.965  13.604  0.00  0.00    +0.000 A 
ATOM     18  C   UNL     1      46.592   6.130  13.285  0.00  0.00    +0.000 A 
ATOM     19  C   UNL     1      47.796   6.342  13.960  0.00  0.00    +0.000 A 
ATOM     20  N   UNL     1      48.317   5.532  14.915  0.00  0.00    +0.000 NA
BRANCH  15  23
ATOM     21  C   UNL     1      48.454   3.211  18.691  0.00  0.00    +0.000 C 
ATOM     22  N   UNL     1      47.968   3.971  17.568  0.00  0.00    +0.000 N 
ATOM     23  C   UNL     1      48.141   3.524  16.276  0.00  0.00    +0.000 C 
ATOM     24  O   UNL     1      48.695   2.464  15.990  0.00  0.00    +0.000 OA
ATOM     25  H   UNL     1      47.423   4.816  17.700  0.00  0.00    +0.000 HD
ENDBRANCH  15  23
ENDBRANCH  14  18
ENDBRANCH   1  14
TORSDOF 8
ENDMDL
MODEL 3
REMARK VINA RESULT:    -6.103      5.454      8.447
REMARK INTER + INTRA:          -9.550
REMARK INTER:                  -9.158
REMARK INTRA:                  -0.392
REMARK UNBOUND:                -0.772
REMARK  Name = 
REMARK  10 active torsions:
REMARK  status: ('A' for Active; 'I' for Inactive)
REMARK    1  A    between atoms: C_1  and  N_2
REMARK    2  A    between atoms: C_3  and  C_5
REMARK    3  A    between atoms: C_8  and  S_9
REMARK    4  A    between atoms: S_9  and  C_10
REMARK    5  A    between atoms: C_10  and  C_11
REMARK    6  A    between atoms: C_11  and  C_12
REMARK    7  A    between atoms: C_11  and  C_13
REMARK    8  A    between atoms: C_17  and  C_18
REMARK    9  A    between atoms: C_18  and  C_19
REMARK   10  A    between atoms: C_19  and  O_20
REMARK                            x       y       z     vdW  Elec       q    Type
REMARK                         _______ _______ _______ _____ _____    ______ ____
ROOT
ATOM      1  C   UNL     1      47.132   4.043  14.448  0.00  0.00    +0.000 C 
ENDROOT
BRANCH   1   2
ATOM      2  C   UNL     1      46.572   5.288  13.720  0.00  0.00    +0.000 C 
ATOM      3  C   UNL     1      47.617   6.011  12.859  0.00  0.00    +0.000 C 
BRANCH   2   4
ATOM      4  C   UNL     1      45.362   4.870  12.887  0.00  0.00    +0.000 A 
ATOM      5  C   UNL     1      44.084   5.381  13.161  0.00  0.00    +0.000 A 
ATOM      6  C   UNL     1      43.002   5.069  12.339  0.00  0.00    +0.000 A 
ATOM      7  C   UNL     1      43.186   4.257  11.221  0.00  0.00    +0.000 A 
ATOM      8  C   UNL     1      44.454   3.743  10.915  0.00  0.00    +0.000 A 
ATOM      9  C   UNL     1      45.528   4.030  11.772  0.00  0.00    +0.000 A 
BRANCH   8  10
ATOM     10  C   UNL     1      44.665   2.947   9.647  0.00  0.00    +0.000 C 
BRANCH  10  11
ATOM     11  C   UNL     1      44.801   3.791   8.382  0.00  0.00    +0.000 C 
BRANCH  11  12
ATOM     12  O   UNL     1      45.368   5.065   8.660  0.00  0.00    +0.000 OA
ATOM     13  H   UNL     1      46.325   4.926   8.769  0.00  0.00    +0.000 HD
ENDBRANCH  11  12
ENDBRANCH  10  11
ENDBRANCH   8  10
ENDBRANCH   2   4
ENDBRANCH   1   2
BRANCH   1  14
ATOM     14  S   UNL     1      47.077   4.195  16.268  0.00  0.00    +0.000 S 
BRANCH  14  18
ATOM     15  C   UNL     1      51.052   2.327  17.414  0.00  0.00    +0.000 A 
ATOM     16  C   UNL     1      50.810   3.609  17.896  0.00  0.00    +0.000 A 
ATOM     17  C   UNL     1      49.594   4.227  17.585  0.00  0.00    +0.000 A 
ATOM     18  C   UNL     1      48.655   3.553  16.802  0.00  0.00    +0.000 A 
ATOM     19  C   UNL     1      48.992   2.261  16.393  0.00  0.00    +0.000 A 
ATOM     20  N   UNL     1      50.160   1.628  16.665  0.00  0.00    +0.000 NA
BRANCH  15  23
ATOM     21  C   UNL     1      54.355   1.644  19.134  0.00  0.00    +0.000 C 
ATOM     22  N   UNL     1      53.077   2.189  18.753  0.00  0.00    +0.000 N 
ATOM     23  C   UNL     1      52.358   1.655  17.705  0.00  0.00    +0.000 C 
ATOM     24  O   UNL     1      52.734   0.689  17.044  0.00  0.00    +0.000 OA
ATOM     25  H   UNL     1      52.640   2.930  19.289  0.00  0.00    +0.000 HD
ENDBRANCH  15  23
ENDBRANCH  14  18
ENDBRANCH   1  14
TORSDOF 8
ENDMDL
MODEL 4
REMARK VINA RESULT:    -6.078      1.891      2.787
REMARK INTER + INTRA:          -9.515
REMARK INTER:                  -8.968
REMARK INTRA:                  -0.547
REMARK UNBOUND:                -0.772
REMARK  Name = 
REMARK  10 active torsions:
REMARK  status: ('A' for Active; 'I' for Inactive)
REMARK    1  A    between atoms: C_1  and  N_2
REMARK    2  A    between atoms: C_3  and  C_5
REMARK    3  A    between atoms: C_8  and  S_9
REMARK    4  A    between atoms: S_9  and  C_10
REMARK    5  A    between atoms: C_10  and  C_11
REMARK    6  A    between atoms: C_11  and  C_12
REMARK    7  A    between atoms: C_11  and  C_13
REMARK    8  A    between atoms: C_17  and  C_18
REMARK    9  A    between atoms: C_18  and  C_19
REMARK   10  A    between atoms: C_19  and  O_20
REMARK                            x       y       z     vdW  Elec       q    Type
REMARK                         _______ _______ _______ _____ _____    ______ ____
ROOT
ATOM      1  C   UNL     1      43.818   5.931  11.769  0.00  0.00    +0.000 C 
ENDROOT
BRANCH   1   2
ATOM      2  C   UNL     1      44.882   6.055  12.886  0.00  0.00    +0.000 C 
ATOM      3  C   UNL     1      45.750   4.798  13.040  0.00  0.00    +0.000 C 
BRANCH   2   4
ATOM      4  C   UNL     1      45.738   7.290  12.617  0.00  0.00    +0.000 A 
ATOM      5  C   UNL     1      47.128   7.186  12.451  0.00  0.00    +0.000 A 
ATOM      6  C   UNL     1      47.890   8.302  12.112  0.00  0.00    +0.000 A 
ATOM      7  C   UNL     1      47.272   9.536  11.916  0.00  0.00    +0.000 A 
ATOM      8  C   UNL     1      45.884   9.668  12.062  0.00  0.00    +0.000 A 
ATOM      9  C   UNL     1      45.131   8.547  12.444  0.00  0.00    +0.000 A 
BRANCH   8  10
ATOM     10  C   UNL     1      45.209  10.985  11.751  0.00  0.00    +0.000 C 
BRANCH  10  11
ATOM     11  C   UNL     1      43.925  10.863  10.934  0.00  0.00    +0.000 C 
BRANCH  11  12
ATOM     12  O   UNL     1      44.078   9.957   9.849  0.00  0.00    +0.000 OA
ATOM     13  H   UNL     1      43.181   9.691   9.580  0.00  0.00    +0.000 HD
ENDBRANCH  11  12
ENDBRANCH  10  11
ENDBRANCH   8  10
ENDBRANCH   2   4
ENDBRANCH   1   2
BRANCH   1  14
ATOM     14  S   UNL     1      43.338   4.202  11.428  0.00  0.00    +0.000 S 
BRANCH  14  18
ATOM     15  C   UNL     1      45.988   2.641   8.091  0.00  0.00    +0.000 A 
ATOM     16  C   UNL     1      45.903   4.023   8.217  0.00  0.00    +0.000 A 
ATOM     17  C   UNL     1      45.111   4.559   9.238  0.00  0.00    +0.000 A 
ATOM     18  C   UNL     1      44.425   3.705  10.104  0.00  0.00    +0.000 A 
ATOM     19  C   UNL     1      44.603   2.335   9.902  0.00  0.00    +0.000 A 
ATOM     20  N   UNL     1      45.354   1.773   8.922  0.00  0.00    +0.000 NA
BRANCH  15  23
ATOM     21  C   UNL     1      47.860   2.434   4.807  0.00  0.00    +0.000 C 
ATOM     22  N   UNL     1      47.091   2.886   5.938  0.00  0.00    +0.000 N 
ATOM     23  C   UNL     1      46.804   2.041   6.988  0.00  0.00    +0.000 C 
ATOM     24  O   UNL     1      47.185   0.873   7.046  0.00  0.00    +0.000 OA
ATOM     25  H   UNL     1      46.803   3.855   6.027  0.00  0.00    +0.000 HD
ENDBRANCH  15  23
ENDBRANCH  14  18
ENDBRANCH   1  14
TORSDOF 8
ENDMDL
MODEL 5
REMARK VINA RESULT:    -6.076      3.092      7.641
REMARK INTER + INTRA:          -9.511
REMARK INTER:                  -8.980
REMARK INTRA:                  -0.531
REMARK UNBOUND:                -0.772
REMARK  Name = 
REMARK  10 active torsions:
REMARK  status: ('A' for Active; 'I' for Inactive)
REMARK    1  A    between atoms: C_1  and  N_2
REMARK    2  A    between atoms: C_3  and  C_5
REMARK    3  A    between atoms: C_8  and  S_9
REMARK    4  A    between atoms: S_9  and  C_10
REMARK    5  A    between atoms: C_10  and  C_11
REMARK    6  A    between atoms: C_11  and  C_12
REMARK    7  A    between atoms: C_11  and  C_13
REMARK    8  A    between atoms: C_17  and  C_18
REMARK    9  A    between atoms: C_18  and  C_19
REMARK   10  A    between atoms: C_19  and  O_20
REMARK                            x       y       z     vdW  Elec       q    Type
REMARK                         _______ _______ _______ _____ _____    ______ ____
ROOT
ATOM      1  C   UNL     1      45.501   6.338  10.900  0.00  0.00    +0.000 C 
ENDROOT
BRANCH   1   2
ATOM      2  C   UNL     1      44.531   5.150  11.106  0.00  0.00    +0.000 C 
ATOM      3  C   UNL     1      43.052   5.551  11.024  0.00  0.00    +0.000 C 
BRANCH   2   4
ATOM      4  C   UNL     1      44.867   4.057  10.094  0.00  0.00    +0.000 A 
ATOM      5  C   UNL     1      44.329   2.767  10.216  0.00  0.00    +0.000 A 
ATOM      6  C   UNL     1      44.563   1.803   9.237  0.00  0.00    +0.000 A 
ATOM      7  C   UNL     1      45.323   2.119   8.113  0.00  0.00    +0.000 A 
ATOM      8  C   UNL     1      45.863   3.404   7.957  0.00  0.00    +0.000 A 
ATOM      9  C   UNL     1      45.656   4.355   8.968  0.00  0.00    +0.000 A 
BRANCH   8  10
ATOM     10  C   UNL     1      46.601   3.769   6.689  0.00  0.00    +0.000 C 
BRANCH  10  11
ATOM     11  C   UNL     1      47.196   2.582   5.935  0.00  0.00    +0.000 C 
BRANCH  11  12
ATOM     12  O   UNL     1      48.437   2.174   6.496  0.00  0.00    +0.000 OA
ATOM     13  H   UNL     1      49.052   2.921   6.384  0.00  0.00    +0.000 HD
ENDBRANCH  11  12
ENDBRANCH  10  11
ENDBRANCH   8  10
ENDBRANCH   2   4
ENDBRANCH   1   2
BRANCH   1  14
ATOM     14  S   UNL     1      45.270   7.670  12.128  0.00  0.00    +0.000 S 
BRANCH  14  18
ATOM     15  C   UNL     1      49.237   7.412  14.319  0.00  0.00    +0.000 A 
ATOM     16  C   UNL     1      48.456   8.531  14.586  0.00  0.00    +0.000 A 
ATOM     17  C   UNL     1      47.216   8.654  13.949  0.00  0.00    +0.000 A 
ATOM     18  C   UNL     1      46.790   7.663  13.063  0.00  0.00    +0.000 A 
ATOM     19  C   UNL     1      47.643   6.571  12.889  0.00  0.00    +0.000 A 
ATOM     20  N   UNL     1      48.854   6.415  13.480  0.00  0.00    +0.000 NA
BRANCH  15  23
ATOM     21  C   UNL     1      52.960   7.865  14.837  0.00  0.00    +0.000 C 
ATOM     22  N   UNL     1      51.613   7.926  14.328  0.00  0.00    +0.000 N 
ATOM     23  C   UNL     1      50.581   7.270  14.963  0.00  0.00    +0.000 C 
ATOM     24  O   UNL     1      50.722   6.613  15.993  0.00  0.00    +0.000 OA
ATOM     25  H   UNL     1      51.377   8.510  13.534  0.00  0.00    +0.000 HD
ENDBRANCH  15  23
ENDBRANCH  14  18
ENDBRANCH   1  14
TORSDOF 8
ENDMDL
MODEL 6
REMARK VINA RESULT:    -5.925      3.906      5.626
REMARK INTER + INTRA:          -9.294
REMARK INTER:                  -8.423
REMARK INTRA:                  -0.871
REMARK UNBOUND:                -0.772
REMARK  Name = 
REMARK  10 active torsions:
REMARK  status: ('A' for Active; 'I' for Inactive)
REMARK    1  A    between atoms: C_1  and  N_2
REMARK    2  A    between atoms: C_3  and  C_5
REMARK    3  A    between atoms: C_8  and  S_9
REMARK    4  A    between atoms: S_9  and  C_10
REMARK    5  A    between atoms: C_10  and  C_11
REMARK    6  A    between atoms: C_11  and  C_12
REMARK    7  A    between atoms: C_11  and  C_13
REMARK    8  A    between atoms: C_17  and  C_18
REMARK    9  A    between atoms: C_18  and  C_19
REMARK   10  A    between atoms: C_19  and  O_20
REMARK                            x       y       z     vdW  Elec       q    Type
REMARK                         _______ _______ _______ _____ _____    ______ ____
ROOT
ATOM      1  C   UNL     1      48.907   7.255  14.331  0.00  0.00    +0.000 C 
ENDROOT
BRANCH   1   2
ATOM      2  C   UNL     1      49.080   7.950  15.703  0.00  0.00    +0.000 C 
ATOM      3  C   UNL     1      48.291   9.261  15.823  0.00  0.00    +0.000 C 
BRANCH   2   4
ATOM      4  C   UNL     1      48.695   6.968  16.806  0.00  0.00    +0.000 A 
ATOM      5  C   UNL     1      48.321   7.421  18.081  0.00  0.00    +0.000 A 
ATOM      6  C   UNL     1      47.880   6.525  19.053  0.00  0.00    +0.000 A 
ATOM      7  C   UNL     1      47.787   5.166  18.760  0.00  0.00    +0.000 A 
ATOM      8  C   UNL     1      48.140   4.686  17.491  0.00  0.00    +0.000 A 
ATOM      9  C   UNL     1      48.623   5.591  16.532  0.00  0.00    +0.000 A 
BRANCH   8  10
ATOM     10  C   UNL     1      47.943   3.227  17.148  0.00  0.00    +0.000 C 
BRANCH  10  11
ATOM     11  C   UNL     1      49.229   2.405  17.099  0.00  0.00    +0.000 C 
BRANCH  11  12
ATOM     12  O   UNL     1      49.321   1.649  15.898  0.00  0.00    +0.000 OA
ATOM     13  H   UNL     1      48.701   2.054  15.266  0.00  0.00    +0.000 HD
ENDBRANCH  11  12
ENDBRANCH  10  11
ENDBRANCH   8  10
ENDBRANCH   2   4
ENDBRANCH   1   2
BRANCH   1  14
ATOM     14  S   UNL     1      47.602   8.016  13.304  0.00  0.00    +0.000 S 
BRANCH  14  18
ATOM     15  C   UNL     1      45.215   4.600  11.506  0.00  0.00    +0.000 A 
ATOM     16  C   UNL     1      45.635   4.434  12.822  0.00  0.00    +0.000 A 
ATOM     17  C   UNL     1      46.362   5.463  13.430  0.00  0.00    +0.000 A 
ATOM     18  C   UNL     1      46.653   6.625  12.713  0.00  0.00    +0.000 A 
ATOM     19  C   UNL     1      46.160   6.694  11.408  0.00  0.00    +0.000 A 
ATOM     20  N   UNL     1      45.458   5.720  10.778  0.00  0.00    +0.000 NA
BRANCH  15  23
ATOM     21  C   UNL     1      44.525   1.803   9.049  0.00  0.00    +0.000 C 
ATOM     22  N   UNL     1      45.137   2.870   9.799  0.00  0.00    +0.000 N 
ATOM     23  C   UNL     1      44.462   3.502  10.821  0.00  0.00    +0.000 C 
ATOM     24  O   UNL     1      43.323   3.201  11.173  0.00  0.00    +0.000 OA
ATOM     25  H   UNL     1      46.103   3.136   9.644  0.00  0.00    +0.000 HD
ENDBRANCH  15  23
ENDBRANCH  14  18
ENDBRANCH   1  14
TORSDOF 8
ENDMDL
MODEL 7
REMARK VINA RESULT:    -5.796      4.289      6.491
REMARK INTER + INTRA:          -9.109
REMARK INTER:                  -7.761
REMARK INTRA:                  -1.348
REMARK UNBOUND:                -0.772
REMARK  Name = 
REMARK  10 active torsions:
REMARK  status: ('A' for Active; 'I' for Inactive)
REMARK    1  A    between atoms: C_1  and  N_2
REMARK    2  A    between atoms: C_3  and  C_5
REMARK    3  A    between atoms: C_8  and  S_9
REMARK    4  A    between atoms: S_9  and  C_10
REMARK    5  A    between atoms: C_10  and  C_11
REMARK    6  A    between atoms: C_11  and  C_12
REMARK    7  A    between atoms: C_11  and  C_13
REMARK    8  A    between atoms: C_17  and  C_18
REMARK    9  A    between atoms: C_18  and  C_19
REMARK   10  A    between atoms: C_19  and  O_20
REMARK                            x       y       z     vdW  Elec       q    Type
REMARK                         _______ _______ _______ _____ _____    ______ ____
ROOT
ATOM      1  C   UNL     1      48.506   9.038  15.792  0.00  0.00    +0.000 C 
ENDROOT
BRANCH   1   2
ATOM      2  C   UNL     1      49.472   8.130  16.591  0.00  0.00    +0.000 C 
ATOM      3  C   UNL     1      50.530   8.914  17.380  0.00  0.00    +0.000 C 
BRANCH   2   4
ATOM      4  C   UNL     1      48.653   7.227  17.510  0.00  0.00    +0.000 A 
ATOM      5  C   UNL     1      47.992   7.745  18.635  0.00  0.00    +0.000 A 
ATOM      6  C   UNL     1      47.170   6.934  19.413  0.00  0.00    +0.000 A 
ATOM      7  C   UNL     1      46.981   5.597  19.070  0.00  0.00    +0.000 A 
ATOM      8  C   UNL     1      47.617   5.054  17.945  0.00  0.00    +0.000 A 
ATOM      9  C   UNL     1      48.475   5.869  17.190  0.00  0.00    +0.000 A 
BRANCH   8  10
ATOM     10  C   UNL     1      47.328   3.631  17.521  0.00  0.00    +0.000 C 
BRANCH  10  11
ATOM     11  C   UNL     1      48.348   3.037  16.553  0.00  0.00    +0.000 C 
BRANCH  11  12
ATOM     12  O   UNL     1      47.825   2.942  15.234  0.00  0.00    +0.000 OA
ATOM     13  H   UNL     1      48.554   3.170  14.629  0.00  0.00    +0.000 HD
ENDBRANCH  11  12
ENDBRANCH  10  11
ENDBRANCH   8  10
ENDBRANCH   2   4
ENDBRANCH   1   2
BRANCH   1  14
ATOM     14  S   UNL     1      48.741   8.915  13.985  0.00  0.00    +0.000 S 
BRANCH  14  18
ATOM     15  C   UNL     1      46.229   5.285  12.930  0.00  0.00    +0.000 A 
ATOM     16  C   UNL     1      45.681   6.526  12.622  0.00  0.00    +0.000 A 
ATOM     17  C   UNL     1      46.419   7.678  12.913  0.00  0.00    +0.000 A 
ATOM     18  C   UNL     1      47.679   7.564  13.503  0.00  0.00    +0.000 A 
ATOM     19  C   UNL     1      48.142   6.269  13.745  0.00  0.00    +0.000 A 
ATOM     20  N   UNL     1      47.457   5.126  13.486  0.00  0.00    +0.000 NA
BRANCH  15  23
ATOM     21  C   UNL     1      43.364   3.110  11.746  0.00  0.00    +0.000 C 
ATOM     22  N   UNL     1      44.223   4.225  12.055  0.00  0.00    +0.000 N 
ATOM     23  C   UNL     1      45.447   4.037  12.658  0.00  0.00    +0.000 C 
ATOM     24  O   UNL     1      45.897   2.932  12.956  0.00  0.00    +0.000 OA
ATOM     25  H   UNL     1      43.982   5.169  11.773  0.00  0.00    +0.000 HD
ENDBRANCH  15  23
ENDBRANCH  14  18
ENDBRANCH   1  14
TORSDOF 8
ENDMDL
MODEL 8
REMARK VINA RESULT:    -5.755      3.307      7.379
REMARK INTER + INTRA:          -9.050
REMARK INTER:                  -8.445
REMARK INTRA:                  -0.605
REMARK UNBOUND:                -0.772
REMARK  Name = 
REMARK  10 active torsions:
REMARK  status: ('A' for Active; 'I' for Inactive)
REMARK    1  A    between atoms: C_1  and  N_2
REMARK    2  A    between atoms: C_3  and  C_5
REMARK    3  A    between atoms: C_8  and  S_9
REMARK    4  A    between atoms: S_9  and  C_10
REMARK    5  A    between atoms: C_10  and  C_11
REMARK    6  A    between atoms: C_11  and  C_12
REMARK    7  A    between atoms: C_11  and  C_13
REMARK    8  A    between atoms: C_17  and  C_18
REMARK    9  A    between atoms: C_18  and  C_19
REMARK   10  A    between atoms: C_19  and  O_20
REMARK                            x       y       z     vdW  Elec       q    Type
REMARK                         _______ _______ _______ _____ _____    ______ ____
ROOT
ATOM      1  C   UNL     1      45.075   6.679  10.957  0.00  0.00    +0.000 C 
ENDROOT
BRANCH   1   2
ATOM      2  C   UNL     1      44.313   5.390  11.345  0.00  0.00    +0.000 C 
ATOM      3  C   UNL     1      42.792   5.578  11.408  0.00  0.00    +0.000 C 
BRANCH   2   4
ATOM      4  C   UNL     1      44.695   4.279  10.369  0.00  0.00    +0.000 A 
ATOM      5  C   UNL     1      44.134   2.996  10.478  0.00  0.00    +0.000 A 
ATOM      6  C   UNL     1      44.414   2.016   9.528  0.00  0.00    +0.000 A 
ATOM      7  C   UNL     1      45.242   2.307   8.446  0.00  0.00    +0.000 A 
ATOM      8  C   UNL     1      45.806   3.583   8.304  0.00  0.00    +0.000 A 
ATOM      9  C   UNL     1      45.551   4.551   9.288  0.00  0.00    +0.000 A 
BRANCH   8  10
ATOM     10  C   UNL     1      46.621   3.921   7.077  0.00  0.00    +0.000 C 
BRANCH  10  11
ATOM     11  C   UNL     1      47.187   2.712   6.336  0.00  0.00    +0.000 C 
BRANCH  11  12
ATOM     12  O   UNL     1      48.607   2.677   6.397  0.00  0.00    +0.000 OA
ATOM     13  H   UNL     1      48.839   2.068   7.122  0.00  0.00    +0.000 HD
ENDBRANCH  11  12
ENDBRANCH  10  11
ENDBRANCH   8  10
ENDBRANCH   2   4
ENDBRANCH   1   2
BRANCH   1  14
ATOM     14  S   UNL     1      45.476   7.733  12.394  0.00  0.00    +0.000 S 
BRANCH  14  18
ATOM     15  C   UNL     1      49.863   8.842  12.048  0.00  0.00    +0.000 A 
ATOM     16  C   UNL     1      49.564   7.484  12.003  0.00  0.00    +0.000 A 
ATOM     17  C   UNL     1      48.225   7.087  12.091  0.00  0.00    +0.000 A 
ATOM     18  C   UNL     1      47.223   8.050  12.223  0.00  0.00    +0.000 A 
ATOM     19  C   UNL     1      47.636   9.385  12.231  0.00  0.00    +0.000 A 
ATOM     20  N   UNL     1      48.920   9.813  12.156  0.00  0.00    +0.000 NA
BRANCH  15  23
ATOM     21  C   UNL     1      53.181   9.835  10.519  0.00  0.00    +0.000 C 
ATOM     22  N   UNL     1      51.817   9.419  10.721  0.00  0.00    +0.000 N 
ATOM     23  C   UNL     1      51.290   9.293  11.987  0.00  0.00    +0.000 C 
ATOM     24  O   UNL     1      51.920   9.537  13.015  0.00  0.00    +0.000 OA
ATOM     25  H   UNL     1      51.189   9.277   9.937  0.00  0.00    +0.000 HD
ENDBRANCH  15  23
ENDBRANCH  14  18
ENDBRANCH   1  14
TORSDOF 8
ENDMDL
MODEL 9
REMARK VINA RESULT:    -5.731      4.367      8.047
REMARK INTER + INTRA:          -9.016
REMARK INTER:                  -8.301
REMARK INTRA:                  -0.715
REMARK UNBOUND:                -0.772
REMARK  Name = 
REMARK  10 active torsions:
REMARK  status: ('A' for Active; 'I' for Inactive)
REMARK    1  A    between atoms: C_1  and  N_2
REMARK    2  A    between atoms: C_3  and  C_5
REMARK    3  A    between atoms: C_8  and  S_9
REMARK    4  A    between atoms: S_9  and  C_10
REMARK    5  A    between atoms: C_10  and  C_11
REMARK    6  A    between atoms: C_11  and  C_12
REMARK    7  A    between atoms: C_11  and  C_13
REMARK    8  A    between atoms: C_17  and  C_18
REMARK    9  A    between atoms: C_18  and  C_19
REMARK   10  A    between atoms: C_19  and  O_20
REMARK                            x       y       z     vdW  Elec       q    Type
REMARK                         _______ _______ _______ _____ _____    ______ ____
ROOT
ATOM      1  C   UNL     1      46.977   6.667  11.689  0.00  0.00    +0.000 C 
ENDROOT
BRANCH   1   2
ATOM      2  C   UNL     1      45.491   6.738  12.115  0.00  0.00    +0.000 C 
ATOM      3  C   UNL     1      44.698   7.822  11.374  0.00  0.00    +0.000 C 
BRANCH   2   4
ATOM      4  C   UNL     1      44.857   5.361  11.927  0.00  0.00    +0.000 A 
ATOM      5  C   UNL     1      44.001   4.820  12.899  0.00  0.00    +0.000 A 
ATOM      6  C   UNL     1      43.352   3.607  12.678  0.00  0.00    +0.000 A 
ATOM      7  C   UNL     1      43.534   2.926  11.477  0.00  0.00    +0.000 A 
ATOM      8  C   UNL     1      44.374   3.448  10.483  0.00  0.00    +0.000 A 
ATOM      9  C   UNL     1      45.055   4.650  10.731  0.00  0.00    +0.000 A 
BRANCH   8  10
ATOM     10  C   UNL     1      44.489   2.755   9.144  0.00  0.00    +0.000 C 
BRANCH  10  11
ATOM     11  C   UNL     1      45.185   3.575   8.061  0.00  0.00    +0.000 C 
BRANCH  11  12
ATOM     12  O   UNL     1      46.357   2.926   7.583  0.00  0.00    +0.000 OA
ATOM     13  H   UNL     1      46.490   3.232   6.668  0.00  0.00    +0.000 HD
ENDBRANCH  11  12
ENDBRANCH  10  11
ENDBRANCH   8  10
ENDBRANCH   2   4
ENDBRANCH   1   2
BRANCH   1  14
ATOM     14  S   UNL     1      48.098   7.503  12.865  0.00  0.00    +0.000 S 
BRANCH  14  18
ATOM     15  C   UNL     1      48.252   5.020  16.660  0.00  0.00    +0.000 A 
ATOM     16  C   UNL     1      47.429   4.544  15.645  0.00  0.00    +0.000 A 
ATOM     17  C   UNL     1      47.355   5.263  14.447  0.00  0.00    +0.000 A 
ATOM     18  C   UNL     1      48.099   6.435  14.294  0.00  0.00    +0.000 A 
ATOM     19  C   UNL     1      48.911   6.805  15.369  0.00  0.00    +0.000 A 
ATOM     20  N   UNL     1      49.007   6.142  16.549  0.00  0.00    +0.000 NA
BRANCH  15  23
ATOM     21  C   UNL     1      48.685   4.491  20.385  0.00  0.00    +0.000 C 
ATOM     22  N   UNL     1      48.579   5.070  19.069  0.00  0.00    +0.000 N 
ATOM     23  C   UNL     1      48.325   4.287  17.964  0.00  0.00    +0.000 C 
ATOM     24  O   UNL     1      48.158   3.069  18.016  0.00  0.00    +0.000 OA
ATOM     25  H   UNL     1      48.615   6.074  18.932  0.00  0.00    +0.000 HD
ENDBRANCH  15  23
ENDBRANCH  14  18
ENDBRANCH   1  14
TORSDOF 8
ENDMDL
