MODEL 1
REMARK VINA RESULT:    -7.850      0.000      0.000
REMARK INTER + INTRA:          -9.776
REMARK INTER:                  -9.227
REMARK INTRA:                  -0.550
REMARK UNBOUND:                -0.550
REMARK  Name = 
REMARK  4 active torsions:
REMARK  status: ('A' for Active; 'I' for Inactive)
REMARK    1  A    between atoms: C_1  and  O_2
REMARK    2  A    between atoms: O_2  and  C_3
REMARK    3  A    between atoms: N_9  and  C_10
REMARK    4  A    between atoms: C_10  and  C_11
REMARK                            x       y       z     vdW  Elec       q    Type
REMARK                         _______ _______ _______ _____ _____    ______ ____
ROOT
ATOM      1  C   UNL     1      46.824   6.065  12.378  0.00  0.00    +0.000 A 
ATOM      2  C   UNL     1      46.558   5.477  13.610  0.00  0.00    +0.000 A 
ATOM      3  N   UNL     1      45.593   4.562  13.859  0.00  0.00    +0.000 NA
ATOM      4  C   UNL     1      44.850   4.214  12.781  0.00  0.00    +0.000 A 
ATOM      5  C   UNL     1      43.792   3.282  12.710  0.00  0.00    +0.000 A 
ATOM      6  C   UNL     1      43.369   3.238  11.401  0.00  0.00    +0.000 A 
ATOM      7  N   UNL     1      44.137   4.121  10.673  0.00  0.00    +0.000 N 
ATOM      8  C   UNL     1      45.041   4.750  11.506  0.00  0.00    +0.000 A 
ATOM      9  C   UNL     1      46.026   5.721  11.287  0.00  0.00    +0.000 A 
ENDROOT
BRANCH   1  11
ATOM     10  C   UNL     1      48.922   6.936  13.010  0.00  0.00    +0.000 C 
ATOM     11  O   UNL     1      47.805   6.985  12.127  0.00  0.00    +0.000 OA
ENDBRANCH   1  11
BRANCH   7  12
ATOM     12  C   UNL     1      44.077   4.242   9.219  0.00  0.00    +0.000 C 
BRANCH  12  13
ATOM     13  C   UNL     1      45.167   3.451   8.538  0.00  0.00    +0.000 A 
ATOM     14  C   UNL     1      46.061   4.083   7.660  0.00  0.00    +0.000 A 
ATOM     15  C   UNL     1      47.053   3.347   7.010  0.00  0.00    +0.000 A 
ATOM     16  C   UNL     1      47.153   1.978   7.235  0.00  0.00    +0.000 A 
ATOM     17  F   UNL     1      48.096   1.273   6.600  0.00  0.00    +0.000 F 
ATOM     18  C   UNL     1      46.284   1.337   8.107  0.00  0.00    +0.000 A 
ATOM     19  C   UNL     1      45.293   2.070   8.761  0.00  0.00    +0.000 A 
ENDBRANCH  12  13
ENDBRANCH   7  12
TORSDOF 3
ENDMDL
MODEL 2
REMARK VINA RESULT:    -7.847      1.722      2.088
REMARK INTER + INTRA:          -9.773
REMARK INTER:                  -9.399
REMARK INTRA:                  -0.374
REMARK UNBOUND:                -0.550
REMARK  Name = 
REMARK  4 active torsions:
REMARK  status: ('A' for Active; 'I' for Inactive)
REMARK    1  A    between atoms: C_1  and  O_2
REMARK    2  A    between atoms: O_2  and  C_3
REMARK    3  A    between atoms: N_9  and  C_10
REMARK    4  A    between atoms: C_10  and  C_11
REMARK                            x       y       z     vdW  Elec       q    Type
REMARK                         _______ _______ _______ _____ _____    ______ ____
ROOT
ATOM      1  C   UNL     1      46.509   3.867  13.586  0.00  0.00    +0.000 A 
ATOM      2  C   UNL     1      46.061   5.137  13.932  0.00  0.00    +0.000 A 
ATOM      3  N   UNL     1      45.187   5.888  13.224  0.00  0.00    +0.000 NA
ATOM      4  C   UNL     1      44.729   5.307  12.089  0.00  0.00    +0.000 A 
ATOM      5  C   UNL     1      43.804   5.820  11.154  0.00  0.00    +0.000 A 
ATOM      6  C   UNL     1      43.620   4.858  10.187  0.00  0.00    +0.000 A 
ATOM      7  N   UNL     1      44.413   3.775  10.503  0.00  0.00    +0.000 N 
ATOM      8  C   UNL     1      45.122   4.038  11.659  0.00  0.00    +0.000 A 
ATOM      9  C   UNL     1      46.055   3.298  12.396  0.00  0.00    +0.000 A 
ENDROOT
BRANCH   1  11
ATOM     10  C   UNL     1      47.538   3.482  15.673  0.00  0.00    +0.000 C 
ATOM     11  O   UNL     1      47.389   3.105  14.307  0.00  0.00    +0.000 OA
ENDBRANCH   1  11
BRANCH   7  12
ATOM     12  C   UNL     1      44.375   2.504   9.787  0.00  0.00    +0.000 C 
BRANCH  12  13
ATOM     13  C   UNL     1      45.403   2.441   8.685  0.00  0.00    +0.000 A 
ATOM     14  C   UNL     1      45.732   3.593   7.952  0.00  0.00    +0.000 A 
ATOM     15  C   UNL     1      46.664   3.530   6.916  0.00  0.00    +0.000 A 
ATOM     16  C   UNL     1      47.268   2.316   6.607  0.00  0.00    +0.000 A 
ATOM     17  F   UNL     1      48.151   2.255   5.604  0.00  0.00    +0.000 F 
ATOM     18  C   UNL     1      46.963   1.168   7.326  0.00  0.00    +0.000 A 
ATOM     19  C   UNL     1      46.034   1.228   8.365  0.00  0.00    +0.000 A 
ENDBRANCH  12  13
ENDBRANCH   7  12
TORSDOF 3
ENDMDL
MODEL 3
REMARK VINA RESULT:    -7.324      1.766      2.281
REMARK INTER + INTRA:          -9.159
REMARK INTER:                  -8.637
REMARK INTRA:                  -0.522
REMARK UNBOUND:                -0.550
REMARK  Name = 
REMARK  4 active torsions:
REMARK  status: ('A' for Active; 'I' for Inactive)
REMARK    1  A    between atoms: C_1  and  O_2
REMARK    2  A    between atoms: O_2  and  C_3
REMARK    3  A    between atoms: N_9  and  C_10
REMARK    4  A    between atoms: C_10  and  C_11
REMARK                            x       y       z     vdW  Elec       q    Type
REMARK                         _______ _______ _______ _____ _____    ______ ____
ROOT
ATOM      1  C   UNL     1      44.947   7.699  11.692  0.00  0.00    +0.000 A 
ATOM      2  C   UNL     1      45.730   7.566  12.834  0.00  0.00    +0.000 A 
ATOM      3  N   UNL     1      46.126   6.398  13.391  0.00  0.00    +0.000 NA
ATOM      4  C   UNL     1      45.705   5.288  12.739  0.00  0.00    +0.000 A 
ATOM      5  C   UNL     1      45.963   3.936  13.054  0.00  0.00    +0.000 A 
ATOM      6  C   UNL     1      45.359   3.165  12.087  0.00  0.00    +0.000 A 
ATOM      7  N   UNL     1      44.734   4.009  11.195  0.00  0.00    +0.000 N 
ATOM      8  C   UNL     1      44.914   5.321  11.588  0.00  0.00    +0.000 A 
ATOM      9  C   UNL     1      44.492   6.545  11.054  0.00  0.00    +0.000 A 
ENDROOT
BRANCH   1  11
ATOM     10  C   UNL     1      44.998  10.054  11.801  0.00  0.00    +0.000 C 
ATOM     11  O   UNL     1      44.552   8.881  11.126  0.00  0.00    +0.000 OA
ENDBRANCH   1  11
BRANCH   7  12
ATOM     12  C   UNL     1      44.111   3.561   9.953  0.00  0.00    +0.000 C 
BRANCH  12  13
ATOM     13  C   UNL     1      45.131   3.136   8.926  0.00  0.00    +0.000 A 
ATOM     14  C   UNL     1      45.491   1.785   8.798  0.00  0.00    +0.000 A 
ATOM     15  C   UNL     1      46.454   1.395   7.865  0.00  0.00    +0.000 A 
ATOM     16  C   UNL     1      47.059   2.354   7.060  0.00  0.00    +0.000 A 
ATOM     17  F   UNL     1      47.991   1.979   6.177  0.00  0.00    +0.000 F 
ATOM     18  C   UNL     1      46.710   3.693   7.165  0.00  0.00    +0.000 A 
ATOM     19  C   UNL     1      45.746   4.086   8.094  0.00  0.00    +0.000 A 
ENDBRANCH  12  13
ENDBRANCH   7  12
TORSDOF 3
ENDMDL
MODEL 4
REMARK VINA RESULT:    -7.199      1.843      2.775
REMARK INTER + INTRA:          -9.011
REMARK INTER:                  -8.459
REMARK INTRA:                  -0.552
REMARK UNBOUND:                -0.550
REMARK  Name = 
REMARK  4 active torsions:
REMARK  status: ('A' for Active; 'I' for Inactive)
REMARK    1  A    between atoms: C_1  and  O_2
REMARK    2  A    between atoms: O_2  and  C_3
REMARK    3  A    between atoms: N_9  and  C_10
REMARK    4  A    between atoms: C_10  and  C_11
REMARK                            x       y       z     vdW  Elec       q    Type
REMARK                         _______ _______ _______ _____ _____    ______ ____
ROOT
ATOM      1  C   UNL     1      47.113   4.304  14.022  0.00  0.00    +0.000 A 
ATOM      2  C   UNL     1      47.473   5.595  14.393  0.00  0.00    +0.000 A 
ATOM      3  N   UNL     1      47.062   6.736  13.793  0.00  0.00    +0.000 NA
ATOM      4  C   UNL     1      46.221   6.555  12.747  0.00  0.00    +0.000 A 
ATOM      5  C   UNL     1      45.609   7.534  11.935  0.00  0.00    +0.000 A 
ATOM      6  C   UNL     1      44.810   6.876  11.027  0.00  0.00    +0.000 A 
ATOM      7  N   UNL     1      44.923   5.522  11.259  0.00  0.00    +0.000 N 
ATOM      8  C   UNL     1      45.804   5.299  12.299  0.00  0.00    +0.000 A 
ATOM      9  C   UNL     1      46.273   4.135  12.920  0.00  0.00    +0.000 A 
ENDROOT
BRANCH   1  11
ATOM     10  C   UNL     1      47.712   3.248  16.043  0.00  0.00    +0.000 C 
ATOM     11  O   UNL     1      47.524   3.151  14.634  0.00  0.00    +0.000 OA
ENDBRANCH   1  11
BRANCH   7  12
ATOM     12  C   UNL     1      44.111   4.513  10.588  0.00  0.00    +0.000 C 
BRANCH  12  13
ATOM     13  C   UNL     1      44.888   3.767   9.532  0.00  0.00    +0.000 A 
ATOM     14  C   UNL     1      44.930   2.363   9.537  0.00  0.00    +0.000 A 
ATOM     15  C   UNL     1      45.670   1.674   8.575  0.00  0.00    +0.000 A 
ATOM     16  C   UNL     1      46.371   2.385   7.607  0.00  0.00    +0.000 A 
ATOM     17  F   UNL     1      47.091   1.722   6.695  0.00  0.00    +0.000 F 
ATOM     18  C   UNL     1      46.335   3.772   7.580  0.00  0.00    +0.000 A 
ATOM     19  C   UNL     1      45.593   4.465   8.537  0.00  0.00    +0.000 A 
ENDBRANCH  12  13
ENDBRANCH   7  12
TORSDOF 3
ENDMDL
MODEL 5
REMARK VINA RESULT:    -6.759      2.786      5.436
REMARK INTER + INTRA:          -8.495
REMARK INTER:                  -7.906
REMARK INTRA:                  -0.589
REMARK UNBOUND:                -0.550
REMARK  Name = 
REMARK  4 active torsions:
REMARK  status: ('A' for Active; 'I' for Inactive)
REMARK    1  A    between atoms: C_1  and  O_2
REMARK    2  A    between atoms: O_2  and  C_3
REMARK    3  A    between atoms: N_9  and  C_10
REMARK    4  A    between atoms: C_10  and  C_11
REMARK                            x       y       z     vdW  Elec       q    Type
REMARK                         _______ _______ _______ _____ _____    ______ ____
ROOT
ATOM      1  C   UNL     1      45.515   3.878   8.371  0.00  0.00    +0.000 A 
ATOM      2  C   UNL     1      44.900   2.634   8.458  0.00  0.00    +0.000 A 
ATOM      3  N   UNL     1      44.151   2.191   9.493  0.00  0.00    +0.000 NA
ATOM      4  C   UNL     1      44.010   3.075  10.509  0.00  0.00    +0.000 A 
ATOM      5  C   UNL     1      43.281   2.923  11.709  0.00  0.00    +0.000 A 
ATOM      6  C   UNL     1      43.398   4.099  12.415  0.00  0.00    +0.000 A 
ATOM      7  N   UNL     1      44.183   4.962  11.681  0.00  0.00    +0.000 N 
ATOM      8  C   UNL     1      44.590   4.346  10.514  0.00  0.00    +0.000 A 
ATOM      9  C   UNL     1      45.388   4.764   9.442  0.00  0.00    +0.000 A 
ENDROOT
BRANCH   1  11
ATOM     10  C   UNL     1      46.657   3.326   6.383  0.00  0.00    +0.000 C 
ATOM     11  O   UNL     1      46.268   4.327   7.319  0.00  0.00    +0.000 OA
ENDBRANCH   1  11
BRANCH   7  12
ATOM     12  C   UNL     1      44.409   6.359  12.041  0.00  0.00    +0.000 C 
BRANCH  12  13
ATOM     13  C   UNL     1      45.834   6.613  12.465  0.00  0.00    +0.000 A 
ATOM     14  C   UNL     1      46.582   7.641  11.868  0.00  0.00    +0.000 A 
ATOM     15  C   UNL     1      47.908   7.859  12.243  0.00  0.00    +0.000 A 
ATOM     16  C   UNL     1      48.492   7.051  13.213  0.00  0.00    +0.000 A 
ATOM     17  F   UNL     1      49.767   7.255  13.559  0.00  0.00    +0.000 F 
ATOM     18  C   UNL     1      47.766   6.036  13.821  0.00  0.00    +0.000 A 
ATOM     19  C   UNL     1      46.439   5.817  13.453  0.00  0.00    +0.000 A 
ENDBRANCH  12  13
ENDBRANCH   7  12
TORSDOF 3
ENDMDL
MODEL 6
REMARK VINA RESULT:    -5.944      2.643      3.367
REMARK INTER + INTRA:          -7.536
REMARK INTER:                  -7.061
REMARK INTRA:                  -0.475
REMARK UNBOUND:                -0.550
REMARK  Name = 
REMARK  4 active torsions:
REMARK  status: ('A' for Active; 'I' for Inactive)
REMARK    1  A    between atoms: C_1  and  O_2
REMARK    2  A    between atoms: O_2  and  C_3
REMARK    3  A    between atoms: N_9  and  C_10
REMARK    4  A    between atoms: C_10  and  C_11
REMARK                            x       y       z     vdW  Elec       q    Type
REMARK                         _______ _______ _______ _____ _____    ______ ____
ROOT
ATOM      1  C   UNL     1      45.252   9.340  11.793  0.00  0.00    +0.000 A 
ATOM      2  C   UNL     1      46.460   9.506  12.462  0.00  0.00    +0.000 A 
ATOM      3  N   UNL     1      47.182   8.524  13.049  0.00  0.00    +0.000 NA
ATOM      4  C   UNL     1      46.645   7.285  12.944  0.00  0.00    +0.000 A 
ATOM      5  C   UNL     1      47.160   6.063  13.428  0.00  0.00    +0.000 A 
ATOM      6  C   UNL     1      46.286   5.069  13.049  0.00  0.00    +0.000 A 
ATOM      7  N   UNL     1      45.250   5.652  12.352  0.00  0.00    +0.000 N 
ATOM      8  C   UNL     1      45.438   7.019  12.294  0.00  0.00    +0.000 A 
ATOM      9  C   UNL     1      44.696   8.062  11.725  0.00  0.00    +0.000 A 
ENDROOT
BRANCH   1  11
ATOM     10  C   UNL     1      45.294  11.412  10.669  0.00  0.00    +0.000 C 
ATOM     11  O   UNL     1      44.526  10.333  11.195  0.00  0.00    +0.000 OA
ENDBRANCH   1  11
BRANCH   7  12
ATOM     12  C   UNL     1      44.206   4.897  11.667  0.00  0.00    +0.000 C 
BRANCH  12  13
ATOM     13  C   UNL     1      44.702   4.277  10.384  0.00  0.00    +0.000 A 
ATOM     14  C   UNL     1      45.458   5.033   9.474  0.00  0.00    +0.000 A 
ATOM     15  C   UNL     1      45.895   4.467   8.276  0.00  0.00    +0.000 A 
ATOM     16  C   UNL     1      45.576   3.145   7.983  0.00  0.00    +0.000 A 
ATOM     17  F   UNL     1      45.984   2.610   6.827  0.00  0.00    +0.000 F 
ATOM     18  C   UNL     1      44.837   2.379   8.873  0.00  0.00    +0.000 A 
ATOM     19  C   UNL     1      44.402   2.940  10.074  0.00  0.00    +0.000 A 
ENDBRANCH  12  13
ENDBRANCH   7  12
TORSDOF 3
ENDMDL
MODEL 7
REMARK VINA RESULT:    -5.533      3.202      5.973
REMARK INTER + INTRA:          -7.053
REMARK INTER:                  -6.793
REMARK INTRA:                  -0.260
REMARK UNBOUND:                -0.550
REMARK  Name = 
REMARK  4 active torsions:
REMARK  status: ('A' for Active; 'I' for Inactive)
REMARK    1  A    between atoms: C_1  and  O_2
REMARK    2  A    between atoms: O_2  and  C_3
REMARK    3  A    between atoms: N_9  and  C_10
REMARK    4  A    between atoms: C_10  and  C_11
REMARK                            x       y       z     vdW  Elec       q    Type
REMARK                         _______ _______ _______ _____ _____    ______ ____
ROOT
ATOM      1  C   UNL     1      44.664   4.329  10.744  0.00  0.00    +0.000 A 
ATOM      2  C   UNL     1      44.791   3.261  11.626  0.00  0.00    +0.000 A 
ATOM      3  N   UNL     1      45.488   3.269  12.785  0.00  0.00    +0.000 NA
ATOM      4  C   UNL     1      46.093   4.446  13.074  0.00  0.00    +0.000 A 
ATOM      5  C   UNL     1      46.869   4.778  14.206  0.00  0.00    +0.000 A 
ATOM      6  C   UNL     1      47.240   6.097  14.079  0.00  0.00    +0.000 A 
ATOM      7  N   UNL     1      46.717   6.578  12.898  0.00  0.00    +0.000 N 
ATOM      8  C   UNL     1      46.025   5.573  12.251  0.00  0.00    +0.000 A 
ATOM      9  C   UNL     1      45.323   5.522  11.040  0.00  0.00    +0.000 A 
ENDROOT
BRANCH   1  11
ATOM     10  C   UNL     1      44.688   3.913   8.424  0.00  0.00    +0.000 C 
ATOM     11  O   UNL     1      43.954   4.321   9.575  0.00  0.00    +0.000 OA
ENDBRANCH   1  11
BRANCH   7  12
ATOM     12  C   UNL     1      46.778   7.979  12.494  0.00  0.00    +0.000 C 
BRANCH  12  13
ATOM     13  C   UNL     1      48.165   8.387  12.066  0.00  0.00    +0.000 A 
ATOM     14  C   UNL     1      48.503   9.745  11.949  0.00  0.00    +0.000 A 
ATOM     15  C   UNL     1      49.779  10.123  11.528  0.00  0.00    +0.000 A 
ATOM     16  C   UNL     1      50.720   9.146  11.223  0.00  0.00    +0.000 A 
ATOM     17  F   UNL     1      51.938   9.511  10.807  0.00  0.00    +0.000 F 
ATOM     18  C   UNL     1      50.409   7.798  11.342  0.00  0.00    +0.000 A 
ATOM     19  C   UNL     1      49.135   7.416  11.765  0.00  0.00    +0.000 A 
ENDBRANCH  12  13
ENDBRANCH   7  12
TORSDOF 3
ENDMDL
MODEL 8
REMARK VINA RESULT:    -5.497      3.989      5.980
REMARK INTER + INTRA:          -7.011
REMARK INTER:                  -6.474
REMARK INTRA:                  -0.537
REMARK UNBOUND:                -0.550
REMARK  Name = 
REMARK  4 active torsions:
REMARK  status: ('A' for Active; 'I' for Inactive)
REMARK    1  A    between atoms: C_1  and  O_2
REMARK    2  A    between atoms: O_2  and  C_3
REMARK    3  A    between atoms: N_9  and  C_10
REMARK    4  A    between atoms: C_10  and  C_11
REMARK                            x       y       z     vdW  Elec       q    Type
REMARK                         _______ _______ _______ _____ _____    ______ ____
ROOT
ATOM      1  C   UNL     1      46.799   3.817  13.811  0.00  0.00    +0.000 A 
ATOM      2  C   UNL     1      45.964   3.267  12.845  0.00  0.00    +0.000 A 
ATOM      3  N   UNL     1      45.206   3.960  11.965  0.00  0.00    +0.000 NA
ATOM      4  C   UNL     1      45.308   5.306  12.066  0.00  0.00    +0.000 A 
ATOM      5  C   UNL     1      44.667   6.295  11.288  0.00  0.00    +0.000 A 
ATOM      6  C   UNL     1      45.109   7.521  11.734  0.00  0.00    +0.000 A 
ATOM      7  N   UNL     1      45.996   7.306  12.767  0.00  0.00    +0.000 N 
ATOM      8  C   UNL     1      46.118   5.951  13.004  0.00  0.00    +0.000 A 
ATOM      9  C   UNL     1      46.866   5.206  13.924  0.00  0.00    +0.000 A 
ENDROOT
BRANCH   1  11
ATOM     10  C   UNL     1      47.607   3.644  16.019  0.00  0.00    +0.000 C 
ATOM     11  O   UNL     1      47.570   3.115  14.697  0.00  0.00    +0.000 OA
ENDBRANCH   1  11
BRANCH   7  12
ATOM     12  C   UNL     1      46.782   8.364  13.394  0.00  0.00    +0.000 C 
BRANCH  12  13
ATOM     13  C   UNL     1      47.987   8.743  12.569  0.00  0.00    +0.000 A 
ATOM     14  C   UNL     1      49.029   7.825  12.367  0.00  0.00    +0.000 A 
ATOM     15  C   UNL     1      50.155   8.184  11.625  0.00  0.00    +0.000 A 
ATOM     16  C   UNL     1      50.243   9.462  11.084  0.00  0.00    +0.000 A 
ATOM     17  F   UNL     1      51.329   9.808  10.385  0.00  0.00    +0.000 F 
ATOM     18  C   UNL     1      49.219  10.382  11.264  0.00  0.00    +0.000 A 
ATOM     19  C   UNL     1      48.090  10.025  12.002  0.00  0.00    +0.000 A 
ENDBRANCH  12  13
ENDBRANCH   7  12
TORSDOF 3
ENDMDL
MODEL 9
REMARK VINA RESULT:    -5.485      2.414      3.839
REMARK INTER + INTRA:          -6.997
REMARK INTER:                  -6.842
REMARK INTRA:                  -0.155
REMARK UNBOUND:                -0.550
REMARK  Name = 
REMARK  4 active torsions:
REMARK  status: ('A' for Active; 'I' for Inactive)
REMARK    1  A    between atoms: C_1  and  O_2
REMARK    2  A    between atoms: O_2  and  C_3
REMARK    3  A    between atoms: N_9  and  C_10
REMARK    4  A    between atoms: C_10  and  C_11
REMARK                            x       y       z     vdW  Elec       q    Type
REMARK                         _______ _______ _______ _____ _____    ______ ____
ROOT
ATOM      1  C   UNL     1      48.728   7.108  14.512  0.00  0.00    +0.000 A 
ATOM      2  C   UNL     1      48.671   8.493  14.400  0.00  0.00    +0.000 A 
ATOM      3  N   UNL     1      47.728   9.195  13.731  0.00  0.00    +0.000 NA
ATOM      4  C   UNL     1      46.772   8.439  13.139  0.00  0.00    +0.000 A 
ATOM      5  C   UNL     1      45.654   8.868  12.392  0.00  0.00    +0.000 A 
ATOM      6  C   UNL     1      44.948   7.744  12.025  0.00  0.00    +0.000 A 
ATOM      7  N   UNL     1      45.608   6.642  12.523  0.00  0.00    +0.000 N 
ATOM      8  C   UNL     1      46.746   7.044  13.194  0.00  0.00    +0.000 A 
ATOM      9  C   UNL     1      47.756   6.343  13.867  0.00  0.00    +0.000 A 
ENDROOT
BRANCH   1  11
ATOM     10  C   UNL     1      49.341   6.073  16.541  0.00  0.00    +0.000 C 
ATOM     11  O   UNL     1      49.679   6.399  15.195  0.00  0.00    +0.000 OA
ENDBRANCH   1  11
BRANCH   7  12
ATOM     12  C   UNL     1      45.080   5.283  12.461  0.00  0.00    +0.000 C 
BRANCH  12  13
ATOM     13  C   UNL     1      45.122   4.721  11.061  0.00  0.00    +0.000 A 
ATOM     14  C   UNL     1      44.553   3.468  10.780  0.00  0.00    +0.000 A 
ATOM     15  C   UNL     1      44.614   2.937   9.491  0.00  0.00    +0.000 A 
ATOM     16  C   UNL     1      45.245   3.654   8.481  0.00  0.00    +0.000 A 
ATOM     17  F   UNL     1      45.314   3.136   7.250  0.00  0.00    +0.000 F 
ATOM     18  C   UNL     1      45.805   4.898   8.736  0.00  0.00    +0.000 A 
ATOM     19  C   UNL     1      45.743   5.435  10.023  0.00  0.00    +0.000 A 
ENDBRANCH  12  13
ENDBRANCH   7  12
TORSDOF 3
ENDMDL
