MODEL 1
REMARK VINA RESULT:    -8.489      0.000      0.000
REMARK INTER + INTRA:         -12.714
REMARK INTER:                 -11.963
REMARK INTRA:                  -0.752
REMARK UNBOUND:                -0.752
REMARK  Name = 
REMARK  8 active torsions:
REMARK  status: ('A' for Active; 'I' for Inactive)
REMARK    1  A    between atoms: C_1  and  C_2
REMARK    2  A    between atoms: C_2  and  C_3
REMARK    3  A    between atoms: C_7  and  C_8
REMARK    4  A    between atoms: C_8  and  C_9
REMARK    5  A    between atoms: C_9  and  N_10
REMARK    6  A    between atoms: C_14  and  C_15
REMARK    7  A    between atoms: N_24  and  C_25
REMARK    8  A    between atoms: C_25  and  C_26
REMARK                            x       y       z     vdW  Elec       q    Type
REMARK                         _______ _______ _______ _____ _____    ______ ____
ROOT
ATOM      1  C   UNL     1      46.365   7.309  12.994  0.00  0.00    +0.000 A 
ATOM      2  C   UNL     1      46.241   8.522  12.298  0.00  0.00    +0.000 A 
ATOM      3  C   UNL     1      45.103   8.800  11.531  0.00  0.00    +0.000 A 
ATOM      4  C   UNL     1      44.071   7.866  11.429  0.00  0.00    +0.000 A 
ATOM      5  C   UNL     1      44.155   6.649  12.110  0.00  0.00    +0.000 A 
ATOM      6  C   UNL     1      45.293   6.411  12.904  0.00  0.00    +0.000 A 
ENDROOT
BRANCH   1   8
ATOM      7  C   UNL     1      48.584   6.218  12.732  0.00  0.00    +0.000 C 
ATOM      8  C   UNL     1      47.665   6.943  13.748  0.00  0.00    +0.000 C 
ATOM      9  C   UNL     1      48.337   8.224  14.299  0.00  0.00    +0.000 C 
ATOM     10  C   UNL     1      49.560   7.918  15.162  0.00  0.00    +0.000 C 
ATOM     11  C   UNL     1      49.245   6.918  16.275  0.00  0.00    +0.000 C 
ATOM     12  N   UNL     1      48.674   5.682  15.724  0.00  0.00    +0.000 NA
ATOM     13  C   UNL     1      47.440   5.983  14.968  0.00  0.00    +0.000 C 
BRANCH  12  14
ATOM     14  C   UNL     1      48.388   4.679  16.788  0.00  0.00    +0.000 C 
BRANCH  14  15
ATOM     15  C   UNL     1      48.007   3.233  16.383  0.00  0.00    +0.000 C 
ATOM     16  F   UNL     1      47.549   3.131  15.118  0.00  0.00    +0.000 F 
ATOM     17  F   UNL     1      49.080   2.412  16.493  0.00  0.00    +0.000 F 
ATOM     18  F   UNL     1      47.043   2.741  17.199  0.00  0.00    +0.000 F 
ENDBRANCH  14  15
ENDBRANCH  12  14
ENDBRANCH   1   8
BRANCH   5  19
ATOM     19  C   UNL     1      43.060   5.606  11.939  0.00  0.00    +0.000 C 
BRANCH  19  20
ATOM     20  C   UNL     1      43.357   4.582  10.835  0.00  0.00    +0.000 C 
BRANCH  20  21
ATOM     21  N   UNL     1      44.181   5.114   9.751  0.00  0.00    +0.000 N 
ATOM     22  C   UNL     1      44.910   4.076   9.119  0.00  0.00    +0.000 A 
ATOM     23  C   UNL     1      45.768   4.407   8.075  0.00  0.00    +0.000 A 
ATOM     24  C   UNL     1      46.496   3.402   7.429  0.00  0.00    +0.000 A 
ATOM     25  C   UNL     1      46.352   2.081   7.845  0.00  0.00    +0.000 A 
ATOM     26  C   UNL     1      45.485   1.829   8.893  0.00  0.00    +0.000 A 
ATOM     27  N   UNL     1      44.761   2.791   9.518  0.00  0.00    +0.000 NA
ATOM     28  H   UNL     1      44.849   5.803  10.087  0.00  0.00    +0.000 HD
BRANCH  25  29
ATOM     29  C   UNL     1      47.086   0.948   7.245  0.00  0.00    +0.000 C 
ATOM     30  N   UNL     1      46.788  -0.306   7.697  0.00  0.00    +0.000 N 
ATOM     31  O   UNL     1      47.949   1.129   6.397  0.00  0.00    +0.000 OA
ATOM     32  H   UNL     1      46.275  -0.475   8.550  0.00  0.00    +0.000 HD
ATOM     33  H   UNL     1      47.368  -1.059   7.343  0.00  0.00    +0.000 HD
ENDBRANCH  25  29
ENDBRANCH  20  21
ENDBRANCH  19  20
ENDBRANCH   5  19
TORSDOF 7
ENDMDL
MODEL 2
REMARK VINA RESULT:    -8.421      2.986      3.992
REMARK INTER + INTRA:         -12.619
REMARK INTER:                 -11.706
REMARK INTRA:                  -0.913
REMARK UNBOUND:                -0.752
REMARK  Name = 
REMARK  8 active torsions:
REMARK  status: ('A' for Active; 'I' for Inactive)
REMARK    1  A    between atoms: C_1  and  C_2
REMARK    2  A    between atoms: C_2  and  C_3
REMARK    3  A    between atoms: C_7  and  C_8
REMARK    4  A    between atoms: C_8  and  C_9
REMARK    5  A    between atoms: C_9  and  N_10
REMARK    6  A    between atoms: C_14  and  C_15
REMARK    7  A    between atoms: N_24  and  C_25
REMARK    8  A    between atoms: C_25  and  C_26
REMARK                            x       y       z     vdW  Elec       q    Type
REMARK                         _______ _______ _______ _____ _____    ______ ____
ROOT
ATOM      1  C   UNL     1      46.753   6.640  13.045  0.00  0.00    +0.000 A 
ATOM      2  C   UNL     1      47.422   5.506  13.531  0.00  0.00    +0.000 A 
ATOM      3  C   UNL     1      46.784   4.261  13.588  0.00  0.00    +0.000 A 
ATOM      4  C   UNL     1      45.456   4.126  13.177  0.00  0.00    +0.000 A 
ATOM      5  C   UNL     1      44.757   5.230  12.684  0.00  0.00    +0.000 A 
ATOM      6  C   UNL     1      45.435   6.461  12.602  0.00  0.00    +0.000 A 
ENDROOT
BRANCH   1   8
ATOM      7  C   UNL     1      46.338   9.051  12.601  0.00  0.00    +0.000 C 
ATOM      8  C   UNL     1      47.408   8.041  13.087  0.00  0.00    +0.000 C 
ATOM      9  C   UNL     1      47.874   8.365  14.527  0.00  0.00    +0.000 C 
ATOM     10  C   UNL     1      48.643   9.683  14.610  0.00  0.00    +0.000 C 
ATOM     11  C   UNL     1      49.799   9.740  13.612  0.00  0.00    +0.000 C 
ATOM     12  N   UNL     1      49.324   9.500  12.243  0.00  0.00    +0.000 NA
ATOM     13  C   UNL     1      48.663   8.180  12.157  0.00  0.00    +0.000 C 
BRANCH  12  14
ATOM     14  C   UNL     1      50.430   9.582  11.248  0.00  0.00    +0.000 C 
BRANCH  14  15
ATOM     15  C   UNL     1      51.452   8.420  11.155  0.00  0.00    +0.000 C 
ATOM     16  F   UNL     1      50.965   7.323  10.538  0.00  0.00    +0.000 F 
ATOM     17  F   UNL     1      52.555   8.813  10.472  0.00  0.00    +0.000 F 
ATOM     18  F   UNL     1      51.863   8.037  12.389  0.00  0.00    +0.000 F 
ENDBRANCH  14  15
ENDBRANCH  12  14
ENDBRANCH   1   8
BRANCH   5  19
ATOM     19  C   UNL     1      43.290   5.092  12.303  0.00  0.00    +0.000 C 
BRANCH  19  20
ATOM     20  C   UNL     1      43.073   4.451  10.926  0.00  0.00    +0.000 C 
BRANCH  20  21
ATOM     21  N   UNL     1      43.893   5.042   9.870  0.00  0.00    +0.000 N 
ATOM     22  C   UNL     1      44.688   4.053   9.239  0.00  0.00    +0.000 A 
ATOM     23  C   UNL     1      45.552   4.445   8.222  0.00  0.00    +0.000 A 
ATOM     24  C   UNL     1      46.345   3.489   7.577  0.00  0.00    +0.000 A 
ATOM     25  C   UNL     1      46.258   2.155   7.968  0.00  0.00    +0.000 A 
ATOM     26  C   UNL     1      45.381   1.841   8.991  0.00  0.00    +0.000 A 
ATOM     27  N   UNL     1      44.595   2.756   9.614  0.00  0.00    +0.000 NA
ATOM     28  H   UNL     1      44.517   5.758  10.233  0.00  0.00    +0.000 HD
BRANCH  25  29
ATOM     29  C   UNL     1      47.062   1.071   7.368  0.00  0.00    +0.000 C 
ATOM     30  N   UNL     1      46.719  -0.215   7.679  0.00  0.00    +0.000 N 
ATOM     31  O   UNL     1      48.016   1.315   6.643  0.00  0.00    +0.000 OA
ATOM     32  H   UNL     1      46.111  -0.449   8.451  0.00  0.00    +0.000 HD
ATOM     33  H   UNL     1      47.340  -0.939   7.335  0.00  0.00    +0.000 HD
ENDBRANCH  25  29
ENDBRANCH  20  21
ENDBRANCH  19  20
ENDBRANCH   5  19
TORSDOF 7
ENDMDL
MODEL 3
REMARK VINA RESULT:    -8.031      3.855      7.961
REMARK INTER + INTRA:         -12.069
REMARK INTER:                 -11.316
REMARK INTRA:                  -0.753
REMARK UNBOUND:                -0.752
REMARK  Name = 
REMARK  8 active torsions:
REMARK  status: ('A' for Active; 'I' for Inactive)
REMARK    1  A    between atoms: C_1  and  C_2
REMARK    2  A    between atoms: C_2  and  C_3
REMARK    3  A    between atoms: C_7  and  C_8
REMARK    4  A    between atoms: C_8  and  C_9
REMARK    5  A    between atoms: C_9  and  N_10
REMARK    6  A    between atoms: C_14  and  C_15
REMARK    7  A    between atoms: N_24  and  C_25
REMARK    8  A    between atoms: C_25  and  C_26
REMARK                            x       y       z     vdW  Elec       q    Type
REMARK                         _______ _______ _______ _____ _____    ______ ____
ROOT
ATOM      1  C   UNL     1      46.413   6.660  12.830  0.00  0.00    +0.000 A 
ATOM      2  C   UNL     1      46.089   7.996  12.544  0.00  0.00    +0.000 A 
ATOM      3  C   UNL     1      46.827   9.050  13.094  0.00  0.00    +0.000 A 
ATOM      4  C   UNL     1      47.896   8.794  13.956  0.00  0.00    +0.000 A 
ATOM      5  C   UNL     1      48.253   7.479  14.261  0.00  0.00    +0.000 A 
ATOM      6  C   UNL     1      47.517   6.437  13.664  0.00  0.00    +0.000 A 
ENDROOT
BRANCH   1   8
ATOM      7  C   UNL     1      46.229   4.182  12.771  0.00  0.00    +0.000 C 
ATOM      8  C   UNL     1      45.535   5.492  12.323  0.00  0.00    +0.000 C 
ATOM      9  C   UNL     1      44.110   5.605  12.917  0.00  0.00    +0.000 C 
ATOM     10  C   UNL     1      43.157   4.550  12.355  0.00  0.00    +0.000 C 
ATOM     11  C   UNL     1      43.137   4.548  10.827  0.00  0.00    +0.000 C 
ATOM     12  N   UNL     1      44.490   4.369  10.284  0.00  0.00    +0.000 NA
ATOM     13  C   UNL     1      45.378   5.449  10.763  0.00  0.00    +0.000 C 
BRANCH  12  14
ATOM     14  C   UNL     1      44.490   4.332   8.794  0.00  0.00    +0.000 C 
BRANCH  14  15
ATOM     15  C   UNL     1      45.647   3.613   8.055  0.00  0.00    +0.000 C 
ATOM     16  F   UNL     1      45.316   3.193   6.816  0.00  0.00    +0.000 F 
ATOM     17  F   UNL     1      46.715   4.438   7.931  0.00  0.00    +0.000 F 
ATOM     18  F   UNL     1      46.062   2.525   8.749  0.00  0.00    +0.000 F 
ENDBRANCH  14  15
ENDBRANCH  12  14
ENDBRANCH   1   8
BRANCH   5  19
ATOM     19  C   UNL     1      49.373   7.207  15.255  0.00  0.00    +0.000 C 
BRANCH  19  20
ATOM     20  C   UNL     1      48.871   6.883  16.669  0.00  0.00    +0.000 C 
BRANCH  20  21
ATOM     21  N   UNL     1      48.222   5.578  16.774  0.00  0.00    +0.000 N 
ATOM     22  C   UNL     1      49.179   4.559  17.010  0.00  0.00    +0.000 A 
ATOM     23  C   UNL     1      48.736   3.244  17.114  0.00  0.00    +0.000 A 
ATOM     24  C   UNL     1      49.658   2.218  17.352  0.00  0.00    +0.000 A 
ATOM     25  C   UNL     1      51.009   2.532  17.480  0.00  0.00    +0.000 A 
ATOM     26  C   UNL     1      51.374   3.860  17.359  0.00  0.00    +0.000 A 
ATOM     27  N   UNL     1      50.490   4.867  17.143  0.00  0.00    +0.000 NA
ATOM     28  H   UNL     1      47.716   5.338  15.926  0.00  0.00    +0.000 HD
BRANCH  25  29
ATOM     29  C   UNL     1      52.064   1.525  17.714  0.00  0.00    +0.000 C 
ATOM     30  N   UNL     1      51.669   0.272  18.087  0.00  0.00    +0.000 N 
ATOM     31  O   UNL     1      53.249   1.810  17.608  0.00  0.00    +0.000 OA
ATOM     32  H   UNL     1      50.738   0.067  18.421  0.00  0.00    +0.000 HD
ATOM     33  H   UNL     1      52.408  -0.376  18.335  0.00  0.00    +0.000 HD
ENDBRANCH  25  29
ENDBRANCH  20  21
ENDBRANCH  19  20
ENDBRANCH   5  19
TORSDOF 7
ENDMDL
MODEL 4
REMARK VINA RESULT:    -7.754      3.797      7.695
REMARK INTER + INTRA:         -11.678
REMARK INTER:                 -10.785
REMARK INTRA:                  -0.893
REMARK UNBOUND:                -0.752
REMARK  Name = 
REMARK  8 active torsions:
REMARK  status: ('A' for Active; 'I' for Inactive)
REMARK    1  A    between atoms: C_1  and  C_2
REMARK    2  A    between atoms: C_2  and  C_3
REMARK    3  A    between atoms: C_7  and  C_8
REMARK    4  A    between atoms: C_8  and  C_9
REMARK    5  A    between atoms: C_9  and  N_10
REMARK    6  A    between atoms: C_14  and  C_15
REMARK    7  A    between atoms: N_24  and  C_25
REMARK    8  A    between atoms: C_25  and  C_26
REMARK                            x       y       z     vdW  Elec       q    Type
REMARK                         _______ _______ _______ _____ _____    ______ ____
ROOT
ATOM      1  C   UNL     1      45.852   6.953  12.234  0.00  0.00    +0.000 A 
ATOM      2  C   UNL     1      44.971   7.996  11.907  0.00  0.00    +0.000 A 
ATOM      3  C   UNL     1      45.391   9.331  11.937  0.00  0.00    +0.000 A 
ATOM      4  C   UNL     1      46.697   9.655  12.310  0.00  0.00    +0.000 A 
ATOM      5  C   UNL     1      47.605   8.646  12.639  0.00  0.00    +0.000 A 
ATOM      6  C   UNL     1      47.167   7.310  12.564  0.00  0.00    +0.000 A 
ENDROOT
BRANCH   1   8
ATOM      7  C   UNL     1      46.371   4.734  13.228  0.00  0.00    +0.000 C 
ATOM      8  C   UNL     1      45.368   5.486  12.318  0.00  0.00    +0.000 C 
ATOM      9  C   UNL     1      43.934   5.435  12.898  0.00  0.00    +0.000 C 
ATOM     10  C   UNL     1      43.350   4.022  12.889  0.00  0.00    +0.000 C 
ATOM     11  C   UNL     1      43.427   3.376  11.506  0.00  0.00    +0.000 C 
ATOM     12  N   UNL     1      44.807   3.372  11.004  0.00  0.00    +0.000 NA
ATOM     13  C   UNL     1      45.327   4.754  10.931  0.00  0.00    +0.000 C 
BRANCH  12  14
ATOM     14  C   UNL     1      44.911   2.717   9.670  0.00  0.00    +0.000 C 
BRANCH  14  15
ATOM     15  C   UNL     1      44.920   3.596   8.394  0.00  0.00    +0.000 C 
ATOM     16  F   UNL     1      46.072   4.278   8.218  0.00  0.00    +0.000 F 
ATOM     17  F   UNL     1      44.730   2.832   7.291  0.00  0.00    +0.000 F 
ATOM     18  F   UNL     1      43.917   4.507   8.427  0.00  0.00    +0.000 F 
ENDBRANCH  14  15
ENDBRANCH  12  14
ENDBRANCH   1   8
BRANCH   5  19
ATOM     19  C   UNL     1      49.005   9.009  13.112  0.00  0.00    +0.000 C 
BRANCH  19  20
ATOM     20  C   UNL     1      49.633   7.952  14.032  0.00  0.00    +0.000 C 
BRANCH  20  21
ATOM     21  N   UNL     1      49.424   8.216  15.454  0.00  0.00    +0.000 N 
ATOM     22  C   UNL     1      48.971   7.050  16.120  0.00  0.00    +0.000 A 
ATOM     23  C   UNL     1      48.697   7.127  17.481  0.00  0.00    +0.000 A 
ATOM     24  C   UNL     1      48.254   5.990  18.166  0.00  0.00    +0.000 A 
ATOM     25  C   UNL     1      48.091   4.795  17.469  0.00  0.00    +0.000 A 
ATOM     26  C   UNL     1      48.377   4.797  16.116  0.00  0.00    +0.000 A 
ATOM     27  N   UNL     1      48.822   5.888  15.443  0.00  0.00    +0.000 NA
ATOM     28  H   UNL     1      48.735   8.948  15.605  0.00  0.00    +0.000 HD
BRANCH  25  29
ATOM     29  C   UNL     1      47.612   3.543  18.091  0.00  0.00    +0.000 C 
ATOM     30  N   UNL     1      48.225   3.136  19.241  0.00  0.00    +0.000 N 
ATOM     31  O   UNL     1      46.720   2.881  17.578  0.00  0.00    +0.000 OA
ATOM     32  H   UNL     1      49.109   3.511  19.554  0.00  0.00    +0.000 HD
ATOM     33  H   UNL     1      47.948   2.228  19.599  0.00  0.00    +0.000 HD
ENDBRANCH  25  29
ENDBRANCH  20  21
ENDBRANCH  19  20
ENDBRANCH   5  19
TORSDOF 7
ENDMDL
MODEL 5
REMARK VINA RESULT:    -7.648      1.847      2.271
REMARK INTER + INTRA:         -11.530
REMARK INTER:                 -10.644
REMARK INTRA:                  -0.885
REMARK UNBOUND:                -0.752
REMARK  Name = 
REMARK  8 active torsions:
REMARK  status: ('A' for Active; 'I' for Inactive)
REMARK    1  A    between atoms: C_1  and  C_2
REMARK    2  A    between atoms: C_2  and  C_3
REMARK    3  A    between atoms: C_7  and  C_8
REMARK    4  A    between atoms: C_8  and  C_9
REMARK    5  A    between atoms: C_9  and  N_10
REMARK    6  A    between atoms: C_14  and  C_15
REMARK    7  A    between atoms: N_24  and  C_25
REMARK    8  A    between atoms: C_25  and  C_26
REMARK                            x       y       z     vdW  Elec       q    Type
REMARK                         _______ _______ _______ _____ _____    ______ ____
ROOT
ATOM      1  C   UNL     1      47.045   8.004  12.913  0.00  0.00    +0.000 A 
ATOM      2  C   UNL     1      46.635   9.184  12.272  0.00  0.00    +0.000 A 
ATOM      3  C   UNL     1      45.388   9.266  11.641  0.00  0.00    +0.000 A 
ATOM      4  C   UNL     1      44.530   8.165  11.620  0.00  0.00    +0.000 A 
ATOM      5  C   UNL     1      44.900   6.974  12.249  0.00  0.00    +0.000 A 
ATOM      6  C   UNL     1      46.142   6.931  12.909  0.00  0.00    +0.000 A 
ENDROOT
BRANCH   1   8
ATOM      7  C   UNL     1      49.302   7.050  12.494  0.00  0.00    +0.000 C 
ATOM      8  C   UNL     1      48.464   7.863  13.512  0.00  0.00    +0.000 C 
ATOM      9  C   UNL     1      49.077   9.264  13.753  0.00  0.00    +0.000 C 
ATOM     10  C   UNL     1      50.430   9.196  14.461  0.00  0.00    +0.000 C 
ATOM     11  C   UNL     1      50.366   8.374  15.749  0.00  0.00    +0.000 C 
ATOM     12  N   UNL     1      49.848   7.025  15.485  0.00  0.00    +0.000 NA
ATOM     13  C   UNL     1      48.499   7.106  14.884  0.00  0.00    +0.000 C 
BRANCH  12  14
ATOM     14  C   UNL     1      49.806   6.194  16.721  0.00  0.00    +0.000 C 
BRANCH  14  15
ATOM     15  C   UNL     1      51.080   5.429  17.163  0.00  0.00    +0.000 C 
ATOM     16  F   UNL     1      50.964   4.088  17.063  0.00  0.00    +0.000 F 
ATOM     17  F   UNL     1      52.141   5.801  16.407  0.00  0.00    +0.000 F 
ATOM     18  F   UNL     1      51.389   5.709  18.452  0.00  0.00    +0.000 F 
ENDBRANCH  14  15
ENDBRANCH  12  14
ENDBRANCH   1   8
BRANCH   5  19
ATOM     19  C   UNL     1      43.991   5.756  12.163  0.00  0.00    +0.000 C 
BRANCH  19  20
ATOM     20  C   UNL     1      43.831   5.212  10.737  0.00  0.00    +0.000 C 
BRANCH  20  21
ATOM     21  N   UNL     1      43.976   3.761  10.645  0.00  0.00    +0.000 N 
ATOM     22  C   UNL     1      44.837   3.409   9.576  0.00  0.00    +0.000 A 
ATOM     23  C   UNL     1      45.071   2.060   9.328  0.00  0.00    +0.000 A 
ATOM     24  C   UNL     1      45.922   1.684   8.283  0.00  0.00    +0.000 A 
ATOM     25  C   UNL     1      46.522   2.669   7.503  0.00  0.00    +0.000 A 
ATOM     26  C   UNL     1      46.238   3.989   7.806  0.00  0.00    +0.000 A 
ATOM     27  N   UNL     1      45.427   4.369   8.826  0.00  0.00    +0.000 NA
ATOM     28  H   UNL     1      43.083   3.301  10.489  0.00  0.00    +0.000 HD
BRANCH  25  29
ATOM     29  C   UNL     1      47.421   2.381   6.367  0.00  0.00    +0.000 C 
ATOM     30  N   UNL     1      47.335   3.196   5.273  0.00  0.00    +0.000 N 
ATOM     31  O   UNL     1      48.191   1.431   6.391  0.00  0.00    +0.000 OA
ATOM     32  H   UNL     1      46.559   3.822   5.115  0.00  0.00    +0.000 HD
ATOM     33  H   UNL     1      47.890   2.925   4.469  0.00  0.00    +0.000 HD
ENDBRANCH  25  29
ENDBRANCH  20  21
ENDBRANCH  19  20
ENDBRANCH   5  19
TORSDOF 7
ENDMDL
MODEL 6
REMARK VINA RESULT:    -7.535      1.535      2.015
REMARK INTER + INTRA:         -11.371
REMARK INTER:                 -10.615
REMARK INTRA:                  -0.756
REMARK UNBOUND:                -0.752
REMARK  Name = 
REMARK  8 active torsions:
REMARK  status: ('A' for Active; 'I' for Inactive)
REMARK    1  A    between atoms: C_1  and  C_2
REMARK    2  A    between atoms: C_2  and  C_3
REMARK    3  A    between atoms: C_7  and  C_8
REMARK    4  A    between atoms: C_8  and  C_9
REMARK    5  A    between atoms: C_9  and  N_10
REMARK    6  A    between atoms: C_14  and  C_15
REMARK    7  A    between atoms: N_24  and  C_25
REMARK    8  A    between atoms: C_25  and  C_26
REMARK                            x       y       z     vdW  Elec       q    Type
REMARK                         _______ _______ _______ _____ _____    ______ ____
ROOT
ATOM      1  C   UNL     1      47.868   7.131  13.609  0.00  0.00    +0.000 A 
ATOM      2  C   UNL     1      48.446   7.498  12.383  0.00  0.00    +0.000 A 
ATOM      3  C   UNL     1      47.751   7.329  11.180  0.00  0.00    +0.000 A 
ATOM      4  C   UNL     1      46.470   6.774  11.172  0.00  0.00    +0.000 A 
ATOM      5  C   UNL     1      45.859   6.400  12.371  0.00  0.00    +0.000 A 
ATOM      6  C   UNL     1      46.565   6.616  13.570  0.00  0.00    +0.000 A 
ENDROOT
BRANCH   1   8
ATOM      7  C   UNL     1      50.153   7.420  14.545  0.00  0.00    +0.000 C 
ATOM      8  C   UNL     1      48.668   7.204  14.931  0.00  0.00    +0.000 C 
ATOM      9  C   UNL     1      48.140   8.367  15.806  0.00  0.00    +0.000 C 
ATOM     10  C   UNL     1      48.806   8.413  17.181  0.00  0.00    +0.000 C 
ATOM     11  C   UNL     1      48.721   7.071  17.908  0.00  0.00    +0.000 C 
ATOM     12  N   UNL     1      49.292   5.994  17.089  0.00  0.00    +0.000 NA
ATOM     13  C   UNL     1      48.577   5.901  15.798  0.00  0.00    +0.000 C 
BRANCH  12  14
ATOM     14  C   UNL     1      49.250   4.680  17.791  0.00  0.00    +0.000 C 
BRANCH  14  15
ATOM     15  C   UNL     1      47.974   3.807  17.687  0.00  0.00    +0.000 C 
ATOM     16  F   UNL     1      46.828   4.516  17.762  0.00  0.00    +0.000 F 
ATOM     17  F   UNL     1      47.956   3.133  16.512  0.00  0.00    +0.000 F 
ATOM     18  F   UNL     1      47.938   2.883  18.678  0.00  0.00    +0.000 F 
ENDBRANCH  14  15
ENDBRANCH  12  14
ENDBRANCH   1   8
BRANCH   5  19
ATOM     19  C   UNL     1      44.492   5.731  12.351  0.00  0.00    +0.000 C 
BRANCH  19  20
ATOM     20  C   UNL     1      44.064   5.257  10.955  0.00  0.00    +0.000 C 
BRANCH  20  21
ATOM     21  N   UNL     1      44.087   3.803  10.800  0.00  0.00    +0.000 N 
ATOM     22  C   UNL     1      44.893   3.430   9.695  0.00  0.00    +0.000 A 
ATOM     23  C   UNL     1      45.008   2.079   9.385  0.00  0.00    +0.000 A 
ATOM     24  C   UNL     1      45.802   1.680   8.304  0.00  0.00    +0.000 A 
ATOM     25  C   UNL     1      46.465   2.646   7.552  0.00  0.00    +0.000 A 
ATOM     26  C   UNL     1      46.297   3.970   7.916  0.00  0.00    +0.000 A 
ATOM     27  N   UNL     1      45.543   4.370   8.972  0.00  0.00    +0.000 NA
ATOM     28  H   UNL     1      43.156   3.425  10.647  0.00  0.00    +0.000 HD
BRANCH  25  29
ATOM     29  C   UNL     1      47.311   2.336   6.382  0.00  0.00    +0.000 C 
ATOM     30  N   UNL     1      47.235   3.176   5.307  0.00  0.00    +0.000 N 
ATOM     31  O   UNL     1      48.031   1.347   6.363  0.00  0.00    +0.000 OA
ATOM     32  H   UNL     1      46.487   3.845   5.186  0.00  0.00    +0.000 HD
ATOM     33  H   UNL     1      47.749   2.893   4.480  0.00  0.00    +0.000 HD
ENDBRANCH  25  29
ENDBRANCH  20  21
ENDBRANCH  19  20
ENDBRANCH   5  19
TORSDOF 7
ENDMDL
MODEL 7
REMARK VINA RESULT:    -6.672      4.077      7.578
REMARK INTER + INTRA:         -10.153
REMARK INTER:                  -8.914
REMARK INTRA:                  -1.239
REMARK UNBOUND:                -0.752
REMARK  Name = 
REMARK  8 active torsions:
REMARK  status: ('A' for Active; 'I' for Inactive)
REMARK    1  A    between atoms: C_1  and  C_2
REMARK    2  A    between atoms: C_2  and  C_3
REMARK    3  A    between atoms: C_7  and  C_8
REMARK    4  A    between atoms: C_8  and  C_9
REMARK    5  A    between atoms: C_9  and  N_10
REMARK    6  A    between atoms: C_14  and  C_15
REMARK    7  A    between atoms: N_24  and  C_25
REMARK    8  A    between atoms: C_25  and  C_26
REMARK                            x       y       z     vdW  Elec       q    Type
REMARK                         _______ _______ _______ _____ _____    ______ ____
ROOT
ATOM      1  C   UNL     1      48.338   8.164  14.402  0.00  0.00    +0.000 A 
ATOM      2  C   UNL     1      48.899   9.265  13.735  0.00  0.00    +0.000 A 
ATOM      3  C   UNL     1      49.316  10.399  14.440  0.00  0.00    +0.000 A 
ATOM      4  C   UNL     1      49.168  10.467  15.826  0.00  0.00    +0.000 A 
ATOM      5  C   UNL     1      48.618   9.392  16.528  0.00  0.00    +0.000 A 
ATOM      6  C   UNL     1      48.242   8.248  15.798  0.00  0.00    +0.000 A 
ENDROOT
BRANCH   1   8
ATOM      7  C   UNL     1      48.612   6.813  12.333  0.00  0.00    +0.000 C 
ATOM      8  C   UNL     1      47.767   6.955  13.624  0.00  0.00    +0.000 C 
ATOM      9  C   UNL     1      47.852   5.678  14.495  0.00  0.00    +0.000 C 
ATOM     10  C   UNL     1      47.188   4.472  13.830  0.00  0.00    +0.000 C 
ATOM     11  C   UNL     1      45.752   4.771  13.397  0.00  0.00    +0.000 C 
ATOM     12  N   UNL     1      45.704   5.944  12.515  0.00  0.00    +0.000 NA
ATOM     13  C   UNL     1      46.266   7.125  13.205  0.00  0.00    +0.000 C 
BRANCH  12  14
ATOM     14  C   UNL     1      44.317   6.236  12.054  0.00  0.00    +0.000 C 
BRANCH  14  15
ATOM     15  C   UNL     1      43.445   5.081  11.498  0.00  0.00    +0.000 C 
ATOM     16  F   UNL     1      43.120   4.157  12.427  0.00  0.00    +0.000 F 
ATOM     17  F   UNL     1      42.288   5.566  10.987  0.00  0.00    +0.000 F 
ATOM     18  F   UNL     1      44.085   4.433  10.495  0.00  0.00    +0.000 F 
ENDBRANCH  14  15
ENDBRANCH  12  14
ENDBRANCH   1   8
BRANCH   5  19
ATOM     19  C   UNL     1      48.394   9.499  18.029  0.00  0.00    +0.000 C 
BRANCH  19  20
ATOM     20  C   UNL     1      48.733   8.212  18.792  0.00  0.00    +0.000 C 
BRANCH  20  21
ATOM     21  N   UNL     1      47.680   7.200  18.729  0.00  0.00    +0.000 N 
ATOM     22  C   UNL     1      48.203   5.958  18.289  0.00  0.00    +0.000 A 
ATOM     23  C   UNL     1      47.332   4.884  18.147  0.00  0.00    +0.000 A 
ATOM     24  C   UNL     1      47.821   3.644  17.720  0.00  0.00    +0.000 A 
ATOM     25  C   UNL     1      49.178   3.507  17.439  0.00  0.00    +0.000 A 
ATOM     26  C   UNL     1      49.983   4.622  17.597  0.00  0.00    +0.000 A 
ATOM     27  N   UNL     1      49.524   5.825  18.026  0.00  0.00    +0.000 NA
ATOM     28  H   UNL     1      46.936   7.468  18.091  0.00  0.00    +0.000 HD
BRANCH  25  29
ATOM     29  C   UNL     1      49.794   2.251  16.965  0.00  0.00    +0.000 C 
ATOM     30  N   UNL     1      50.789   1.709  17.728  0.00  0.00    +0.000 N 
ATOM     31  O   UNL     1      49.447   1.731  15.913  0.00  0.00    +0.000 OA
ATOM     32  H   UNL     1      51.266   2.225  18.455  0.00  0.00    +0.000 HD
ATOM     33  H   UNL     1      51.263   0.902  17.339  0.00  0.00    +0.000 HD
ENDBRANCH  25  29
ENDBRANCH  20  21
ENDBRANCH  19  20
ENDBRANCH   5  19
TORSDOF 7
ENDMDL
MODEL 8
REMARK VINA RESULT:    -6.590      2.723      4.888
REMARK INTER + INTRA:         -10.038
REMARK INTER:                  -9.037
REMARK INTRA:                  -1.001
REMARK UNBOUND:                -0.752
REMARK  Name = 
REMARK  8 active torsions:
REMARK  status: ('A' for Active; 'I' for Inactive)
REMARK    1  A    between atoms: C_1  and  C_2
REMARK    2  A    between atoms: C_2  and  C_3
REMARK    3  A    between atoms: C_7  and  C_8
REMARK    4  A    between atoms: C_8  and  C_9
REMARK    5  A    between atoms: C_9  and  N_10
REMARK    6  A    between atoms: C_14  and  C_15
REMARK    7  A    between atoms: N_24  and  C_25
REMARK    8  A    between atoms: C_25  and  C_26
REMARK                            x       y       z     vdW  Elec       q    Type
REMARK                         _______ _______ _______ _____ _____    ______ ____
ROOT
ATOM      1  C   UNL     1      50.853   7.556  15.632  0.00  0.00    +0.000 A 
ATOM      2  C   UNL     1      52.161   7.725  15.150  0.00  0.00    +0.000 A 
ATOM      3  C   UNL     1      52.401   8.361  13.926  0.00  0.00    +0.000 A 
ATOM      4  C   UNL     1      51.339   8.827  13.149  0.00  0.00    +0.000 A 
ATOM      5  C   UNL     1      50.024   8.681  13.596  0.00  0.00    +0.000 A 
ATOM      6  C   UNL     1      49.813   8.072  14.847  0.00  0.00    +0.000 A 
ENDROOT
BRANCH   1   8
ATOM      7  C   UNL     1      51.681   5.681  17.040  0.00  0.00    +0.000 C 
ATOM      8  C   UNL     1      50.569   6.753  16.924  0.00  0.00    +0.000 C 
ATOM      9  C   UNL     1      50.572   7.701  18.148  0.00  0.00    +0.000 C 
ATOM     10  C   UNL     1      50.172   6.989  19.440  0.00  0.00    +0.000 C 
ATOM     11  C   UNL     1      48.844   6.245  19.300  0.00  0.00    +0.000 C 
ATOM     12  N   UNL     1      48.886   5.300  18.177  0.00  0.00    +0.000 NA
ATOM     13  C   UNL     1      49.184   6.017  16.919  0.00  0.00    +0.000 C 
BRANCH  12  14
ATOM     14  C   UNL     1      47.612   4.540  18.042  0.00  0.00    +0.000 C 
BRANCH  14  15
ATOM     15  C   UNL     1      47.600   3.221  17.229  0.00  0.00    +0.000 C 
ATOM     16  F   UNL     1      48.802   2.609  17.176  0.00  0.00    +0.000 F 
ATOM     17  F   UNL     1      46.721   2.341  17.767  0.00  0.00    +0.000 F 
ATOM     18  F   UNL     1      47.209   3.444  15.951  0.00  0.00    +0.000 F 
ENDBRANCH  14  15
ENDBRANCH  12  14
ENDBRANCH   1   8
BRANCH   5  19
ATOM     19  C   UNL     1      48.868   9.127  12.712  0.00  0.00    +0.000 C 
BRANCH  19  20
ATOM     20  C   UNL     1      48.109   7.962  12.062  0.00  0.00    +0.000 C 
BRANCH  20  21
ATOM     21  N   UNL     1      47.699   6.929  13.012  0.00  0.00    +0.000 N 
ATOM     22  C   UNL     1      46.760   6.048  12.420  0.00  0.00    +0.000 A 
ATOM     23  C   UNL     1      46.242   5.014  13.193  0.00  0.00    +0.000 A 
ATOM     24  C   UNL     1      45.317   4.125  12.633  0.00  0.00    +0.000 A 
ATOM     25  C   UNL     1      44.927   4.292  11.306  0.00  0.00    +0.000 A 
ATOM     26  C   UNL     1      45.480   5.347  10.602  0.00  0.00    +0.000 A 
ATOM     27  N   UNL     1      46.390   6.206  11.128  0.00  0.00    +0.000 NA
ATOM     28  H   UNL     1      47.270   7.329  13.842  0.00  0.00    +0.000 HD
BRANCH  25  29
ATOM     29  C   UNL     1      43.946   3.423  10.625  0.00  0.00    +0.000 C 
ATOM     30  N   UNL     1      44.096   3.237   9.280  0.00  0.00    +0.000 N 
ATOM     31  O   UNL     1      43.017   2.914  11.236  0.00  0.00    +0.000 OA
ATOM     32  H   UNL     1      44.686   3.823   8.707  0.00  0.00    +0.000 HD
ATOM     33  H   UNL     1      43.360   2.717   8.815  0.00  0.00    +0.000 HD
ENDBRANCH  25  29
ENDBRANCH  20  21
ENDBRANCH  19  20
ENDBRANCH   5  19
TORSDOF 7
ENDMDL
MODEL 9
REMARK VINA RESULT:    -6.518      3.922      7.605
REMARK INTER + INTRA:          -9.937
REMARK INTER:                  -8.424
REMARK INTRA:                  -1.513
REMARK UNBOUND:                -0.752
REMARK  Name = 
REMARK  8 active torsions:
REMARK  status: ('A' for Active; 'I' for Inactive)
REMARK    1  A    between atoms: C_1  and  C_2
REMARK    2  A    between atoms: C_2  and  C_3
REMARK    3  A    between atoms: C_7  and  C_8
REMARK    4  A    between atoms: C_8  and  C_9
REMARK    5  A    between atoms: C_9  and  N_10
REMARK    6  A    between atoms: C_14  and  C_15
REMARK    7  A    between atoms: N_24  and  C_25
REMARK    8  A    between atoms: C_25  and  C_26
REMARK                            x       y       z     vdW  Elec       q    Type
REMARK                         _______ _______ _______ _____ _____    ______ ____
ROOT
ATOM      1  C   UNL     1      49.075   8.727  12.457  0.00  0.00    +0.000 A 
ATOM      2  C   UNL     1      49.523   9.554  11.414  0.00  0.00    +0.000 A 
ATOM      3  C   UNL     1      50.880   9.869  11.277  0.00  0.00    +0.000 A 
ATOM      4  C   UNL     1      51.818   9.379  12.188  0.00  0.00    +0.000 A 
ATOM      5  C   UNL     1      51.412   8.550  13.237  0.00  0.00    +0.000 A 
ATOM      6  C   UNL     1      50.047   8.219  13.329  0.00  0.00    +0.000 A 
ENDROOT
BRANCH   1   8
ATOM      7  C   UNL     1      47.340   8.474  14.219  0.00  0.00    +0.000 C 
ATOM      8  C   UNL     1      47.567   8.468  12.687  0.00  0.00    +0.000 C 
ATOM      9  C   UNL     1      46.729   9.566  11.989  0.00  0.00    +0.000 C 
ATOM     10  C   UNL     1      45.226   9.296  12.073  0.00  0.00    +0.000 C 
ATOM     11  C   UNL     1      44.863   7.899  11.571  0.00  0.00    +0.000 C 
ATOM     12  N   UNL     1      45.618   6.868  12.295  0.00  0.00    +0.000 NA
ATOM     13  C   UNL     1      47.071   7.089  12.128  0.00  0.00    +0.000 C 
BRANCH  12  14
ATOM     14  C   UNL     1      45.256   5.495  11.844  0.00  0.00    +0.000 C 
BRANCH  14  15
ATOM     15  C   UNL     1      45.126   4.363  12.894  0.00  0.00    +0.000 C 
ATOM     16  F   UNL     1      43.853   3.962  13.098  0.00  0.00    +0.000 F 
ATOM     17  F   UNL     1      45.836   3.275  12.509  0.00  0.00    +0.000 F 
ATOM     18  F   UNL     1      45.618   4.757  14.094  0.00  0.00    +0.000 F 
ENDBRANCH  14  15
ENDBRANCH  12  14
ENDBRANCH   1   8
BRANCH   5  19
ATOM     19  C   UNL     1      52.427   8.077  14.267  0.00  0.00    +0.000 C 
BRANCH  19  20
ATOM     20  C   UNL     1      51.856   7.976  15.688  0.00  0.00    +0.000 C 
BRANCH  20  21
ATOM     21  N   UNL     1      52.250   6.756  16.391  0.00  0.00    +0.000 N 
ATOM     22  C   UNL     1      51.116   5.961  16.690  0.00  0.00    +0.000 A 
ATOM     23  C   UNL     1      51.305   4.769  17.382  0.00  0.00    +0.000 A 
ATOM     24  C   UNL     1      50.205   3.960  17.687  0.00  0.00    +0.000 A 
ATOM     25  C   UNL     1      48.932   4.365  17.293  0.00  0.00    +0.000 A 
ATOM     26  C   UNL     1      48.821   5.565  16.614  0.00  0.00    +0.000 A 
ATOM     27  N   UNL     1      49.881   6.351  16.298  0.00  0.00    +0.000 NA
ATOM     28  H   UNL     1      52.726   6.961  17.265  0.00  0.00    +0.000 HD
BRANCH  25  29
ATOM     29  C   UNL     1      47.703   3.597  17.579  0.00  0.00    +0.000 C 
ATOM     30  N   UNL     1      47.702   2.798  18.688  0.00  0.00    +0.000 N 
ATOM     31  O   UNL     1      46.733   3.650  16.835  0.00  0.00    +0.000 OA
ATOM     32  H   UNL     1      48.547   2.539  19.178  0.00  0.00    +0.000 HD
ATOM     33  H   UNL     1      46.888   2.208  18.814  0.00  0.00    +0.000 HD
ENDBRANCH  25  29
ENDBRANCH  20  21
ENDBRANCH  19  20
ENDBRANCH   5  19
TORSDOF 7
ENDMDL
