MODEL 1
REMARK VINA RESULT:    -7.377      0.000      0.000
REMARK INTER + INTRA:          -9.282
REMARK INTER:                  -9.101
REMARK INTRA:                  -0.180
REMARK UNBOUND:                -0.180
REMARK  Name = 
REMARK  4 active torsions:
REMARK  status: ('A' for Active; 'I' for Inactive)
REMARK    1  A    between atoms: C_2  and  C_3
REMARK    2  A    between atoms: C_6  and  C_7
REMARK    3  A    between atoms: C_7  and  N_8
REMARK    4  A    between atoms: C_13  and  C_14
REMARK                            x       y       z     vdW  Elec       q    Type
REMARK                         _______ _______ _______ _____ _____    ______ ____
ROOT
ATOM      1  N   UNL     1      44.492   4.854  12.753  0.00  0.00    +0.000 N 
ATOM      2  C   UNL     1      45.713   5.440  13.056  0.00  0.00    +0.000 A 
ATOM      3  C   UNL     1      46.254   6.522  12.384  0.00  0.00    +0.000 A 
ATOM      4  C   UNL     1      47.482   7.032  12.804  0.00  0.00    +0.000 A 
ATOM      5  C   UNL     1      48.134   6.452  13.888  0.00  0.00    +0.000 A 
ATOM      6  C   UNL     1      47.528   5.377  14.523  0.00  0.00    +0.000 A 
ATOM      7  N   UNL     1      46.337   4.880  14.112  0.00  0.00    +0.000 NA
ATOM      8  H   UNL     1      44.384   4.040  13.351  0.00  0.00    +0.000 HD
ENDROOT
BRANCH   6   9
ATOM      9  C   UNL     1      48.156   4.717  15.734  0.00  0.00    +0.000 C 
ATOM     10  C   UNL     1      47.150   3.800  16.444  0.00  0.00    +0.000 C 
ATOM     11  C   UNL     1      47.723   3.274  17.751  0.00  0.00    +0.000 C 
ATOM     12  O   UNL     1      48.143   4.345  18.592  0.00  0.00    +0.000 OA
ATOM     13  C   UNL     1      49.179   5.124  17.998  0.00  0.00    +0.000 C 
ATOM     14  C   UNL     1      48.698   5.773  16.709  0.00  0.00    +0.000 C 
ENDBRANCH   6   9
BRANCH   1  15
ATOM     15  C   UNL     1      43.784   4.918  11.476  0.00  0.00    +0.000 C 
ATOM     16  C   UNL     1      42.287   5.153  11.412  0.00  0.00    +0.000 C 
ATOM     17  C   UNL     1      43.209   6.290  11.128  0.00  0.00    +0.000 C 
BRANCH  15  21
ATOM     18  C   UNL     1      45.859   2.759   8.309  0.00  0.00    +0.000 A 
ATOM     19  C   UNL     1      45.960   4.147   8.381  0.00  0.00    +0.000 A 
ATOM     20  C   UNL     1      45.271   4.849   9.380  0.00  0.00    +0.000 A 
ATOM     21  C   UNL     1      44.482   4.183  10.334  0.00  0.00    +0.000 A 
ATOM     22  C   UNL     1      44.368   2.785  10.213  0.00  0.00    +0.000 A 
ATOM     23  C   UNL     1      45.047   2.077   9.218  0.00  0.00    +0.000 A 
BRANCH  18  25
ATOM     24  N   UNL     1      47.205   1.440   6.525  0.00  0.00    +0.000 NA
ATOM     25  C   UNL     1      46.596   2.033   7.319  0.00  0.00    +0.000 C 
ENDBRANCH  18  25
ENDBRANCH  15  21
ENDBRANCH   1  15
TORSDOF 4
ENDMDL
MODEL 2
REMARK VINA RESULT:    -7.308      3.411      7.967
REMARK INTER + INTRA:          -9.197
REMARK INTER:                  -8.537
REMARK INTRA:                  -0.661
REMARK UNBOUND:                -0.180
REMARK  Name = 
REMARK  4 active torsions:
REMARK  status: ('A' for Active; 'I' for Inactive)
REMARK    1  A    between atoms: C_2  and  C_3
REMARK    2  A    between atoms: C_6  and  C_7
REMARK    3  A    between atoms: C_7  and  N_8
REMARK    4  A    between atoms: C_13  and  C_14
REMARK                            x       y       z     vdW  Elec       q    Type
REMARK                         _______ _______ _______ _____ _____    ______ ____
ROOT
ATOM      1  N   UNL     1      47.441   4.210  15.901  0.00  0.00    +0.000 N 
ATOM      2  C   UNL     1      47.280   4.983  14.760  0.00  0.00    +0.000 A 
ATOM      3  C   UNL     1      48.124   6.013  14.383  0.00  0.00    +0.000 A 
ATOM      4  C   UNL     1      47.863   6.699  13.197  0.00  0.00    +0.000 A 
ATOM      5  C   UNL     1      46.771   6.334  12.416  0.00  0.00    +0.000 A 
ATOM      6  C   UNL     1      45.974   5.283  12.848  0.00  0.00    +0.000 A 
ATOM      7  N   UNL     1      46.226   4.620  14.002  0.00  0.00    +0.000 NA
ATOM      8  H   UNL     1      46.641   3.587  15.967  0.00  0.00    +0.000 HD
ENDROOT
BRANCH   6   9
ATOM      9  C   UNL     1      44.790   4.802  12.034  0.00  0.00    +0.000 C 
ATOM     10  C   UNL     1      44.401   3.369  12.426  0.00  0.00    +0.000 C 
ATOM     11  C   UNL     1      43.329   2.824  11.494  0.00  0.00    +0.000 C 
ATOM     12  O   UNL     1      43.746   2.902  10.134  0.00  0.00    +0.000 OA
ATOM     13  C   UNL     1      43.979   4.246   9.717  0.00  0.00    +0.000 C 
ATOM     14  C   UNL     1      45.096   4.881  10.531  0.00  0.00    +0.000 C 
ENDBRANCH   6   9
BRANCH   1  15
ATOM     15  C   UNL     1      48.179   4.575  17.108  0.00  0.00    +0.000 C 
ATOM     16  C   UNL     1      47.988   5.923  17.775  0.00  0.00    +0.000 C 
ATOM     17  C   UNL     1      47.323   4.725  18.365  0.00  0.00    +0.000 C 
BRANCH  15  21
ATOM     18  C   UNL     1      51.881   2.360  17.736  0.00  0.00    +0.000 A 
ATOM     19  C   UNL     1      51.857   3.739  17.940  0.00  0.00    +0.000 A 
ATOM     20  C   UNL     1      50.676   4.460  17.712  0.00  0.00    +0.000 A 
ATOM     21  C   UNL     1      49.496   3.823  17.290  0.00  0.00    +0.000 A 
ATOM     22  C   UNL     1      49.562   2.437  17.055  0.00  0.00    +0.000 A 
ATOM     23  C   UNL     1      50.735   1.709  17.275  0.00  0.00    +0.000 A 
BRANCH  18  25
ATOM     24  N   UNL     1      54.030   0.998  18.245  0.00  0.00    +0.000 NA
ATOM     25  C   UNL     1      53.070   1.612  18.011  0.00  0.00    +0.000 C 
ENDBRANCH  18  25
ENDBRANCH  15  21
ENDBRANCH   1  15
TORSDOF 4
ENDMDL
MODEL 3
REMARK VINA RESULT:    -7.226      1.992      2.518
REMARK INTER + INTRA:          -9.096
REMARK INTER:                  -9.100
REMARK INTRA:                   0.005
REMARK UNBOUND:                -0.180
REMARK  Name = 
REMARK  4 active torsions:
REMARK  status: ('A' for Active; 'I' for Inactive)
REMARK    1  A    between atoms: C_2  and  C_3
REMARK    2  A    between atoms: C_6  and  C_7
REMARK    3  A    between atoms: C_7  and  N_8
REMARK    4  A    between atoms: C_13  and  C_14
REMARK                            x       y       z     vdW  Elec       q    Type
REMARK                         _______ _______ _______ _____ _____    ______ ____
ROOT
ATOM      1  N   UNL     1      45.539   4.214  12.493  0.00  0.00    +0.000 N 
ATOM      2  C   UNL     1      45.898   5.542  12.677  0.00  0.00    +0.000 A 
ATOM      3  C   UNL     1      45.097   6.624  12.359  0.00  0.00    +0.000 A 
ATOM      4  C   UNL     1      45.570   7.912  12.615  0.00  0.00    +0.000 A 
ATOM      5  C   UNL     1      46.826   8.082  13.189  0.00  0.00    +0.000 A 
ATOM      6  C   UNL     1      47.570   6.952  13.494  0.00  0.00    +0.000 A 
ATOM      7  N   UNL     1      47.113   5.702  13.241  0.00  0.00    +0.000 NA
ATOM      8  H   UNL     1      46.340   3.641  12.738  0.00  0.00    +0.000 HD
ENDROOT
BRANCH   6   9
ATOM      9  C   UNL     1      48.929   7.054  14.155  0.00  0.00    +0.000 C 
ATOM     10  C   UNL     1      48.843   6.699  15.646  0.00  0.00    +0.000 C 
ATOM     11  C   UNL     1      50.167   6.967  16.346  0.00  0.00    +0.000 C 
ATOM     12  O   UNL     1      50.584   8.316  16.151  0.00  0.00    +0.000 OA
ATOM     13  C   UNL     1      50.801   8.620  14.774  0.00  0.00    +0.000 C 
ATOM     14  C   UNL     1      49.517   8.462  13.974  0.00  0.00    +0.000 C 
ENDBRANCH   6   9
BRANCH   1  15
ATOM     15  C   UNL     1      44.534   3.700  11.564  0.00  0.00    +0.000 C 
ATOM     16  C   UNL     1      43.363   2.866  12.046  0.00  0.00    +0.000 C 
ATOM     17  C   UNL     1      43.141   4.306  11.725  0.00  0.00    +0.000 C 
BRANCH  15  21
ATOM     18  C   UNL     1      46.057   3.202   7.510  0.00  0.00    +0.000 A 
ATOM     19  C   UNL     1      45.927   4.482   8.048  0.00  0.00    +0.000 A 
ATOM     20  C   UNL     1      45.411   4.650   9.341  0.00  0.00    +0.000 A 
ATOM     21  C   UNL     1      45.028   3.548  10.127  0.00  0.00    +0.000 A 
ATOM     22  C   UNL     1      45.133   2.272   9.543  0.00  0.00    +0.000 A 
ATOM     23  C   UNL     1      45.643   2.095   8.253  0.00  0.00    +0.000 A 
BRANCH  18  25
ATOM     24  N   UNL     1      47.088   2.862   5.154  0.00  0.00    +0.000 NA
ATOM     25  C   UNL     1      46.625   3.023   6.209  0.00  0.00    +0.000 C 
ENDBRANCH  18  25
ENDBRANCH  15  21
ENDBRANCH   1  15
TORSDOF 4
ENDMDL
MODEL 4
REMARK VINA RESULT:    -7.107      3.008      7.431
REMARK INTER + INTRA:          -8.949
REMARK INTER:                  -9.036
REMARK INTRA:                   0.087
REMARK UNBOUND:                -0.180
REMARK  Name = 
REMARK  4 active torsions:
REMARK  status: ('A' for Active; 'I' for Inactive)
REMARK    1  A    between atoms: C_2  and  C_3
REMARK    2  A    between atoms: C_6  and  C_7
REMARK    3  A    between atoms: C_7  and  N_8
REMARK    4  A    between atoms: C_13  and  C_14
REMARK                            x       y       z     vdW  Elec       q    Type
REMARK                         _______ _______ _______ _____ _____    ______ ____
ROOT
ATOM      1  N   UNL     1      46.595   6.574  11.001  0.00  0.00    +0.000 N 
ATOM      2  C   UNL     1      45.627   5.662  10.603  0.00  0.00    +0.000 A 
ATOM      3  C   UNL     1      44.347   5.596  11.125  0.00  0.00    +0.000 A 
ATOM      4  C   UNL     1      43.460   4.645  10.620  0.00  0.00    +0.000 A 
ATOM      5  C   UNL     1      43.873   3.791   9.602  0.00  0.00    +0.000 A 
ATOM      6  C   UNL     1      45.167   3.921   9.116  0.00  0.00    +0.000 A 
ATOM      7  N   UNL     1      46.028   4.842   9.610  0.00  0.00    +0.000 NA
ATOM      8  H   UNL     1      47.454   6.345  10.510  0.00  0.00    +0.000 HD
ENDROOT
BRANCH   6   9
ATOM      9  C   UNL     1      45.677   3.055   7.983  0.00  0.00    +0.000 C 
ATOM     10  C   UNL     1      46.076   1.663   8.493  0.00  0.00    +0.000 C 
ATOM     11  C   UNL     1      46.747   0.854   7.394  0.00  0.00    +0.000 C 
ATOM     12  O   UNL     1      47.864   1.555   6.852  0.00  0.00    +0.000 OA
ATOM     13  C   UNL     1      47.485   2.791   6.251  0.00  0.00    +0.000 C 
ATOM     14  C   UNL     1      46.864   3.727   7.278  0.00  0.00    +0.000 C 
ENDBRANCH   6   9
BRANCH   1  15
ATOM     15  C   UNL     1      46.653   7.287  12.275  0.00  0.00    +0.000 C 
ATOM     16  C   UNL     1      46.825   8.793  12.331  0.00  0.00    +0.000 C 
ATOM     17  C   UNL     1      45.468   8.213  12.547  0.00  0.00    +0.000 C 
BRANCH  15  21
ATOM     18  C   UNL     1      47.830   4.862  15.699  0.00  0.00    +0.000 A 
ATOM     19  C   UNL     1      48.466   6.079  15.463  0.00  0.00    +0.000 A 
ATOM     20  C   UNL     1      48.111   6.850  14.346  0.00  0.00    +0.000 A 
ATOM     21  C   UNL     1      47.109   6.431  13.454  0.00  0.00    +0.000 A 
ATOM     22  C   UNL     1      46.513   5.180  13.696  0.00  0.00    +0.000 A 
ATOM     23  C   UNL     1      46.862   4.402  14.804  0.00  0.00    +0.000 A 
BRANCH  18  25
ATOM     24  N   UNL     1      48.416   3.479  17.815  0.00  0.00    +0.000 NA
ATOM     25  C   UNL     1      48.156   4.093  16.862  0.00  0.00    +0.000 C 
ENDBRANCH  18  25
ENDBRANCH  15  21
ENDBRANCH   1  15
TORSDOF 4
ENDMDL
MODEL 5
REMARK VINA RESULT:    -6.594      3.464      7.454
REMARK INTER + INTRA:          -8.316
REMARK INTER:                  -8.352
REMARK INTRA:                   0.036
REMARK UNBOUND:                -0.180
REMARK  Name = 
REMARK  4 active torsions:
REMARK  status: ('A' for Active; 'I' for Inactive)
REMARK    1  A    between atoms: C_2  and  C_3
REMARK    2  A    between atoms: C_6  and  C_7
REMARK    3  A    between atoms: C_7  and  N_8
REMARK    4  A    between atoms: C_13  and  C_14
REMARK                            x       y       z     vdW  Elec       q    Type
REMARK                         _______ _______ _______ _____ _____    ______ ____
ROOT
ATOM      1  N   UNL     1      45.221   6.541  10.213  0.00  0.00    +0.000 N 
ATOM      2  C   UNL     1      44.862   5.202  10.162  0.00  0.00    +0.000 A 
ATOM      3  C   UNL     1      43.981   4.590  11.037  0.00  0.00    +0.000 A 
ATOM      4  C   UNL     1      43.687   3.238  10.863  0.00  0.00    +0.000 A 
ATOM      5  C   UNL     1      44.273   2.535   9.814  0.00  0.00    +0.000 A 
ATOM      6  C   UNL     1      45.138   3.214   8.967  0.00  0.00    +0.000 A 
ATOM      7  N   UNL     1      45.426   4.526   9.140  0.00  0.00    +0.000 NA
ATOM      8  H   UNL     1      45.933   6.696   9.506  0.00  0.00    +0.000 HD
ENDROOT
BRANCH   6   9
ATOM      9  C   UNL     1      45.785   2.528   7.782  0.00  0.00    +0.000 C 
ATOM     10  C   UNL     1      46.298   1.133   8.167  0.00  0.00    +0.000 C 
ATOM     11  C   UNL     1      47.098   0.516   7.031  0.00  0.00    +0.000 C 
ATOM     12  O   UNL     1      48.162   1.375   6.629  0.00  0.00    +0.000 OA
ATOM     13  C   UNL     1      47.689   2.628   6.138  0.00  0.00    +0.000 C 
ATOM     14  C   UNL     1      46.930   3.383   7.219  0.00  0.00    +0.000 C 
ENDBRANCH   6   9
BRANCH   1  15
ATOM     15  C   UNL     1      45.145   7.424  11.375  0.00  0.00    +0.000 C 
ATOM     16  C   UNL     1      44.295   8.680  11.361  0.00  0.00    +0.000 C 
ATOM     17  C   UNL     1      43.780   7.467  12.061  0.00  0.00    +0.000 C 
BRANCH  15  21
ATOM     18  C   UNL     1      48.670   7.231  13.932  0.00  0.00    +0.000 A 
ATOM     19  C   UNL     1      48.021   6.055  13.559  0.00  0.00    +0.000 A 
ATOM     20  C   UNL     1      46.870   6.113  12.760  0.00  0.00    +0.000 A 
ATOM     21  C   UNL     1      46.352   7.339  12.307  0.00  0.00    +0.000 A 
ATOM     22  C   UNL     1      47.005   8.511  12.732  0.00  0.00    +0.000 A 
ATOM     23  C   UNL     1      48.151   8.463  13.532  0.00  0.00    +0.000 A 
BRANCH  18  25
ATOM     24  N   UNL     1      50.840   7.132  15.352  0.00  0.00    +0.000 NA
ATOM     25  C   UNL     1      49.871   7.175  14.709  0.00  0.00    +0.000 C 
ENDBRANCH  18  25
ENDBRANCH  15  21
ENDBRANCH   1  15
TORSDOF 4
ENDMDL
MODEL 6
REMARK VINA RESULT:    -6.281      3.520      8.289
REMARK INTER + INTRA:          -7.930
REMARK INTER:                  -7.233
REMARK INTRA:                  -0.697
REMARK UNBOUND:                -0.180
REMARK  Name = 
REMARK  4 active torsions:
REMARK  status: ('A' for Active; 'I' for Inactive)
REMARK    1  A    between atoms: C_2  and  C_3
REMARK    2  A    between atoms: C_6  and  C_7
REMARK    3  A    between atoms: C_7  and  N_8
REMARK    4  A    between atoms: C_13  and  C_14
REMARK                            x       y       z     vdW  Elec       q    Type
REMARK                         _______ _______ _______ _____ _____    ______ ____
ROOT
ATOM      1  N   UNL     1      48.252   5.941  15.753  0.00  0.00    +0.000 N 
ATOM      2  C   UNL     1      48.001   6.240  14.421  0.00  0.00    +0.000 A 
ATOM      3  C   UNL     1      48.813   7.028  13.625  0.00  0.00    +0.000 A 
ATOM      4  C   UNL     1      48.458   7.233  12.292  0.00  0.00    +0.000 A 
ATOM      5  C   UNL     1      47.306   6.637  11.788  0.00  0.00    +0.000 A 
ATOM      6  C   UNL     1      46.544   5.849  12.639  0.00  0.00    +0.000 A 
ATOM      7  N   UNL     1      46.888   5.654  13.934  0.00  0.00    +0.000 NA
ATOM      8  H   UNL     1      47.460   5.414  16.106  0.00  0.00    +0.000 HD
ENDROOT
BRANCH   6   9
ATOM      9  C   UNL     1      45.298   5.137  12.154  0.00  0.00    +0.000 C 
ATOM     10  C   UNL     1      45.210   5.166  10.621  0.00  0.00    +0.000 C 
ATOM     11  C   UNL     1      43.879   4.606  10.143  0.00  0.00    +0.000 C 
ATOM     12  O   UNL     1      42.788   5.298  10.746  0.00  0.00    +0.000 OA
ATOM     13  C   UNL     1      42.781   5.162  12.166  0.00  0.00    +0.000 C 
ATOM     14  C   UNL     1      44.040   5.762  12.774  0.00  0.00    +0.000 C 
ENDBRANCH   6   9
BRANCH   1  15
ATOM     15  C   UNL     1      49.087   6.705  16.678  0.00  0.00    +0.000 C 
ATOM     16  C   UNL     1      48.891   8.197  16.873  0.00  0.00    +0.000 C 
ATOM     17  C   UNL     1      48.353   7.257  17.900  0.00  0.00    +0.000 C 
BRANCH  15  21
ATOM     18  C   UNL     1      53.009   4.918  17.324  0.00  0.00    +0.000 A 
ATOM     19  C   UNL     1      51.861   4.216  17.688  0.00  0.00    +0.000 A 
ATOM     20  C   UNL     1      50.598   4.798  17.509  0.00  0.00    +0.000 A 
ATOM     21  C   UNL     1      50.453   6.082  16.953  0.00  0.00    +0.000 A 
ATOM     22  C   UNL     1      51.632   6.781  16.632  0.00  0.00    +0.000 A 
ATOM     23  C   UNL     1      52.895   6.211  16.811  0.00  0.00    +0.000 A 
BRANCH  18  25
ATOM     24  N   UNL     1      55.340   3.808  17.586  0.00  0.00    +0.000 NA
ATOM     25  C   UNL     1      54.298   4.310  17.463  0.00  0.00    +0.000 C 
ENDBRANCH  18  25
ENDBRANCH  15  21
ENDBRANCH   1  15
TORSDOF 4
ENDMDL
MODEL 7
REMARK VINA RESULT:    -5.780      3.504      8.479
REMARK INTER + INTRA:          -7.312
REMARK INTER:                  -7.166
REMARK INTRA:                  -0.147
REMARK UNBOUND:                -0.180
REMARK  Name = 
REMARK  4 active torsions:
REMARK  status: ('A' for Active; 'I' for Inactive)
REMARK    1  A    between atoms: C_2  and  C_3
REMARK    2  A    between atoms: C_6  and  C_7
REMARK    3  A    between atoms: C_7  and  N_8
REMARK    4  A    between atoms: C_13  and  C_14
REMARK                            x       y       z     vdW  Elec       q    Type
REMARK                         _______ _______ _______ _____ _____    ______ ____
ROOT
ATOM      1  N   UNL     1      49.012   7.026  13.798  0.00  0.00    +0.000 N 
ATOM      2  C   UNL     1      47.700   7.145  13.361  0.00  0.00    +0.000 A 
ATOM      3  C   UNL     1      46.994   8.334  13.307  0.00  0.00    +0.000 A 
ATOM      4  C   UNL     1      45.685   8.320  12.824  0.00  0.00    +0.000 A 
ATOM      5  C   UNL     1      45.120   7.121  12.402  0.00  0.00    +0.000 A 
ATOM      6  C   UNL     1      45.889   5.968  12.472  0.00  0.00    +0.000 A 
ATOM      7  N   UNL     1      47.159   5.982  12.945  0.00  0.00    +0.000 NA
ATOM      8  H   UNL     1      49.247   6.038  13.803  0.00  0.00    +0.000 HD
ENDROOT
BRANCH   6   9
ATOM      9  C   UNL     1      45.358   4.632  11.996  0.00  0.00    +0.000 C 
ATOM     10  C   UNL     1      44.942   4.701  10.519  0.00  0.00    +0.000 C 
ATOM     11  C   UNL     1      44.251   3.416  10.089  0.00  0.00    +0.000 C 
ATOM     12  O   UNL     1      43.141   3.125  10.935  0.00  0.00    +0.000 OA
ATOM     13  C   UNL     1      43.534   2.922  12.291  0.00  0.00    +0.000 C 
ATOM     14  C   UNL     1      44.176   4.176  12.864  0.00  0.00    +0.000 C 
ENDBRANCH   6   9
BRANCH   1  15
ATOM     15  C   UNL     1      49.728   7.949  14.675  0.00  0.00    +0.000 C 
ATOM     16  C   UNL     1      51.224   8.165  14.546  0.00  0.00    +0.000 C 
ATOM     17  C   UNL     1      50.295   9.187  13.981  0.00  0.00    +0.000 C 
BRANCH  15  21
ATOM     18  C   UNL     1      47.874   8.750  18.538  0.00  0.00    +0.000 A 
ATOM     19  C   UNL     1      48.388   7.483  18.267  0.00  0.00    +0.000 A 
ATOM     20  C   UNL     1      48.960   7.211  17.016  0.00  0.00    +0.000 A 
ATOM     21  C   UNL     1      49.043   8.198  16.017  0.00  0.00    +0.000 A 
ATOM     22  C   UNL     1      48.481   9.455  16.306  0.00  0.00    +0.000 A 
ATOM     23  C   UNL     1      47.905   9.734  17.549  0.00  0.00    +0.000 A 
BRANCH  18  25
ATOM     24  N   UNL     1      46.878   9.278  20.875  0.00  0.00    +0.000 NA
ATOM     25  C   UNL     1      47.331   9.045  19.830  0.00  0.00    +0.000 C 
ENDBRANCH  18  25
ENDBRANCH  15  21
ENDBRANCH   1  15
TORSDOF 4
ENDMDL
MODEL 8
REMARK VINA RESULT:    -5.644      3.107      7.864
REMARK INTER + INTRA:          -7.143
REMARK INTER:                  -7.190
REMARK INTRA:                   0.047
REMARK UNBOUND:                -0.180
REMARK  Name = 
REMARK  4 active torsions:
REMARK  status: ('A' for Active; 'I' for Inactive)
REMARK    1  A    between atoms: C_2  and  C_3
REMARK    2  A    between atoms: C_6  and  C_7
REMARK    3  A    between atoms: C_7  and  N_8
REMARK    4  A    between atoms: C_13  and  C_14
REMARK                            x       y       z     vdW  Elec       q    Type
REMARK                         _______ _______ _______ _____ _____    ______ ____
ROOT
ATOM      1  N   UNL     1      48.856   7.305  12.241  0.00  0.00    +0.000 N 
ATOM      2  C   UNL     1      47.480   7.449  12.137  0.00  0.00    +0.000 A 
ATOM      3  C   UNL     1      46.761   8.519  12.640  0.00  0.00    +0.000 A 
ATOM      4  C   UNL     1      45.380   8.554  12.448  0.00  0.00    +0.000 A 
ATOM      5  C   UNL     1      44.755   7.523  11.752  0.00  0.00    +0.000 A 
ATOM      6  C   UNL     1      45.539   6.487  11.265  0.00  0.00    +0.000 A 
ATOM      7  N   UNL     1      46.879   6.452  11.455  0.00  0.00    +0.000 NA
ATOM      8  H   UNL     1      49.101   6.398  11.856  0.00  0.00    +0.000 HD
ENDROOT
BRANCH   6   9
ATOM      9  C   UNL     1      44.938   5.349  10.465  0.00  0.00    +0.000 C 
ATOM     10  C   UNL     1      44.858   4.068  11.308  0.00  0.00    +0.000 C 
ATOM     11  C   UNL     1      44.418   2.886  10.458  0.00  0.00    +0.000 C 
ATOM     12  O   UNL     1      45.273   2.721   9.330  0.00  0.00    +0.000 OA
ATOM     13  C   UNL     1      45.250   3.854   8.464  0.00  0.00    +0.000 C 
ATOM     14  C   UNL     1      45.748   5.098   9.185  0.00  0.00    +0.000 C 
ENDBRANCH   6   9
BRANCH   1  15
ATOM     15  C   UNL     1      49.729   7.936  13.228  0.00  0.00    +0.000 C 
ATOM     16  C   UNL     1      50.926   8.768  12.809  0.00  0.00    +0.000 C 
ATOM     17  C   UNL     1      49.680   9.463  13.246  0.00  0.00    +0.000 C 
BRANCH  15  21
ATOM     18  C   UNL     1      49.802   5.901  17.082  0.00  0.00    +0.000 A 
ATOM     19  C   UNL     1      48.619   5.947  16.346  0.00  0.00    +0.000 A 
ATOM     20  C   UNL     1      48.583   6.624  15.119  0.00  0.00    +0.000 A 
ATOM     21  C   UNL     1      49.724   7.257  14.596  0.00  0.00    +0.000 A 
ATOM     22  C   UNL     1      50.893   7.229  15.380  0.00  0.00    +0.000 A 
ATOM     23  C   UNL     1      50.938   6.559  16.606  0.00  0.00    +0.000 A 
BRANCH  18  25
ATOM     24  N   UNL     1      49.906   4.568  19.306  0.00  0.00    +0.000 NA
ATOM     25  C   UNL     1      49.856   5.172  18.313  0.00  0.00    +0.000 C 
ENDBRANCH  18  25
ENDBRANCH  15  21
ENDBRANCH   1  15
TORSDOF 4
ENDMDL
MODEL 9
REMARK VINA RESULT:    -5.568      3.950      8.342
REMARK INTER + INTRA:          -7.051
REMARK INTER:                  -6.278
REMARK INTRA:                  -0.773
REMARK UNBOUND:                -0.180
REMARK  Name = 
REMARK  4 active torsions:
REMARK  status: ('A' for Active; 'I' for Inactive)
REMARK    1  A    between atoms: C_2  and  C_3
REMARK    2  A    between atoms: C_6  and  C_7
REMARK    3  A    between atoms: C_7  and  N_8
REMARK    4  A    between atoms: C_13  and  C_14
REMARK                            x       y       z     vdW  Elec       q    Type
REMARK                         _______ _______ _______ _____ _____    ______ ____
ROOT
ATOM      1  N   UNL     1      48.310   8.066  12.211  0.00  0.00    +0.000 N 
ATOM      2  C   UNL     1      47.752   6.958  12.832  0.00  0.00    +0.000 A 
ATOM      3  C   UNL     1      48.175   6.440  14.044  0.00  0.00    +0.000 A 
ATOM      4  C   UNL     1      47.512   5.332  14.572  0.00  0.00    +0.000 A 
ATOM      5  C   UNL     1      46.440   4.776  13.881  0.00  0.00    +0.000 A 
ATOM      6  C   UNL     1      46.061   5.354  12.677  0.00  0.00    +0.000 A 
ATOM      7  N   UNL     1      46.708   6.427  12.163  0.00  0.00    +0.000 NA
ATOM      8  H   UNL     1      47.858   8.173  11.308  0.00  0.00    +0.000 HD
ENDROOT
BRANCH   6   9
ATOM      9  C   UNL     1      44.881   4.831  11.886  0.00  0.00    +0.000 C 
ATOM     10  C   UNL     1      44.456   3.442  12.385  0.00  0.00    +0.000 C 
ATOM     11  C   UNL     1      43.388   2.844  11.483  0.00  0.00    +0.000 C 
ATOM     12  O   UNL     1      43.827   2.803  10.128  0.00  0.00    +0.000 OA
ATOM     13  C   UNL     1      44.094   4.104   9.607  0.00  0.00    +0.000 C 
ATOM     14  C   UNL     1      45.211   4.782  10.386  0.00  0.00    +0.000 C 
ENDBRANCH   6   9
BRANCH   1  15
ATOM     15  C   UNL     1      49.653   8.602  12.420  0.00  0.00    +0.000 C 
ATOM     16  C   UNL     1      50.840   8.096  11.624  0.00  0.00    +0.000 C 
ATOM     17  C   UNL     1      50.218   9.397  11.244  0.00  0.00    +0.000 C 
BRANCH  15  21
ATOM     18  C   UNL     1      50.265  10.225  16.419  0.00  0.00    +0.000 A 
ATOM     19  C   UNL     1      49.185  10.662  15.653  0.00  0.00    +0.000 A 
ATOM     20  C   UNL     1      49.000  10.165  14.355  0.00  0.00    +0.000 A 
ATOM     21  C   UNL     1      49.876   9.214  13.801  0.00  0.00    +0.000 A 
ATOM     22  C   UNL     1      50.979   8.822  14.583  0.00  0.00    +0.000 A 
ATOM     23  C   UNL     1      51.174   9.315  15.876  0.00  0.00    +0.000 A 
BRANCH  18  25
ATOM     24  N   UNL     1      50.578  11.065  18.854  0.00  0.00    +0.000 NA
ATOM     25  C   UNL     1      50.433  10.695  17.761  0.00  0.00    +0.000 C 
ENDBRANCH  18  25
ENDBRANCH  15  21
ENDBRANCH   1  15
TORSDOF 4
ENDMDL
