MODEL 1
REMARK VINA RESULT:    -8.733      0.000      0.000
REMARK INTER + INTRA:         -12.574
REMARK INTER:                 -11.796
REMARK INTRA:                  -0.778
REMARK UNBOUND:                -0.778
REMARK  Name = 
REMARK  6 active torsions:
REMARK  status: ('A' for Active; 'I' for Inactive)
REMARK    1  A    between atoms: C_2  and  C_19
REMARK    2  A    between atoms: N_3  and  C_4
REMARK    3  A    between atoms: C_4  and  C_5
REMARK    4  A    between atoms: C_8  and  C_9
REMARK    5  A    between atoms: C_9  and  O_10
REMARK    6  A    between atoms: O_10  and  C_11
REMARK                            x       y       z     vdW  Elec       q    Type
REMARK                         _______ _______ _______ _____ _____    ______ ____
ROOT
ATOM      1  O   UNL     1      49.021   6.765  13.146  0.00  0.00    +0.000 OA
ATOM      2  C   UNL     1      48.212   6.627  14.059  0.00  0.00    +0.000 C 
ATOM      3  N   UNL     1      46.864   6.808  13.884  0.00  0.00    +0.000 N 
ATOM      4  H   UNL     1      46.267   6.873  14.700  0.00  0.00    +0.000 HD
ENDROOT
BRANCH   2   5
ATOM      5  C   UNL     1      48.637   6.197  15.397  0.00  0.00    +0.000 A 
ATOM      6  C   UNL     1      49.536   6.973  16.117  0.00  0.00    +0.000 A 
ATOM      7  S   UNL     1      49.941   6.317  17.637  0.00  0.00    +0.000 S 
ATOM      8  C   UNL     1      48.890   4.997  17.409  0.00  0.00    +0.000 A 
ATOM      9  N   UNL     1      48.739   4.048  18.372  0.00  0.00    +0.000 NA
ATOM     10  C   UNL     1      47.877   3.130  18.087  0.00  0.00    +0.000 A 
ATOM     11  N   UNL     1      47.160   3.069  16.920  0.00  0.00    +0.000 N 
ATOM     12  C   UNL     1      47.335   3.960  15.888  0.00  0.00    +0.000 A 
ATOM     13  O   UNL     1      46.774   3.798  14.810  0.00  0.00    +0.000 OA
ATOM     14  C   UNL     1      48.259   5.042  16.178  0.00  0.00    +0.000 A 
ATOM     15  H   UNL     1      46.522   2.307  16.744  0.00  0.00    +0.000 HD
ENDBRANCH   2   5
BRANCH   3  16
ATOM     16  C   UNL     1      46.300   7.299  12.653  0.00  0.00    +0.000 C 
BRANCH  16  17
ATOM     17  C   UNL     1      45.807   6.166  11.792  0.00  0.00    +0.000 A 
ATOM     18  C   UNL     1      45.179   5.060  12.378  0.00  0.00    +0.000 A 
ATOM     19  C   UNL     1      44.729   4.000  11.591  0.00  0.00    +0.000 A 
ATOM     20  C   UNL     1      44.914   4.017  10.203  0.00  0.00    +0.000 A 
ATOM     21  C   UNL     1      45.541   5.123   9.614  0.00  0.00    +0.000 A 
ATOM     22  C   UNL     1      45.994   6.183  10.403  0.00  0.00    +0.000 A 
BRANCH  20  23
ATOM     23  C   UNL     1      44.466   2.850   9.359  0.00  0.00    +0.000 C 
BRANCH  23  24
ATOM     24  O   UNL     1      45.565   1.976   9.112  0.00  0.00    +0.000 OA
BRANCH  24  25
ATOM     25  C   UNL     1      46.216   2.154   7.923  0.00  0.00    +0.000 A 
ATOM     26  C   UNL     1      45.954   3.150   6.980  0.00  0.00    +0.000 A 
ATOM     27  C   UNL     1      46.704   3.206   5.808  0.00  0.00    +0.000 A 
ATOM     28  C   UNL     1      47.698   2.262   5.611  0.00  0.00    +0.000 A 
ATOM     29  N   UNL     1      47.982   1.284   6.495  0.00  0.00    +0.000 NA
ATOM     30  C   UNL     1      47.234   1.255   7.627  0.00  0.00    +0.000 A 
ENDBRANCH  24  25
ENDBRANCH  23  24
ENDBRANCH  20  23
ENDBRANCH  16  17
ENDBRANCH   3  16
TORSDOF 6
ENDMDL
MODEL 2
REMARK VINA RESULT:    -8.375      1.181      1.308
REMARK INTER + INTRA:         -12.090
REMARK INTER:                 -11.118
REMARK INTRA:                  -0.971
REMARK UNBOUND:                -0.778
REMARK  Name = 
REMARK  6 active torsions:
REMARK  status: ('A' for Active; 'I' for Inactive)
REMARK    1  A    between atoms: C_2  and  C_19
REMARK    2  A    between atoms: N_3  and  C_4
REMARK    3  A    between atoms: C_4  and  C_5
REMARK    4  A    between atoms: C_8  and  C_9
REMARK    5  A    between atoms: C_9  and  O_10
REMARK    6  A    between atoms: O_10  and  C_11
REMARK                            x       y       z     vdW  Elec       q    Type
REMARK                         _______ _______ _______ _____ _____    ______ ____
ROOT
ATOM      1  O   UNL     1      49.898   7.082  14.462  0.00  0.00    +0.000 OA
ATOM      2  C   UNL     1      48.895   6.807  15.114  0.00  0.00    +0.000 C 
ATOM      3  N   UNL     1      47.641   6.771  14.560  0.00  0.00    +0.000 N 
ATOM      4  H   UNL     1      46.834   6.732  15.172  0.00  0.00    +0.000 HD
ENDROOT
BRANCH   2   5
ATOM      5  C   UNL     1      48.984   6.437  16.532  0.00  0.00    +0.000 A 
ATOM      6  C   UNL     1      49.395   7.380  17.466  0.00  0.00    +0.000 A 
ATOM      7  S   UNL     1      49.467   6.777  19.059  0.00  0.00    +0.000 S 
ATOM      8  C   UNL     1      48.903   5.249  18.565  0.00  0.00    +0.000 A 
ATOM      9  N   UNL     1      48.708   4.250  19.468  0.00  0.00    +0.000 NA
ATOM     10  C   UNL     1      48.235   3.160  18.964  0.00  0.00    +0.000 A 
ATOM     11  N   UNL     1      47.948   2.974  17.636  0.00  0.00    +0.000 N 
ATOM     12  C   UNL     1      48.200   3.926  16.678  0.00  0.00    +0.000 A 
ATOM     13  O   UNL     1      48.055   3.678  15.486  0.00  0.00    +0.000 OA
ATOM     14  C   UNL     1      48.689   5.190  17.199  0.00  0.00    +0.000 A 
ATOM     15  H   UNL     1      47.607   2.086  17.300  0.00  0.00    +0.000 HD
ENDBRANCH   2   5
BRANCH   3  16
ATOM     16  C   UNL     1      47.381   7.178  13.203  0.00  0.00    +0.000 C 
BRANCH  16  17
ATOM     17  C   UNL     1      46.545   6.156  12.480  0.00  0.00    +0.000 A 
ATOM     18  C   UNL     1      46.217   4.947  13.107  0.00  0.00    +0.000 A 
ATOM     19  C   UNL     1      45.452   3.987  12.441  0.00  0.00    +0.000 A 
ATOM     20  C   UNL     1      45.019   4.210  11.128  0.00  0.00    +0.000 A 
ATOM     21  C   UNL     1      45.346   5.419  10.499  0.00  0.00    +0.000 A 
ATOM     22  C   UNL     1      46.113   6.378  11.166  0.00  0.00    +0.000 A 
BRANCH  20  23
ATOM     23  C   UNL     1      44.231   3.153  10.396  0.00  0.00    +0.000 C 
BRANCH  23  24
ATOM     24  O   UNL     1      44.290   3.387   8.991  0.00  0.00    +0.000 OA
BRANCH  24  25
ATOM     25  C   UNL     1      45.354   2.830   8.336  0.00  0.00    +0.000 A 
ATOM     26  C   UNL     1      46.207   3.481   7.444  0.00  0.00    +0.000 A 
ATOM     27  C   UNL     1      47.254   2.779   6.851  0.00  0.00    +0.000 A 
ATOM     28  C   UNL     1      47.418   1.440   7.169  0.00  0.00    +0.000 A 
ATOM     29  N   UNL     1      46.616   0.774   8.024  0.00  0.00    +0.000 NA
ATOM     30  C   UNL     1      45.605   1.485   8.586  0.00  0.00    +0.000 A 
ENDBRANCH  24  25
ENDBRANCH  23  24
ENDBRANCH  20  23
ENDBRANCH  16  17
ENDBRANCH   3  16
TORSDOF 6
ENDMDL
MODEL 3
REMARK VINA RESULT:    -8.154      2.078      2.733
REMARK INTER + INTRA:         -11.792
REMARK INTER:                 -10.999
REMARK INTRA:                  -0.793
REMARK UNBOUND:                -0.778
REMARK  Name = 
REMARK  6 active torsions:
REMARK  status: ('A' for Active; 'I' for Inactive)
REMARK    1  A    between atoms: C_2  and  C_19
REMARK    2  A    between atoms: N_3  and  C_4
REMARK    3  A    between atoms: C_4  and  C_5
REMARK    4  A    between atoms: C_8  and  C_9
REMARK    5  A    between atoms: C_9  and  O_10
REMARK    6  A    between atoms: O_10  and  C_11
REMARK                            x       y       z     vdW  Elec       q    Type
REMARK                         _______ _______ _______ _____ _____    ______ ____
ROOT
ATOM      1  O   UNL     1      49.755   6.637  15.178  0.00  0.00    +0.000 OA
ATOM      2  C   UNL     1      48.686   6.216  15.611  0.00  0.00    +0.000 C 
ATOM      3  N   UNL     1      47.532   6.230  14.870  0.00  0.00    +0.000 N 
ATOM      4  H   UNL     1      46.648   6.056  15.333  0.00  0.00    +0.000 HD
ENDROOT
BRANCH   2   5
ATOM      5  C   UNL     1      48.588   5.611  16.945  0.00  0.00    +0.000 A 
ATOM      6  C   UNL     1      48.779   4.245  17.098  0.00  0.00    +0.000 A 
ATOM      7  S   UNL     1      48.604   3.706  18.707  0.00  0.00    +0.000 S 
ATOM      8  C   UNL     1      48.316   5.288  19.264  0.00  0.00    +0.000 A 
ATOM      9  N   UNL     1      48.110   5.539  20.585  0.00  0.00    +0.000 NA
ATOM     10  C   UNL     1      47.951   6.786  20.874  0.00  0.00    +0.000 A 
ATOM     11  N   UNL     1      47.967   7.807  19.959  0.00  0.00    +0.000 N 
ATOM     12  C   UNL     1      48.095   7.596  18.607  0.00  0.00    +0.000 A 
ATOM     13  O   UNL     1      47.973   8.518  17.808  0.00  0.00    +0.000 OA
ATOM     14  C   UNL     1      48.326   6.212  18.233  0.00  0.00    +0.000 A 
ATOM     15  H   UNL     1      47.807   8.761  20.245  0.00  0.00    +0.000 HD
ENDBRANCH   2   5
BRANCH   3  16
ATOM     16  C   UNL     1      47.450   6.855  13.575  0.00  0.00    +0.000 C 
BRANCH  16  17
ATOM     17  C   UNL     1      46.619   6.032  12.626  0.00  0.00    +0.000 A 
ATOM     18  C   UNL     1      46.399   6.479  11.317  0.00  0.00    +0.000 A 
ATOM     19  C   UNL     1      45.621   5.729  10.433  0.00  0.00    +0.000 A 
ATOM     20  C   UNL     1      45.033   4.528  10.847  0.00  0.00    +0.000 A 
ATOM     21  C   UNL     1      45.252   4.079  12.157  0.00  0.00    +0.000 A 
ATOM     22  C   UNL     1      46.029   4.832  13.042  0.00  0.00    +0.000 A 
BRANCH  20  23
ATOM     23  C   UNL     1      44.157   3.743   9.905  0.00  0.00    +0.000 C 
BRANCH  23  24
ATOM     24  O   UNL     1      44.554   3.982   8.556  0.00  0.00    +0.000 OA
BRANCH  24  25
ATOM     25  C   UNL     1      45.538   3.166   8.070  0.00  0.00    +0.000 A 
ATOM     26  C   UNL     1      46.548   3.533   7.179  0.00  0.00    +0.000 A 
ATOM     27  C   UNL     1      47.486   2.588   6.770  0.00  0.00    +0.000 A 
ATOM     28  C   UNL     1      47.386   1.298   7.266  0.00  0.00    +0.000 A 
ATOM     29  N   UNL     1      46.426   0.902   8.126  0.00  0.00    +0.000 NA
ATOM     30  C   UNL     1      45.527   1.846   8.506  0.00  0.00    +0.000 A 
ENDBRANCH  24  25
ENDBRANCH  23  24
ENDBRANCH  20  23
ENDBRANCH  16  17
ENDBRANCH   3  16
TORSDOF 6
ENDMDL
MODEL 4
REMARK VINA RESULT:    -7.688      2.384      3.938
REMARK INTER + INTRA:         -11.163
REMARK INTER:                  -9.973
REMARK INTRA:                  -1.190
REMARK UNBOUND:                -0.778
REMARK  Name = 
REMARK  6 active torsions:
REMARK  status: ('A' for Active; 'I' for Inactive)
REMARK    1  A    between atoms: C_2  and  C_19
REMARK    2  A    between atoms: N_3  and  C_4
REMARK    3  A    between atoms: C_4  and  C_5
REMARK    4  A    between atoms: C_8  and  C_9
REMARK    5  A    between atoms: C_9  and  O_10
REMARK    6  A    between atoms: O_10  and  C_11
REMARK                            x       y       z     vdW  Elec       q    Type
REMARK                         _______ _______ _______ _____ _____    ______ ____
ROOT
ATOM      1  O   UNL     1      49.140   5.791  15.893  0.00  0.00    +0.000 OA
ATOM      2  C   UNL     1      48.608   6.618  15.157  0.00  0.00    +0.000 C 
ATOM      3  N   UNL     1      47.486   6.336  14.421  0.00  0.00    +0.000 N 
ATOM      4  H   UNL     1      47.202   6.979  13.691  0.00  0.00    +0.000 HD
ENDROOT
BRANCH   2   5
ATOM      5  C   UNL     1      49.111   7.994  15.064  0.00  0.00    +0.000 A 
ATOM      6  C   UNL     1      49.171   8.785  16.203  0.00  0.00    +0.000 A 
ATOM      7  S   UNL     1      49.755  10.360  15.912  0.00  0.00    +0.000 S 
ATOM      8  C   UNL     1      49.996  10.025  14.261  0.00  0.00    +0.000 A 
ATOM      9  N   UNL     1      50.512  10.965  13.424  0.00  0.00    +0.000 NA
ATOM     10  C   UNL     1      50.685  10.563  12.210  0.00  0.00    +0.000 A 
ATOM     11  N   UNL     1      50.375   9.307  11.753  0.00  0.00    +0.000 N 
ATOM     12  C   UNL     1      49.781   8.351  12.541  0.00  0.00    +0.000 A 
ATOM     13  O   UNL     1      49.399   7.288  12.066  0.00  0.00    +0.000 OA
ATOM     14  C   UNL     1      49.610   8.738  13.930  0.00  0.00    +0.000 A 
ATOM     15  H   UNL     1      50.507   9.063  10.782  0.00  0.00    +0.000 HD
ENDBRANCH   2   5
BRANCH   3  16
ATOM     16  C   UNL     1      46.917   5.014  14.349  0.00  0.00    +0.000 C 
BRANCH  16  17
ATOM     17  C   UNL     1      46.212   4.796  13.037  0.00  0.00    +0.000 A 
ATOM     18  C   UNL     1      45.575   3.577  12.776  0.00  0.00    +0.000 A 
ATOM     19  C   UNL     1      44.928   3.360  11.559  0.00  0.00    +0.000 A 
ATOM     20  C   UNL     1      44.922   4.352  10.571  0.00  0.00    +0.000 A 
ATOM     21  C   UNL     1      45.558   5.574  10.830  0.00  0.00    +0.000 A 
ATOM     22  C   UNL     1      46.208   5.789  12.049  0.00  0.00    +0.000 A 
BRANCH  20  23
ATOM     23  C   UNL     1      44.261   4.100   9.240  0.00  0.00    +0.000 C 
BRANCH  23  24
ATOM     24  O   UNL     1      44.494   2.756   8.826  0.00  0.00    +0.000 OA
BRANCH  24  25
ATOM     25  C   UNL     1      45.573   2.561   8.008  0.00  0.00    +0.000 A 
ATOM     26  C   UNL     1      46.087   3.476   7.088  0.00  0.00    +0.000 A 
ATOM     27  C   UNL     1      47.197   3.134   6.319  0.00  0.00    +0.000 A 
ATOM     28  C   UNL     1      47.764   1.882   6.494  0.00  0.00    +0.000 A 
ATOM     29  N   UNL     1      47.298   0.969   7.370  0.00  0.00    +0.000 NA
ATOM     30  C   UNL     1      46.215   1.331   8.104  0.00  0.00    +0.000 A 
ENDBRANCH  24  25
ENDBRANCH  23  24
ENDBRANCH  20  23
ENDBRANCH  16  17
ENDBRANCH   3  16
TORSDOF 6
ENDMDL
MODEL 5
REMARK VINA RESULT:    -7.396      2.590      3.841
REMARK INTER + INTRA:         -10.768
REMARK INTER:                  -9.971
REMARK INTRA:                  -0.797
REMARK UNBOUND:                -0.778
REMARK  Name = 
REMARK  6 active torsions:
REMARK  status: ('A' for Active; 'I' for Inactive)
REMARK    1  A    between atoms: C_2  and  C_19
REMARK    2  A    between atoms: N_3  and  C_4
REMARK    3  A    between atoms: C_4  and  C_5
REMARK    4  A    between atoms: C_8  and  C_9
REMARK    5  A    between atoms: C_9  and  O_10
REMARK    6  A    between atoms: O_10  and  C_11
REMARK                            x       y       z     vdW  Elec       q    Type
REMARK                         _______ _______ _______ _____ _____    ______ ____
ROOT
ATOM      1  O   UNL     1      46.470   9.026  13.542  0.00  0.00    +0.000 OA
ATOM      2  C   UNL     1      47.091   7.971  13.624  0.00  0.00    +0.000 C 
ATOM      3  N   UNL     1      46.522   6.756  13.343  0.00  0.00    +0.000 N 
ATOM      4  H   UNL     1      47.011   5.909  13.610  0.00  0.00    +0.000 HD
ENDROOT
BRANCH   2   5
ATOM      5  C   UNL     1      48.516   7.948  13.977  0.00  0.00    +0.000 A 
ATOM      6  C   UNL     1      48.925   7.342  15.158  0.00  0.00    +0.000 A 
ATOM      7  S   UNL     1      50.607   7.429  15.425  0.00  0.00    +0.000 S 
ATOM      8  C   UNL     1      50.855   8.236  13.947  0.00  0.00    +0.000 A 
ATOM      9  N   UNL     1      52.105   8.588  13.542  0.00  0.00    +0.000 NA
ATOM     10  C   UNL     1      52.153   9.152  12.383  0.00  0.00    +0.000 A 
ATOM     11  N   UNL     1      51.061   9.408  11.594  0.00  0.00    +0.000 N 
ATOM     12  C   UNL     1      49.773   9.141  11.993  0.00  0.00    +0.000 A 
ATOM     13  O   UNL     1      48.815   9.504  11.320  0.00  0.00    +0.000 OA
ATOM     14  C   UNL     1      49.668   8.461  13.272  0.00  0.00    +0.000 A 
ATOM     15  H   UNL     1      51.162   9.880  10.708  0.00  0.00    +0.000 HD
ENDBRANCH   2   5
BRANCH   3  16
ATOM     16  C   UNL     1      45.118   6.605  13.054  0.00  0.00    +0.000 C 
BRANCH  16  17
ATOM     17  C   UNL     1      44.882   5.483  12.079  0.00  0.00    +0.000 A 
ATOM     18  C   UNL     1      45.377   4.201  12.349  0.00  0.00    +0.000 A 
ATOM     19  C   UNL     1      45.173   3.156  11.446  0.00  0.00    +0.000 A 
ATOM     20  C   UNL     1      44.487   3.379  10.246  0.00  0.00    +0.000 A 
ATOM     21  C   UNL     1      43.990   4.660   9.973  0.00  0.00    +0.000 A 
ATOM     22  C   UNL     1      44.197   5.706  10.877  0.00  0.00    +0.000 A 
BRANCH  20  23
ATOM     23  C   UNL     1      44.307   2.259   9.252  0.00  0.00    +0.000 C 
BRANCH  23  24
ATOM     24  O   UNL     1      45.552   1.603   9.025  0.00  0.00    +0.000 OA
BRANCH  24  25
ATOM     25  C   UNL     1      46.238   1.992   7.908  0.00  0.00    +0.000 A 
ATOM     26  C   UNL     1      46.056   3.182   7.201  0.00  0.00    +0.000 A 
ATOM     27  C   UNL     1      46.835   3.442   6.075  0.00  0.00    +0.000 A 
ATOM     28  C   UNL     1      47.776   2.502   5.689  0.00  0.00    +0.000 A 
ATOM     29  N   UNL     1      47.983   1.341   6.343  0.00  0.00    +0.000 NA
ATOM     30  C   UNL     1      47.209   1.116   7.435  0.00  0.00    +0.000 A 
ENDBRANCH  24  25
ENDBRANCH  23  24
ENDBRANCH  20  23
ENDBRANCH  16  17
ENDBRANCH   3  16
TORSDOF 6
ENDMDL
MODEL 6
REMARK VINA RESULT:    -7.331      2.166      2.952
REMARK INTER + INTRA:         -10.681
REMARK INTER:                  -9.955
REMARK INTRA:                  -0.726
REMARK UNBOUND:                -0.778
REMARK  Name = 
REMARK  6 active torsions:
REMARK  status: ('A' for Active; 'I' for Inactive)
REMARK    1  A    between atoms: C_2  and  C_19
REMARK    2  A    between atoms: N_3  and  C_4
REMARK    3  A    between atoms: C_4  and  C_5
REMARK    4  A    between atoms: C_8  and  C_9
REMARK    5  A    between atoms: C_9  and  O_10
REMARK    6  A    between atoms: O_10  and  C_11
REMARK                            x       y       z     vdW  Elec       q    Type
REMARK                         _______ _______ _______ _____ _____    ______ ____
ROOT
ATOM      1  O   UNL     1      49.303   8.483  15.193  0.00  0.00    +0.000 OA
ATOM      2  C   UNL     1      49.011   7.301  15.344  0.00  0.00    +0.000 C 
ATOM      3  N   UNL     1      48.155   6.639  14.502  0.00  0.00    +0.000 N 
ATOM      4  H   UNL     1      47.798   5.731  14.778  0.00  0.00    +0.000 HD
ENDROOT
BRANCH   2   5
ATOM      5  C   UNL     1      49.613   6.496  16.415  0.00  0.00    +0.000 A 
ATOM      6  C   UNL     1      48.796   5.811  17.305  0.00  0.00    +0.000 A 
ATOM      7  S   UNL     1      49.657   4.949  18.498  0.00  0.00    +0.000 S 
ATOM      8  C   UNL     1      51.153   5.420  17.837  0.00  0.00    +0.000 A 
ATOM      9  N   UNL     1      52.324   4.993  18.382  0.00  0.00    +0.000 NA
ATOM     10  C   UNL     1      53.381   5.388  17.754  0.00  0.00    +0.000 A 
ATOM     11  N   UNL     1      53.373   6.182  16.636  0.00  0.00    +0.000 N 
ATOM     12  C   UNL     1      52.220   6.700  16.097  0.00  0.00    +0.000 A 
ATOM     13  O   UNL     1      52.260   7.512  15.179  0.00  0.00    +0.000 OA
ATOM     14  C   UNL     1      50.999   6.246  16.738  0.00  0.00    +0.000 A 
ATOM     15  H   UNL     1      54.237   6.481  16.208  0.00  0.00    +0.000 HD
ENDBRANCH   2   5
BRANCH   3  16
ATOM     16  C   UNL     1      47.429   7.306  13.452  0.00  0.00    +0.000 C 
BRANCH  16  17
ATOM     17  C   UNL     1      46.559   6.340  12.693  0.00  0.00    +0.000 A 
ATOM     18  C   UNL     1      46.281   5.076  13.229  0.00  0.00    +0.000 A 
ATOM     19  C   UNL     1      45.485   4.168  12.529  0.00  0.00    +0.000 A 
ATOM     20  C   UNL     1      44.969   4.499  11.270  0.00  0.00    +0.000 A 
ATOM     21  C   UNL     1      45.245   5.763  10.733  0.00  0.00    +0.000 A 
ATOM     22  C   UNL     1      46.044   6.671  11.433  0.00  0.00    +0.000 A 
BRANCH  20  23
ATOM     23  C   UNL     1      44.146   3.500  10.497  0.00  0.00    +0.000 C 
BRANCH  23  24
ATOM     24  O   UNL     1      44.243   3.766   9.099  0.00  0.00    +0.000 OA
BRANCH  24  25
ATOM     25  C   UNL     1      45.232   3.099   8.431  0.00  0.00    +0.000 A 
ATOM     26  C   UNL     1      46.086   3.639   7.468  0.00  0.00    +0.000 A 
ATOM     27  C   UNL     1      47.051   2.832   6.870  0.00  0.00    +0.000 A 
ATOM     28  C   UNL     1      47.134   1.503   7.253  0.00  0.00    +0.000 A 
ATOM     29  N   UNL     1      46.329   0.942   8.178  0.00  0.00    +0.000 NA
ATOM     30  C   UNL     1      45.398   1.754   8.742  0.00  0.00    +0.000 A 
ENDBRANCH  24  25
ENDBRANCH  23  24
ENDBRANCH  20  23
ENDBRANCH  16  17
ENDBRANCH   3  16
TORSDOF 6
ENDMDL
MODEL 7
REMARK VINA RESULT:    -7.290      1.929      2.608
REMARK INTER + INTRA:         -10.625
REMARK INTER:                  -9.476
REMARK INTRA:                  -1.149
REMARK UNBOUND:                -0.778
REMARK  Name = 
REMARK  6 active torsions:
REMARK  status: ('A' for Active; 'I' for Inactive)
REMARK    1  A    between atoms: C_2  and  C_19
REMARK    2  A    between atoms: N_3  and  C_4
REMARK    3  A    between atoms: C_4  and  C_5
REMARK    4  A    between atoms: C_8  and  C_9
REMARK    5  A    between atoms: C_9  and  O_10
REMARK    6  A    between atoms: O_10  and  C_11
REMARK                            x       y       z     vdW  Elec       q    Type
REMARK                         _______ _______ _______ _____ _____    ______ ____
ROOT
ATOM      1  O   UNL     1      48.594   8.613  15.962  0.00  0.00    +0.000 OA
ATOM      2  C   UNL     1      49.012   7.567  15.475  0.00  0.00    +0.000 C 
ATOM      3  N   UNL     1      48.515   7.045  14.309  0.00  0.00    +0.000 N 
ATOM      4  H   UNL     1      48.754   6.093  14.054  0.00  0.00    +0.000 HD
ENDROOT
BRANCH   2   5
ATOM      5  C   UNL     1      50.126   6.831  16.087  0.00  0.00    +0.000 A 
ATOM      6  C   UNL     1      51.405   7.371  16.063  0.00  0.00    +0.000 A 
ATOM      7  S   UNL     1      52.580   6.376  16.795  0.00  0.00    +0.000 S 
ATOM      8  C   UNL     1      51.413   5.210  17.214  0.00  0.00    +0.000 A 
ATOM      9  N   UNL     1      51.759   4.088  17.900  0.00  0.00    +0.000 NA
ATOM     10  C   UNL     1      50.769   3.313  18.191  0.00  0.00    +0.000 A 
ATOM     11  N   UNL     1      49.464   3.553  17.848  0.00  0.00    +0.000 N 
ATOM     12  C   UNL     1      49.077   4.633  17.091  0.00  0.00    +0.000 A 
ATOM     13  O   UNL     1      47.923   4.745  16.692  0.00  0.00    +0.000 OA
ATOM     14  C   UNL     1      50.147   5.562  16.778  0.00  0.00    +0.000 A 
ATOM     15  H   UNL     1      48.738   2.892  18.081  0.00  0.00    +0.000 HD
ENDBRANCH   2   5
BRANCH   3  16
ATOM     16  C   UNL     1      47.376   7.609  13.630  0.00  0.00    +0.000 C 
BRANCH  16  17
ATOM     17  C   UNL     1      46.415   6.535  13.196  0.00  0.00    +0.000 A 
ATOM     18  C   UNL     1      46.793   5.187  13.257  0.00  0.00    +0.000 A 
ATOM     19  C   UNL     1      45.914   4.184  12.847  0.00  0.00    +0.000 A 
ATOM     20  C   UNL     1      44.646   4.510  12.349  0.00  0.00    +0.000 A 
ATOM     21  C   UNL     1      44.265   5.858  12.288  0.00  0.00    +0.000 A 
ATOM     22  C   UNL     1      45.147   6.862  12.697  0.00  0.00    +0.000 A 
BRANCH  20  23
ATOM     23  C   UNL     1      43.715   3.428  11.865  0.00  0.00    +0.000 C 
BRANCH  23  24
ATOM     24  O   UNL     1      43.372   3.654  10.500  0.00  0.00    +0.000 OA
BRANCH  24  25
ATOM     25  C   UNL     1      44.332   3.332   9.581  0.00  0.00    +0.000 A 
ATOM     26  C   UNL     1      44.902   2.072   9.390  0.00  0.00    +0.000 A 
ATOM     27  C   UNL     1      45.875   1.896   8.409  0.00  0.00    +0.000 A 
ATOM     28  C   UNL     1      46.251   2.988   7.644  0.00  0.00    +0.000 A 
ATOM     29  N   UNL     1      45.727   4.221   7.798  0.00  0.00    +0.000 NA
ATOM     30  C   UNL     1      44.782   4.361   8.761  0.00  0.00    +0.000 A 
ENDBRANCH  24  25
ENDBRANCH  23  24
ENDBRANCH  20  23
ENDBRANCH  16  17
ENDBRANCH   3  16
TORSDOF 6
ENDMDL
MODEL 8
REMARK VINA RESULT:    -7.199      3.146      4.881
REMARK INTER + INTRA:         -10.502
REMARK INTER:                 -10.266
REMARK INTRA:                  -0.236
REMARK UNBOUND:                -0.778
REMARK  Name = 
REMARK  6 active torsions:
REMARK  status: ('A' for Active; 'I' for Inactive)
REMARK    1  A    between atoms: C_2  and  C_19
REMARK    2  A    between atoms: N_3  and  C_4
REMARK    3  A    between atoms: C_4  and  C_5
REMARK    4  A    between atoms: C_8  and  C_9
REMARK    5  A    between atoms: C_9  and  O_10
REMARK    6  A    between atoms: O_10  and  C_11
REMARK                            x       y       z     vdW  Elec       q    Type
REMARK                         _______ _______ _______ _____ _____    ______ ____
ROOT
ATOM      1  O   UNL     1      49.092   6.425  12.751  0.00  0.00    +0.000 OA
ATOM      2  C   UNL     1      48.250   7.314  12.836  0.00  0.00    +0.000 C 
ATOM      3  N   UNL     1      47.018   7.113  13.400  0.00  0.00    +0.000 N 
ATOM      4  H   UNL     1      46.297   7.813  13.272  0.00  0.00    +0.000 HD
ENDROOT
BRANCH   2   5
ATOM      5  C   UNL     1      48.537   8.682  12.384  0.00  0.00    +0.000 A 
ATOM      6  C   UNL     1      47.657   9.710  12.697  0.00  0.00    +0.000 A 
ATOM      7  S   UNL     1      48.128  11.226  12.074  0.00  0.00    +0.000 S 
ATOM      8  C   UNL     1      49.550  10.571  11.406  0.00  0.00    +0.000 A 
ATOM      9  N   UNL     1      50.438  11.359  10.742  0.00  0.00    +0.000 NA
ATOM     10  C   UNL     1      51.494  10.743  10.327  0.00  0.00    +0.000 A 
ATOM     11  N   UNL     1      51.737   9.405  10.507  0.00  0.00    +0.000 N 
ATOM     12  C   UNL     1      50.836   8.556  11.104  0.00  0.00    +0.000 A 
ATOM     13  O   UNL     1      51.028   7.346  11.129  0.00  0.00    +0.000 OA
ATOM     14  C   UNL     1      49.651   9.210  11.631  0.00  0.00    +0.000 A 
ATOM     15  H   UNL     1      52.570   8.976  10.133  0.00  0.00    +0.000 HD
ENDBRANCH   2   5
BRANCH   3  16
ATOM     16  C   UNL     1      46.561   5.813  13.823  0.00  0.00    +0.000 C 
BRANCH  16  17
ATOM     17  C   UNL     1      45.954   5.051  12.675  0.00  0.00    +0.000 A 
ATOM     18  C   UNL     1      45.600   3.705  12.835  0.00  0.00    +0.000 A 
ATOM     19  C   UNL     1      45.047   2.986  11.774  0.00  0.00    +0.000 A 
ATOM     20  C   UNL     1      44.855   3.594  10.527  0.00  0.00    +0.000 A 
ATOM     21  C   UNL     1      45.208   4.941  10.365  0.00  0.00    +0.000 A 
ATOM     22  C   UNL     1      45.763   5.659  11.428  0.00  0.00    +0.000 A 
BRANCH  20  23
ATOM     23  C   UNL     1      44.299   2.803   9.371  0.00  0.00    +0.000 C 
BRANCH  23  24
ATOM     24  O   UNL     1      45.209   1.769   9.004  0.00  0.00    +0.000 OA
BRANCH  24  25
ATOM     25  C   UNL     1      46.022   2.038   7.938  0.00  0.00    +0.000 A 
ATOM     26  C   UNL     1      45.975   3.176   7.131  0.00  0.00    +0.000 A 
ATOM     27  C   UNL     1      46.873   3.312   6.075  0.00  0.00    +0.000 A 
ATOM     28  C   UNL     1      47.797   2.303   5.856  0.00  0.00    +0.000 A 
ATOM     29  N   UNL     1      47.875   1.188   6.611  0.00  0.00    +0.000 NA
ATOM     30  C   UNL     1      46.986   1.084   7.632  0.00  0.00    +0.000 A 
ENDBRANCH  24  25
ENDBRANCH  23  24
ENDBRANCH  20  23
ENDBRANCH  16  17
ENDBRANCH   3  16
TORSDOF 6
ENDMDL
MODEL 9
REMARK VINA RESULT:    -7.059      3.418      8.001
REMARK INTER + INTRA:         -10.313
REMARK INTER:                  -9.108
REMARK INTRA:                  -1.205
REMARK UNBOUND:                -0.778
REMARK  Name = 
REMARK  6 active torsions:
REMARK  status: ('A' for Active; 'I' for Inactive)
REMARK    1  A    between atoms: C_2  and  C_19
REMARK    2  A    between atoms: N_3  and  C_4
REMARK    3  A    between atoms: C_4  and  C_5
REMARK    4  A    between atoms: C_8  and  C_9
REMARK    5  A    between atoms: C_9  and  O_10
REMARK    6  A    between atoms: O_10  and  C_11
REMARK                            x       y       z     vdW  Elec       q    Type
REMARK                         _______ _______ _______ _____ _____    ______ ____
ROOT
ATOM      1  O   UNL     1      45.239   7.942  11.702  0.00  0.00    +0.000 OA
ATOM      2  C   UNL     1      46.004   7.040  11.374  0.00  0.00    +0.000 C 
ATOM      3  N   UNL     1      47.355   7.100  11.601  0.00  0.00    +0.000 N 
ATOM      4  H   UNL     1      47.961   6.428  11.143  0.00  0.00    +0.000 HD
ENDROOT
BRANCH   2   5
ATOM      5  C   UNL     1      45.507   5.800  10.764  0.00  0.00    +0.000 A 
ATOM      6  C   UNL     1      45.798   5.521   9.436  0.00  0.00    +0.000 A 
ATOM      7  S   UNL     1      45.123   4.056   8.882  0.00  0.00    +0.000 S 
ATOM      8  C   UNL     1      44.459   3.719  10.412  0.00  0.00    +0.000 A 
ATOM      9  N   UNL     1      43.760   2.574  10.635  0.00  0.00    +0.000 NA
ATOM     10  C   UNL     1      43.352   2.424  11.851  0.00  0.00    +0.000 A 
ATOM     11  N   UNL     1      43.571   3.324  12.863  0.00  0.00    +0.000 N 
ATOM     12  C   UNL     1      44.204   4.528  12.668  0.00  0.00    +0.000 A 
ATOM     13  O   UNL     1      44.265   5.363  13.563  0.00  0.00    +0.000 OA
ATOM     14  C   UNL     1      44.725   4.723  11.327  0.00  0.00    +0.000 A 
ATOM     15  H   UNL     1      43.200   3.162  13.787  0.00  0.00    +0.000 HD
ENDBRANCH   2   5
BRANCH   3  16
ATOM     16  C   UNL     1      48.003   8.276  12.122  0.00  0.00    +0.000 C 
BRANCH  16  17
ATOM     17  C   UNL     1      48.414   8.079  13.557  0.00  0.00    +0.000 A 
ATOM     18  C   UNL     1      49.404   7.142  13.882  0.00  0.00    +0.000 A 
ATOM     19  C   UNL     1      49.784   6.943  15.210  0.00  0.00    +0.000 A 
ATOM     20  C   UNL     1      49.167   7.663  16.241  0.00  0.00    +0.000 A 
ATOM     21  C   UNL     1      48.177   8.601  15.918  0.00  0.00    +0.000 A 
ATOM     22  C   UNL     1      47.796   8.798  14.588  0.00  0.00    +0.000 A 
BRANCH  20  23
ATOM     23  C   UNL     1      49.549   7.415  17.678  0.00  0.00    +0.000 C 
BRANCH  23  24
ATOM     24  O   UNL     1      48.524   6.671  18.333  0.00  0.00    +0.000 OA
BRANCH  24  25
ATOM     25  C   UNL     1      48.438   5.348  17.997  0.00  0.00    +0.000 A 
ATOM     26  C   UNL     1      49.501   4.448  17.906  0.00  0.00    +0.000 A 
ATOM     27  C   UNL     1      49.257   3.124  17.550  0.00  0.00    +0.000 A 
ATOM     28  C   UNL     1      47.952   2.736  17.294  0.00  0.00    +0.000 A 
ATOM     29  N   UNL     1      46.898   3.573  17.369  0.00  0.00    +0.000 NA
ATOM     30  C   UNL     1      47.167   4.857  17.718  0.00  0.00    +0.000 A 
ENDBRANCH  24  25
ENDBRANCH  23  24
ENDBRANCH  20  23
ENDBRANCH  16  17
ENDBRANCH   3  16
TORSDOF 6
ENDMDL
