MODEL 1
REMARK VINA RESULT:    -8.031      0.000      0.000
REMARK INTER + INTRA:         -10.314
REMARK INTER:                 -10.379
REMARK INTRA:                   0.065
REMARK UNBOUND:                 0.065
REMARK  Name = 
REMARK  6 active torsions:
REMARK  status: ('A' for Active; 'I' for Inactive)
REMARK    1  A    between atoms: C_1  and  N_2
REMARK    2  A    between atoms: C_8  and  C_9
REMARK    3  A    between atoms: N_11  and  C_12
REMARK    4  A    between atoms: C_12  and  C_13
REMARK    5  A    between atoms: C_16  and  O_17
REMARK    6  A    between atoms: O_17  and  C_18
REMARK                            x       y       z     vdW  Elec       q    Type
REMARK                         _______ _______ _______ _____ _____    ______ ____
ROOT
ATOM      1  C   UNL     1      47.310   5.316  14.067  0.00  0.00    +0.000 C 
ATOM      2  O   UNL     1      47.590   4.141  14.298  0.00  0.00    +0.000 OA
ATOM      3  N   UNL     1      46.062   5.709  13.649  0.00  0.00    +0.000 N 
ATOM      4  H   UNL     1      45.924   6.667  13.353  0.00  0.00    +0.000 HD
ENDROOT
BRANCH   1  12
ATOM      5  C   UNL     1      49.516   6.742  19.141  0.00  0.00    +0.000 C 
ATOM      6  N   UNL     1      49.586   7.133  17.749  0.00  0.00    +0.000 N 
ATOM      7  C   UNL     1      50.408   8.168  17.349  0.00  0.00    +0.000 A 
ATOM      8  N   UNL     1      50.548   8.586  16.133  0.00  0.00    +0.000 NA
ATOM      9  C   UNL     1      49.800   7.920  15.219  0.00  0.00    +0.000 A 
ATOM     10  S   UNL     1      49.827   8.366  13.576  0.00  0.00    +0.000 S 
ATOM     11  C   UNL     1      48.686   7.163  13.172  0.00  0.00    +0.000 A 
ATOM     12  C   UNL     1      48.289   6.392  14.256  0.00  0.00    +0.000 A 
ATOM     13  C   UNL     1      48.949   6.858  15.456  0.00  0.00    +0.000 A 
ATOM     14  C   UNL     1      48.835   6.405  16.832  0.00  0.00    +0.000 A 
ATOM     15  O   UNL     1      48.154   5.434  17.154  0.00  0.00    +0.000 OA
ENDBRANCH   1  12
BRANCH   3  16
ATOM     16  C   UNL     1      45.025   4.773  13.304  0.00  0.00    +0.000 C 
BRANCH  16  17
ATOM     17  C   UNL     1      44.872   4.640  11.815  0.00  0.00    +0.000 A 
ATOM     18  C   UNL     1      45.656   5.376  10.920  0.00  0.00    +0.000 A 
ATOM     19  C   UNL     1      45.504   5.198   9.546  0.00  0.00    +0.000 A 
ATOM     20  C   UNL     1      44.584   4.262   9.114  0.00  0.00    +0.000 A 
ATOM     21  N   UNL     1      43.798   3.551   9.952  0.00  0.00    +0.000 NA
ATOM     22  C   UNL     1      43.963   3.742  11.274  0.00  0.00    +0.000 A 
BRANCH  20  23
ATOM     23  O   UNL     1      44.475   4.039   7.748  0.00  0.00    +0.000 OA
BRANCH  23  24
ATOM     24  C   UNL     1      45.326   2.961   7.343  0.00  0.00    +0.000 C 
ATOM     25  C   UNL     1      46.622   3.466   6.693  0.00  0.00    +0.000 C 
ATOM     26  C   UNL     1      47.371   2.254   6.158  0.00  0.00    +0.000 C 
ATOM     27  C   UNL     1      47.645   1.237   7.271  0.00  0.00    +0.000 C 
ATOM     28  N   UNL     1      46.462   0.890   8.065  0.00  0.00    +0.000 NA
ATOM     29  C   UNL     1      45.729   2.078   8.535  0.00  0.00    +0.000 C 
ATOM     30  H   UNL     1      46.739   0.318   8.862  0.00  0.00    +0.000 HD
ENDBRANCH  23  24
ENDBRANCH  20  23
ENDBRANCH  16  17
ENDBRANCH   3  16
TORSDOF 5
ENDMDL
MODEL 2
REMARK VINA RESULT:    -7.966      1.747      2.197
REMARK INTER + INTRA:         -10.230
REMARK INTER:                 -10.330
REMARK INTRA:                   0.100
REMARK UNBOUND:                 0.065
REMARK  Name = 
REMARK  6 active torsions:
REMARK  status: ('A' for Active; 'I' for Inactive)
REMARK    1  A    between atoms: C_1  and  N_2
REMARK    2  A    between atoms: C_8  and  C_9
REMARK    3  A    between atoms: N_11  and  C_12
REMARK    4  A    between atoms: C_12  and  C_13
REMARK    5  A    between atoms: C_16  and  O_17
REMARK    6  A    between atoms: O_17  and  C_18
REMARK                            x       y       z     vdW  Elec       q    Type
REMARK                         _______ _______ _______ _____ _____    ______ ____
ROOT
ATOM      1  C   UNL     1      46.989   6.720  13.143  0.00  0.00    +0.000 C 
ATOM      2  O   UNL     1      47.240   6.965  11.964  0.00  0.00    +0.000 OA
ATOM      3  N   UNL     1      45.740   6.338  13.567  0.00  0.00    +0.000 N 
ATOM      4  H   UNL     1      45.559   6.273  14.562  0.00  0.00    +0.000 HD
ENDROOT
BRANCH   1  12
ATOM      5  C   UNL     1      47.394   3.007  17.467  0.00  0.00    +0.000 C 
ATOM      6  N   UNL     1      48.053   4.187  16.949  0.00  0.00    +0.000 N 
ATOM      7  C   UNL     1      49.156   4.716  17.591  0.00  0.00    +0.000 A 
ATOM      8  N   UNL     1      49.819   5.758  17.206  0.00  0.00    +0.000 NA
ATOM      9  C   UNL     1      49.345   6.341  16.078  0.00  0.00    +0.000 A 
ATOM     10  S   UNL     1      50.069   7.750  15.452  0.00  0.00    +0.000 S 
ATOM     11  C   UNL     1      48.942   7.830  14.174  0.00  0.00    +0.000 A 
ATOM     12  C   UNL     1      48.024   6.788  14.180  0.00  0.00    +0.000 A 
ATOM     13  C   UNL     1      48.271   5.926  15.315  0.00  0.00    +0.000 A 
ATOM     14  C   UNL     1      47.566   4.739  15.769  0.00  0.00    +0.000 A 
ATOM     15  O   UNL     1      46.632   4.244  15.142  0.00  0.00    +0.000 OA
ENDBRANCH   1  12
BRANCH   3  16
ATOM     16  C   UNL     1      44.589   6.335  12.703  0.00  0.00    +0.000 C 
BRANCH  16  17
ATOM     17  C   UNL     1      44.605   5.164  11.762  0.00  0.00    +0.000 A 
ATOM     18  C   UNL     1      45.293   3.983  12.061  0.00  0.00    +0.000 A 
ATOM     19  C   UNL     1      45.255   2.907  11.175  0.00  0.00    +0.000 A 
ATOM     20  C   UNL     1      44.501   3.045  10.025  0.00  0.00    +0.000 A 
ATOM     21  N   UNL     1      43.843   4.179   9.699  0.00  0.00    +0.000 NA
ATOM     22  C   UNL     1      43.896   5.204  10.571  0.00  0.00    +0.000 A 
BRANCH  20  23
ATOM     23  O   UNL     1      44.412   1.953   9.171  0.00  0.00    +0.000 OA
BRANCH  23  24
ATOM     24  C   UNL     1      45.310   2.103   8.066  0.00  0.00    +0.000 C 
ATOM     25  C   UNL     1      46.012   3.468   8.078  0.00  0.00    +0.000 C 
ATOM     26  C   UNL     1      46.809   3.588   6.787  0.00  0.00    +0.000 C 
ATOM     27  C   UNL     1      47.805   2.431   6.644  0.00  0.00    +0.000 C 
ATOM     28  N   UNL     1      47.211   1.105   6.845  0.00  0.00    +0.000 NA
ATOM     29  C   UNL     1      46.408   1.027   8.076  0.00  0.00    +0.000 C 
ATOM     30  H   UNL     1      47.947   0.399   6.867  0.00  0.00    +0.000 HD
ENDBRANCH  23  24
ENDBRANCH  20  23
ENDBRANCH  16  17
ENDBRANCH   3  16
TORSDOF 5
ENDMDL
MODEL 3
REMARK VINA RESULT:    -7.827      2.319      3.390
REMARK INTER + INTRA:         -10.050
REMARK INTER:                  -9.067
REMARK INTRA:                  -0.983
REMARK UNBOUND:                 0.065
REMARK  Name = 
REMARK  6 active torsions:
REMARK  status: ('A' for Active; 'I' for Inactive)
REMARK    1  A    between atoms: C_1  and  N_2
REMARK    2  A    between atoms: C_8  and  C_9
REMARK    3  A    between atoms: N_11  and  C_12
REMARK    4  A    between atoms: C_12  and  C_13
REMARK    5  A    between atoms: C_16  and  O_17
REMARK    6  A    between atoms: O_17  and  C_18
REMARK                            x       y       z     vdW  Elec       q    Type
REMARK                         _______ _______ _______ _____ _____    ______ ____
ROOT
ATOM      1  C   UNL     1      48.904   7.956  15.006  0.00  0.00    +0.000 C 
ATOM      2  O   UNL     1      49.765   8.138  14.147  0.00  0.00    +0.000 OA
ATOM      3  N   UNL     1      47.561   8.042  14.735  0.00  0.00    +0.000 N 
ATOM      4  H   UNL     1      46.903   8.008  15.504  0.00  0.00    +0.000 HD
ENDROOT
BRANCH   1  12
ATOM      5  C   UNL     1      47.614   2.930  17.400  0.00  0.00    +0.000 C 
ATOM      6  N   UNL     1      48.267   4.182  17.724  0.00  0.00    +0.000 N 
ATOM      7  C   UNL     1      48.809   4.388  18.977  0.00  0.00    +0.000 A 
ATOM      8  N   UNL     1      49.418   5.463  19.361  0.00  0.00    +0.000 NA
ATOM      9  C   UNL     1      49.496   6.434  18.418  0.00  0.00    +0.000 A 
ATOM     10  S   UNL     1      50.225   7.933  18.766  0.00  0.00    +0.000 S 
ATOM     11  C   UNL     1      49.893   8.522  17.199  0.00  0.00    +0.000 A 
ATOM     12  C   UNL     1      49.257   7.595  16.384  0.00  0.00    +0.000 A 
ATOM     13  C   UNL     1      49.023   6.374  17.122  0.00  0.00    +0.000 A 
ATOM     14  C   UNL     1      48.364   5.142  16.722  0.00  0.00    +0.000 A 
ATOM     15  O   UNL     1      47.953   4.952  15.579  0.00  0.00    +0.000 OA
ENDBRANCH   1  12
BRANCH   3  16
ATOM     16  C   UNL     1      47.048   8.498  13.470  0.00  0.00    +0.000 C 
BRANCH  16  17
ATOM     17  C   UNL     1      46.256   7.428  12.774  0.00  0.00    +0.000 A 
ATOM     18  C   UNL     1      45.069   7.712  12.089  0.00  0.00    +0.000 A 
ATOM     19  C   UNL     1      44.381   6.694  11.429  0.00  0.00    +0.000 A 
ATOM     20  C   UNL     1      44.925   5.424  11.457  0.00  0.00    +0.000 A 
ATOM     21  N   UNL     1      46.057   5.115  12.126  0.00  0.00    +0.000 NA
ATOM     22  C   UNL     1      46.702   6.115  12.757  0.00  0.00    +0.000 A 
BRANCH  20  23
ATOM     23  O   UNL     1      44.274   4.423  10.749  0.00  0.00    +0.000 OA
BRANCH  23  24
ATOM     24  C   UNL     1      45.168   3.799   9.820  0.00  0.00    +0.000 C 
ATOM     25  C   UNL     1      44.657   2.424   9.367  0.00  0.00    +0.000 C 
ATOM     26  C   UNL     1      45.746   1.784   8.520  0.00  0.00    +0.000 C 
ATOM     27  C   UNL     1      46.120   2.678   7.332  0.00  0.00    +0.000 C 
ATOM     28  N   UNL     1      46.406   4.069   7.699  0.00  0.00    +0.000 NA
ATOM     29  C   UNL     1      45.359   4.652   8.556  0.00  0.00    +0.000 C 
ATOM     30  H   UNL     1      46.515   4.631   6.856  0.00  0.00    +0.000 HD
ENDBRANCH  23  24
ENDBRANCH  20  23
ENDBRANCH  16  17
ENDBRANCH   3  16
TORSDOF 5
ENDMDL
MODEL 4
REMARK VINA RESULT:    -7.766      3.825      8.061
REMARK INTER + INTRA:          -9.971
REMARK INTER:                  -8.994
REMARK INTRA:                  -0.978
REMARK UNBOUND:                 0.065
REMARK  Name = 
REMARK  6 active torsions:
REMARK  status: ('A' for Active; 'I' for Inactive)
REMARK    1  A    between atoms: C_1  and  N_2
REMARK    2  A    between atoms: C_8  and  C_9
REMARK    3  A    between atoms: N_11  and  C_12
REMARK    4  A    between atoms: C_12  and  C_13
REMARK    5  A    between atoms: C_16  and  O_17
REMARK    6  A    between atoms: O_17  and  C_18
REMARK                            x       y       z     vdW  Elec       q    Type
REMARK                         _______ _______ _______ _____ _____    ______ ____
ROOT
ATOM      1  C   UNL     1      44.825   6.716  11.769  0.00  0.00    +0.000 C 
ATOM      2  O   UNL     1      44.312   7.613  11.102  0.00  0.00    +0.000 OA
ATOM      3  N   UNL     1      45.703   6.969  12.795  0.00  0.00    +0.000 N 
ATOM      4  H   UNL     1      46.191   6.193  13.225  0.00  0.00    +0.000 HD
ENDROOT
BRANCH   1  12
ATOM      5  C   UNL     1      46.455   3.829   7.115  0.00  0.00    +0.000 C 
ATOM      6  N   UNL     1      45.713   3.633   8.342  0.00  0.00    +0.000 N 
ATOM      7  C   UNL     1      45.153   2.405   8.637  0.00  0.00    +0.000 A 
ATOM      8  N   UNL     1      44.481   2.126   9.707  0.00  0.00    +0.000 NA
ATOM      9  C   UNL     1      44.343   3.161  10.571  0.00  0.00    +0.000 A 
ATOM     10  S   UNL     1      43.451   2.984  12.011  0.00  0.00    +0.000 S 
ATOM     11  C   UNL     1      43.721   4.612  12.445  0.00  0.00    +0.000 A 
ATOM     12  C   UNL     1      44.506   5.304  11.533  0.00  0.00    +0.000 A 
ATOM     13  C   UNL     1      44.856   4.435  10.431  0.00  0.00    +0.000 A 
ATOM     14  C   UNL     1      45.622   4.704   9.225  0.00  0.00    +0.000 A 
ATOM     15  O   UNL     1      46.174   5.783   9.018  0.00  0.00    +0.000 OA
ENDBRANCH   1  12
BRANCH   3  16
ATOM     16  C   UNL     1      46.210   8.285  13.081  0.00  0.00    +0.000 C 
BRANCH  16  17
ATOM     17  C   UNL     1      47.592   8.480  12.523  0.00  0.00    +0.000 A 
ATOM     18  C   UNL     1      48.415   7.399  12.186  0.00  0.00    +0.000 A 
ATOM     19  C   UNL     1      49.678   7.624  11.641  0.00  0.00    +0.000 A 
ATOM     20  C   UNL     1      50.065   8.933  11.427  0.00  0.00    +0.000 A 
ATOM     21  N   UNL     1      49.302   9.997  11.760  0.00  0.00    +0.000 NA
ATOM     22  C   UNL     1      48.087   9.753  12.286  0.00  0.00    +0.000 A 
BRANCH  20  23
ATOM     23  O   UNL     1      51.297   9.157  10.827  0.00  0.00    +0.000 OA
BRANCH  23  24
ATOM     24  C   UNL     1      52.096   7.968  10.857  0.00  0.00    +0.000 C 
ATOM     25  C   UNL     1      52.540   7.541   9.451  0.00  0.00    +0.000 C 
ATOM     26  C   UNL     1      53.237   6.194   9.579  0.00  0.00    +0.000 C 
ATOM     27  C   UNL     1      54.415   6.271  10.556  0.00  0.00    +0.000 C 
ATOM     28  N   UNL     1      54.081   6.881  11.847  0.00  0.00    +0.000 NA
ATOM     29  C   UNL     1      53.368   8.161  11.698  0.00  0.00    +0.000 C 
ATOM     30  H   UNL     1      54.931   7.020  12.391  0.00  0.00    +0.000 HD
ENDBRANCH  23  24
ENDBRANCH  20  23
ENDBRANCH  16  17
ENDBRANCH   3  16
TORSDOF 5
ENDMDL
MODEL 5
REMARK VINA RESULT:    -7.607      1.951      3.024
REMARK INTER + INTRA:          -9.765
REMARK INTER:                  -9.670
REMARK INTRA:                  -0.096
REMARK UNBOUND:                 0.065
REMARK  Name = 
REMARK  6 active torsions:
REMARK  status: ('A' for Active; 'I' for Inactive)
REMARK    1  A    between atoms: C_1  and  N_2
REMARK    2  A    between atoms: C_8  and  C_9
REMARK    3  A    between atoms: N_11  and  C_12
REMARK    4  A    between atoms: C_12  and  C_13
REMARK    5  A    between atoms: C_16  and  O_17
REMARK    6  A    between atoms: O_17  and  C_18
REMARK                            x       y       z     vdW  Elec       q    Type
REMARK                         _______ _______ _______ _____ _____    ______ ____
ROOT
ATOM      1  C   UNL     1      48.276   6.311  15.284  0.00  0.00    +0.000 C 
ATOM      2  O   UNL     1      48.671   5.459  16.078  0.00  0.00    +0.000 OA
ATOM      3  N   UNL     1      47.303   6.055  14.349  0.00  0.00    +0.000 N 
ATOM      4  H   UNL     1      47.108   6.752  13.641  0.00  0.00    +0.000 HD
ENDROOT
BRANCH   1  12
ATOM      5  C   UNL     1      51.157   8.669  10.949  0.00  0.00    +0.000 C 
ATOM      6  N   UNL     1      50.688   8.994  12.280  0.00  0.00    +0.000 N 
ATOM      7  C   UNL     1      50.932  10.238  12.828  0.00  0.00    +0.000 A 
ATOM      8  N   UNL     1      50.550  10.627  14.000  0.00  0.00    +0.000 NA
ATOM      9  C   UNL     1      49.862   9.697  14.707  0.00  0.00    +0.000 A 
ATOM     10  S   UNL     1      49.321  10.023  16.288  0.00  0.00    +0.000 S 
ATOM     11  C   UNL     1      48.652   8.461  16.442  0.00  0.00    +0.000 A 
ATOM     12  C   UNL     1      48.800   7.681  15.303  0.00  0.00    +0.000 A 
ATOM     13  C   UNL     1      49.523   8.423  14.294  0.00  0.00    +0.000 A 
ATOM     14  C   UNL     1      49.953   8.030  12.962  0.00  0.00    +0.000 A 
ATOM     15  O   UNL     1      49.661   6.944  12.466  0.00  0.00    +0.000 OA
ENDBRANCH   1  12
BRANCH   3  16
ATOM     16  C   UNL     1      46.770   4.738  14.119  0.00  0.00    +0.000 C 
BRANCH  16  17
ATOM     17  C   UNL     1      46.037   4.658  12.810  0.00  0.00    +0.000 A 
ATOM     18  C   UNL     1      46.167   5.644  11.825  0.00  0.00    +0.000 A 
ATOM     19  C   UNL     1      45.494   5.515  10.611  0.00  0.00    +0.000 A 
ATOM     20  C   UNL     1      44.730   4.381  10.414  0.00  0.00    +0.000 A 
ATOM     21  N   UNL     1      44.569   3.422  11.353  0.00  0.00    +0.000 NA
ATOM     22  C   UNL     1      45.227   3.571  12.517  0.00  0.00    +0.000 A 
BRANCH  20  23
ATOM     23  O   UNL     1      44.109   4.221   9.183  0.00  0.00    +0.000 OA
BRANCH  23  24
ATOM     24  C   UNL     1      44.849   3.314   8.358  0.00  0.00    +0.000 C 
ATOM     25  C   UNL     1      46.065   3.990   7.710  0.00  0.00    +0.000 C 
ATOM     26  C   UNL     1      46.681   2.996   6.737  0.00  0.00    +0.000 C 
ATOM     27  C   UNL     1      47.059   1.690   7.446  0.00  0.00    +0.000 C 
ATOM     28  N   UNL     1      45.981   1.121   8.262  0.00  0.00    +0.000 NA
ATOM     29  C   UNL     1      45.371   2.113   9.163  0.00  0.00    +0.000 C 
ATOM     30  H   UNL     1      46.340   0.335   8.804  0.00  0.00    +0.000 HD
ENDBRANCH  23  24
ENDBRANCH  20  23
ENDBRANCH  16  17
ENDBRANCH   3  16
TORSDOF 5
ENDMDL
MODEL 6
REMARK VINA RESULT:    -7.257      2.829      4.964
REMARK INTER + INTRA:          -9.314
REMARK INTER:                  -8.006
REMARK INTRA:                  -1.308
REMARK UNBOUND:                 0.065
REMARK  Name = 
REMARK  6 active torsions:
REMARK  status: ('A' for Active; 'I' for Inactive)
REMARK    1  A    between atoms: C_1  and  N_2
REMARK    2  A    between atoms: C_8  and  C_9
REMARK    3  A    between atoms: N_11  and  C_12
REMARK    4  A    between atoms: C_12  and  C_13
REMARK    5  A    between atoms: C_16  and  O_17
REMARK    6  A    between atoms: O_17  and  C_18
REMARK                            x       y       z     vdW  Elec       q    Type
REMARK                         _______ _______ _______ _____ _____    ______ ____
ROOT
ATOM      1  C   UNL     1      48.640   8.522  16.724  0.00  0.00    +0.000 C 
ATOM      2  O   UNL     1      47.879   9.487  16.762  0.00  0.00    +0.000 OA
ATOM      3  N   UNL     1      49.381   8.208  15.611  0.00  0.00    +0.000 N 
ATOM      4  H   UNL     1      49.892   7.334  15.592  0.00  0.00    +0.000 HD
ENDROOT
BRANCH   1  12
ATOM      5  C   UNL     1      48.168   2.830  16.547  0.00  0.00    +0.000 C 
ATOM      6  N   UNL     1      48.453   3.893  17.487  0.00  0.00    +0.000 N 
ATOM      7  C   UNL     1      48.722   3.608  18.811  0.00  0.00    +0.000 A 
ATOM      8  N   UNL     1      48.997   4.483  19.725  0.00  0.00    +0.000 NA
ATOM      9  C   UNL     1      49.002   5.767  19.292  0.00  0.00    +0.000 A 
ATOM     10  S   UNL     1      49.300   7.052  20.369  0.00  0.00    +0.000 S 
ATOM     11  C   UNL     1      49.102   8.210  19.132  0.00  0.00    +0.000 A 
ATOM     12  C   UNL     1      48.837   7.651  17.889  0.00  0.00    +0.000 A 
ATOM     13  C   UNL     1      48.773   6.211  18.004  0.00  0.00    +0.000 A 
ATOM     14  C   UNL     1      48.489   5.197  17.002  0.00  0.00    +0.000 A 
ATOM     15  O   UNL     1      48.325   5.467  15.815  0.00  0.00    +0.000 OA
ENDBRANCH   1  12
BRANCH   3  16
ATOM     16  C   UNL     1      49.220   8.885  14.351  0.00  0.00    +0.000 C 
BRANCH  16  17
ATOM     17  C   UNL     1      48.142   8.255  13.516  0.00  0.00    +0.000 A 
ATOM     18  C   UNL     1      46.866   8.819  13.404  0.00  0.00    +0.000 A 
ATOM     19  C   UNL     1      45.904   8.220  12.592  0.00  0.00    +0.000 A 
ATOM     20  C   UNL     1      46.266   7.083  11.894  0.00  0.00    +0.000 A 
ATOM     21  N   UNL     1      47.482   6.504  11.997  0.00  0.00    +0.000 NA
ATOM     22  C   UNL     1      48.393   7.101  12.789  0.00  0.00    +0.000 A 
BRANCH  20  23
ATOM     23  O   UNL     1      45.329   6.520  11.038  0.00  0.00    +0.000 OA
BRANCH  23  24
ATOM     24  C   UNL     1      44.959   5.211  11.486  0.00  0.00    +0.000 C 
ATOM     25  C   UNL     1      43.662   5.230  12.306  0.00  0.00    +0.000 C 
ATOM     26  C   UNL     1      43.450   3.830  12.864  0.00  0.00    +0.000 C 
ATOM     27  C   UNL     1      43.405   2.788  11.741  0.00  0.00    +0.000 C 
ATOM     28  N   UNL     1      44.525   2.878  10.798  0.00  0.00    +0.000 NA
ATOM     29  C   UNL     1      44.739   4.250  10.306  0.00  0.00    +0.000 C 
ATOM     30  H   UNL     1      44.363   2.250  10.012  0.00  0.00    +0.000 HD
ENDBRANCH  23  24
ENDBRANCH  20  23
ENDBRANCH  16  17
ENDBRANCH   3  16
TORSDOF 5
ENDMDL
MODEL 7
REMARK VINA RESULT:    -7.110      4.324      6.152
REMARK INTER + INTRA:          -9.123
REMARK INTER:                  -8.419
REMARK INTRA:                  -0.704
REMARK UNBOUND:                 0.065
REMARK  Name = 
REMARK  6 active torsions:
REMARK  status: ('A' for Active; 'I' for Inactive)
REMARK    1  A    between atoms: C_1  and  N_2
REMARK    2  A    between atoms: C_8  and  C_9
REMARK    3  A    between atoms: N_11  and  C_12
REMARK    4  A    between atoms: C_12  and  C_13
REMARK    5  A    between atoms: C_16  and  O_17
REMARK    6  A    between atoms: O_17  and  C_18
REMARK                            x       y       z     vdW  Elec       q    Type
REMARK                         _______ _______ _______ _____ _____    ______ ____
ROOT
ATOM      1  C   UNL     1      49.689   2.422  16.940  0.00  0.00    +0.000 C 
ATOM      2  O   UNL     1      49.261   1.733  16.016  0.00  0.00    +0.000 OA
ATOM      3  N   UNL     1      48.904   3.324  17.615  0.00  0.00    +0.000 N 
ATOM      4  H   UNL     1      49.339   3.953  18.279  0.00  0.00    +0.000 HD
ENDROOT
BRANCH   1  12
ATOM      5  C   UNL     1      53.027   6.895  18.168  0.00  0.00    +0.000 C 
ATOM      6  N   UNL     1      53.070   5.447  18.148  0.00  0.00    +0.000 N 
ATOM      7  C   UNL     1      54.216   4.772  18.519  0.00  0.00    +0.000 A 
ATOM      8  N   UNL     1      54.352   3.486  18.544  0.00  0.00    +0.000 NA
ATOM      9  C   UNL     1      53.251   2.795  18.159  0.00  0.00    +0.000 A 
ATOM     10  S   UNL     1      53.267   1.094  18.089  0.00  0.00    +0.000 S 
ATOM     11  C   UNL     1      51.656   1.046  17.529  0.00  0.00    +0.000 A 
ATOM     12  C   UNL     1      51.073   2.300  17.413  0.00  0.00    +0.000 A 
ATOM     13  C   UNL     1      52.031   3.320  17.780  0.00  0.00    +0.000 A 
ATOM     14  C   UNL     1      51.911   4.768  17.785  0.00  0.00    +0.000 A 
ATOM     15  O   UNL     1      50.859   5.346  17.521  0.00  0.00    +0.000 OA
ENDBRANCH   1  12
BRANCH   3  16
ATOM     16  C   UNL     1      47.563   3.650  17.206  0.00  0.00    +0.000 C 
BRANCH  16  17
ATOM     17  C   UNL     1      47.544   4.351  15.877  0.00  0.00    +0.000 A 
ATOM     18  C   UNL     1      46.827   3.850  14.785  0.00  0.00    +0.000 A 
ATOM     19  C   UNL     1      46.809   4.549  13.579  0.00  0.00    +0.000 A 
ATOM     20  C   UNL     1      47.492   5.748  13.517  0.00  0.00    +0.000 A 
ATOM     21  N   UNL     1      48.209   6.248  14.548  0.00  0.00    +0.000 NA
ATOM     22  C   UNL     1      48.212   5.554  15.701  0.00  0.00    +0.000 A 
BRANCH  20  23
ATOM     23  O   UNL     1      47.424   6.476  12.336  0.00  0.00    +0.000 OA
BRANCH  23  24
ATOM     24  C   UNL     1      46.241   7.282  12.308  0.00  0.00    +0.000 C 
ATOM     25  C   UNL     1      46.565   8.769  12.105  0.00  0.00    +0.000 C 
ATOM     26  C   UNL     1      45.266   9.548  12.253  0.00  0.00    +0.000 C 
ATOM     27  C   UNL     1      44.207   9.050  11.263  0.00  0.00    +0.000 C 
ATOM     28  N   UNL     1      44.021   7.595  11.271  0.00  0.00    +0.000 NA
ATOM     29  C   UNL     1      45.295   6.863  11.171  0.00  0.00    +0.000 C 
ATOM     30  H   UNL     1      43.406   7.324  10.504  0.00  0.00    +0.000 HD
ENDBRANCH  23  24
ENDBRANCH  20  23
ENDBRANCH  16  17
ENDBRANCH   3  16
TORSDOF 5
ENDMDL
MODEL 8
REMARK VINA RESULT:    -6.689      3.711      5.978
REMARK INTER + INTRA:          -8.579
REMARK INTER:                  -7.462
REMARK INTRA:                  -1.117
REMARK UNBOUND:                 0.065
REMARK  Name = 
REMARK  6 active torsions:
REMARK  status: ('A' for Active; 'I' for Inactive)
REMARK    1  A    between atoms: C_1  and  N_2
REMARK    2  A    between atoms: C_8  and  C_9
REMARK    3  A    between atoms: N_11  and  C_12
REMARK    4  A    between atoms: C_12  and  C_13
REMARK    5  A    between atoms: C_16  and  O_17
REMARK    6  A    between atoms: O_17  and  C_18
REMARK                            x       y       z     vdW  Elec       q    Type
REMARK                         _______ _______ _______ _____ _____    ______ ____
ROOT
ATOM      1  C   UNL     1      51.293   3.298  18.018  0.00  0.00    +0.000 C 
ATOM      2  O   UNL     1      51.238   2.204  17.459  0.00  0.00    +0.000 OA
ATOM      3  N   UNL     1      50.189   3.904  18.565  0.00  0.00    +0.000 N 
ATOM      4  H   UNL     1      50.267   4.857  18.898  0.00  0.00    +0.000 HD
ENDROOT
BRANCH   1  12
ATOM      5  C   UNL     1      52.421   8.281  15.458  0.00  0.00    +0.000 C 
ATOM      6  N   UNL     1      53.045   7.318  16.342  0.00  0.00    +0.000 N 
ATOM      7  C   UNL     1      54.327   7.523  16.812  0.00  0.00    +0.000 A 
ATOM      8  N   UNL     1      54.967   6.730  17.609  0.00  0.00    +0.000 NA
ATOM      9  C   UNL     1      54.277   5.623  17.977  0.00  0.00    +0.000 A 
ATOM     10  S   UNL     1      54.983   4.449  18.988  0.00  0.00    +0.000 S 
ATOM     11  C   UNL     1      53.585   3.472  18.924  0.00  0.00    +0.000 A 
ATOM     12  C   UNL     1      52.560   4.023  18.168  0.00  0.00    +0.000 A 
ATOM     13  C   UNL     1      52.989   5.286  17.610  0.00  0.00    +0.000 A 
ATOM     14  C   UNL     1      52.296   6.213  16.730  0.00  0.00    +0.000 A 
ATOM     15  O   UNL     1      51.128   6.047  16.383  0.00  0.00    +0.000 OA
ENDBRANCH   1  12
BRANCH   3  16
ATOM     16  C   UNL     1      48.855   3.387  18.404  0.00  0.00    +0.000 C 
BRANCH  16  17
ATOM     17  C   UNL     1      48.280   3.743  17.063  0.00  0.00    +0.000 A 
ATOM     18  C   UNL     1      48.029   5.069  16.693  0.00  0.00    +0.000 A 
ATOM     19  C   UNL     1      47.525   5.359  15.426  0.00  0.00    +0.000 A 
ATOM     20  C   UNL     1      47.314   4.305  14.558  0.00  0.00    +0.000 A 
ATOM     21  N   UNL     1      47.528   3.013  14.893  0.00  0.00    +0.000 NA
ATOM     22  C   UNL     1      48.013   2.759  16.122  0.00  0.00    +0.000 A 
BRANCH  20  23
ATOM     23  O   UNL     1      46.871   4.597  13.275  0.00  0.00    +0.000 OA
BRANCH  23  24
ATOM     24  C   UNL     1      45.495   4.228  13.121  0.00  0.00    +0.000 C 
ATOM     25  C   UNL     1      44.592   5.453  12.920  0.00  0.00    +0.000 C 
ATOM     26  C   UNL     1      43.150   4.968  12.931  0.00  0.00    +0.000 C 
ATOM     27  C   UNL     1      42.918   3.900  11.856  0.00  0.00    +0.000 C 
ATOM     28  N   UNL     1      43.901   2.812  11.874  0.00  0.00    +0.000 NA
ATOM     29  C   UNL     1      45.288   3.306  11.909  0.00  0.00    +0.000 C 
ATOM     30  H   UNL     1      43.767   2.215  11.059  0.00  0.00    +0.000 HD
ENDBRANCH  23  24
ENDBRANCH  20  23
ENDBRANCH  16  17
ENDBRANCH   3  16
TORSDOF 5
ENDMDL
MODEL 9
REMARK VINA RESULT:    -6.627      2.635      9.013
REMARK INTER + INTRA:          -8.499
REMARK INTER:                  -8.393
REMARK INTRA:                  -0.106
REMARK UNBOUND:                 0.065
REMARK  Name = 
REMARK  6 active torsions:
REMARK  status: ('A' for Active; 'I' for Inactive)
REMARK    1  A    between atoms: C_1  and  N_2
REMARK    2  A    between atoms: C_8  and  C_9
REMARK    3  A    between atoms: N_11  and  C_12
REMARK    4  A    between atoms: C_12  and  C_13
REMARK    5  A    between atoms: C_16  and  O_17
REMARK    6  A    between atoms: O_17  and  C_18
REMARK                            x       y       z     vdW  Elec       q    Type
REMARK                         _______ _______ _______ _____ _____    ______ ____
ROOT
ATOM      1  C   UNL     1      45.166   6.631  11.475  0.00  0.00    +0.000 C 
ATOM      2  O   UNL     1      44.415   7.603  11.423  0.00  0.00    +0.000 OA
ATOM      3  N   UNL     1      46.510   6.750  11.733  0.00  0.00    +0.000 N 
ATOM      4  H   UNL     1      47.101   5.933  11.639  0.00  0.00    +0.000 HD
ENDROOT
BRANCH   1  12
ATOM      5  C   UNL     1      46.219   3.445   6.850  0.00  0.00    +0.000 C 
ATOM      6  N   UNL     1      45.515   3.373   8.113  0.00  0.00    +0.000 N 
ATOM      7  C   UNL     1      44.824   2.232   8.469  0.00  0.00    +0.000 A 
ATOM      8  N   UNL     1      44.173   2.065   9.575  0.00  0.00    +0.000 NA
ATOM      9  C   UNL     1      44.201   3.131  10.411  0.00  0.00    +0.000 A 
ATOM     10  S   UNL     1      43.361   3.103  11.892  0.00  0.00    +0.000 S 
ATOM     11  C   UNL     1      43.847   4.696  12.263  0.00  0.00    +0.000 A 
ATOM     12  C   UNL     1      44.668   5.263  11.298  0.00  0.00    +0.000 A 
ATOM     13  C   UNL     1      44.858   4.329  10.210  0.00  0.00    +0.000 A 
ATOM     14  C   UNL     1      45.596   4.470   8.965  0.00  0.00    +0.000 A 
ATOM     15  O   UNL     1      46.264   5.467   8.701  0.00  0.00    +0.000 OA
ENDBRANCH   1  12
BRANCH   3  16
ATOM     16  C   UNL     1      47.179   8.021  11.815  0.00  0.00    +0.000 C 
BRANCH  16  17
ATOM     17  C   UNL     1      48.095   8.090  13.005  0.00  0.00    +0.000 A 
ATOM     18  C   UNL     1      49.426   7.665  12.941  0.00  0.00    +0.000 A 
ATOM     19  C   UNL     1      50.252   7.776  14.059  0.00  0.00    +0.000 A 
ATOM     20  C   UNL     1      49.718   8.340  15.202  0.00  0.00    +0.000 A 
ATOM     21  N   UNL     1      48.431   8.741  15.301  0.00  0.00    +0.000 NA
ATOM     22  C   UNL     1      47.654   8.621  14.208  0.00  0.00    +0.000 A 
BRANCH  20  23
ATOM     23  O   UNL     1      50.555   8.508  16.296  0.00  0.00    +0.000 OA
BRANCH  23  24
ATOM     24  C   UNL     1      50.578   7.323  17.101  0.00  0.00    +0.000 C 
ATOM     25  C   UNL     1      49.201   6.647  17.165  0.00  0.00    +0.000 C 
ATOM     26  C   UNL     1      49.296   5.504  18.166  0.00  0.00    +0.000 C 
ATOM     27  C   UNL     1      50.403   4.518  17.776  0.00  0.00    +0.000 C 
ATOM     28  N   UNL     1      51.693   5.154  17.489  0.00  0.00    +0.000 NA
ATOM     29  C   UNL     1      51.570   6.284  16.554  0.00  0.00    +0.000 C 
ATOM     30  H   UNL     1      52.340   4.462  17.111  0.00  0.00    +0.000 HD
ENDBRANCH  23  24
ENDBRANCH  20  23
ENDBRANCH  16  17
ENDBRANCH   3  16
TORSDOF 5
ENDMDL
