MODEL 1
REMARK VINA RESULT:    -7.734      0.000      0.000
REMARK INTER + INTRA:         -13.312
REMARK INTER:                 -12.029
REMARK INTRA:                  -1.283
REMARK UNBOUND:                -1.283
REMARK  Name = 
REMARK  11 active torsions:
REMARK  status: ('A' for Active; 'I' for Inactive)
REMARK    1  A    between atoms: C_1  and  C_2
REMARK    2  A    between atoms: C_2  and  C_3
REMARK    3  A    between atoms: C_3  and  N_4
REMARK    4  A    between atoms: C_3  and  C_21
REMARK    5  A    between atoms: N_4  and  C_5
REMARK    6  A    between atoms: C_5  and  C_6
REMARK    7  A    between atoms: C_9  and  C_10
REMARK    8  A    between atoms: C_10  and  O_11
REMARK    9  A    between atoms: C_10  and  C_12
REMARK   10  A    between atoms: C_12  and  N_13
REMARK   11  A    between atoms: N_13  and  C_14
REMARK                            x       y       z     vdW  Elec       q    Type
REMARK                         _______ _______ _______ _____ _____    ______ ____
ROOT
ATOM      1  C   UNL     1      46.290   4.934  13.016  0.00  0.00    +0.000 A 
ATOM      2  C   UNL     1      46.051   5.803  11.948  0.00  0.00    +0.000 A 
ATOM      3  C   UNL     1      45.325   5.355  10.849  0.00  0.00    +0.000 A 
ATOM      4  C   UNL     1      44.869   4.042  10.841  0.00  0.00    +0.000 A 
ATOM      5  N   UNL     1      45.146   3.159  11.838  0.00  0.00    +0.000 NA
ATOM      6  C   UNL     1      45.815   3.634  12.907  0.00  0.00    +0.000 A 
ENDROOT
BRANCH   1   7
ATOM      7  C   UNL     1      46.988   5.411  14.257  0.00  0.00    +0.000 C 
BRANCH   7   8
ATOM      8  N   UNL     1      46.813   4.490  15.375  0.00  0.00    +0.000 NA
ATOM      9  H   UNL     1      46.064   4.818  15.978  0.00  0.00    +0.000 HD
BRANCH   8  10
ATOM     10  C   UNL     1      48.017   4.283  16.196  0.00  0.00    +0.000 C 
BRANCH  10  11
ATOM     11  C   UNL     1      48.043   5.333  17.304  0.00  0.00    +0.000 A 
ATOM     12  C   UNL     1      47.311   5.237  18.480  0.00  0.00    +0.000 A 
ATOM     13  S   UNL     1      47.454   6.598  19.498  0.00  0.00    +0.000 S 
ATOM     14  C   UNL     1      48.522   7.364  18.411  0.00  0.00    +0.000 A 
ATOM     15  N   UNL     1      49.024   8.592  18.694  0.00  0.00    +0.000 NA
ATOM     16  C   UNL     1      49.814   9.058  17.785  0.00  0.00    +0.000 A 
ATOM     17  N   UNL     1      50.153   8.402  16.629  0.00  0.00    +0.000 N 
ATOM     18  C   UNL     1      49.690   7.143  16.311  0.00  0.00    +0.000 A 
ATOM     19  O   UNL     1      50.072   6.558  15.305  0.00  0.00    +0.000 OA
ATOM     20  C   UNL     1      48.774   6.585  17.295  0.00  0.00    +0.000 A 
ATOM     21  H   UNL     1      50.799   8.815  15.974  0.00  0.00    +0.000 HD
ENDBRANCH  10  11
BRANCH  10  23
ATOM     22  C   UNL     1      49.591   2.447  17.159  0.00  0.00    +0.000 C 
ATOM     23  C   UNL     1      48.180   2.837  16.731  0.00  0.00    +0.000 C 
ENDBRANCH  10  23
ENDBRANCH   8  10
ENDBRANCH   7   8
ENDBRANCH   1   7
BRANCH   4  24
ATOM     24  C   UNL     1      44.025   3.521   9.691  0.00  0.00    +0.000 C 
BRANCH  24  25
ATOM     25  O   UNL     1      43.994   4.506   8.650  0.00  0.00    +0.000 OA
ATOM     26  H   UNL     1      43.502   5.260   9.031  0.00  0.00    +0.000 HD
ENDBRANCH  24  25
BRANCH  24  27
ATOM     27  C   UNL     1      44.602   2.199   9.126  0.00  0.00    +0.000 C 
BRANCH  27  28
ATOM     28  N   UNL     1      46.026   2.305   8.784  0.00  0.00    +0.000 NA
ATOM     29  H   UNL     1      46.561   1.632   9.332  0.00  0.00    +0.000 HD
BRANCH  28  30
ATOM     30  C   UNL     1      46.320   2.113   7.366  0.00  0.00    +0.000 C 
ATOM     31  C   UNL     1      46.639   3.356   6.547  0.00  0.00    +0.000 C 
ATOM     32  C   UNL     1      47.412   2.762   5.383  0.00  0.00    +0.000 C 
ATOM     33  N   UNL     1      48.308   1.776   5.999  0.00  0.00    +0.000 NA
ATOM     34  C   UNL     1      47.590   1.261   7.181  0.00  0.00    +0.000 C 
ATOM     35  H   UNL     1      49.132   2.275   6.342  0.00  0.00    +0.000 HD
ENDBRANCH  28  30
ENDBRANCH  27  28
ENDBRANCH  24  27
ENDBRANCH   4  24
TORSDOF 10
ENDMDL
MODEL 2
REMARK VINA RESULT:    -7.652      2.638      3.904
REMARK INTER + INTRA:         -13.185
REMARK INTER:                 -12.148
REMARK INTRA:                  -1.037
REMARK UNBOUND:                -1.283
REMARK  Name = 
REMARK  11 active torsions:
REMARK  status: ('A' for Active; 'I' for Inactive)
REMARK    1  A    between atoms: C_1  and  C_2
REMARK    2  A    between atoms: C_2  and  C_3
REMARK    3  A    between atoms: C_3  and  N_4
REMARK    4  A    between atoms: C_3  and  C_21
REMARK    5  A    between atoms: N_4  and  C_5
REMARK    6  A    between atoms: C_5  and  C_6
REMARK    7  A    between atoms: C_9  and  C_10
REMARK    8  A    between atoms: C_10  and  O_11
REMARK    9  A    between atoms: C_10  and  C_12
REMARK   10  A    between atoms: C_12  and  N_13
REMARK   11  A    between atoms: N_13  and  C_14
REMARK                            x       y       z     vdW  Elec       q    Type
REMARK                         _______ _______ _______ _____ _____    ______ ____
ROOT
ATOM      1  C   UNL     1      47.059   5.749  13.948  0.00  0.00    +0.000 A 
ATOM      2  C   UNL     1      46.312   6.724  13.283  0.00  0.00    +0.000 A 
ATOM      3  C   UNL     1      45.048   6.406  12.794  0.00  0.00    +0.000 A 
ATOM      4  C   UNL     1      44.571   5.113  12.971  0.00  0.00    +0.000 A 
ATOM      5  N   UNL     1      45.306   4.129  13.555  0.00  0.00    +0.000 NA
ATOM      6  C   UNL     1      46.507   4.478  14.056  0.00  0.00    +0.000 A 
ENDROOT
BRANCH   1   7
ATOM      7  C   UNL     1      48.383   6.082  14.569  0.00  0.00    +0.000 C 
BRANCH   7   8
ATOM      8  N   UNL     1      48.313   6.124  16.026  0.00  0.00    +0.000 NA
ATOM      9  H   UNL     1      49.086   6.673  16.392  0.00  0.00    +0.000 HD
BRANCH   8  10
ATOM     10  C   UNL     1      48.323   4.806  16.681  0.00  0.00    +0.000 C 
BRANCH  10  11
ATOM     11  C   UNL     1      49.668   4.612  17.376  0.00  0.00    +0.000 A 
ATOM     12  C   UNL     1      50.332   5.613  18.073  0.00  0.00    +0.000 A 
ATOM     13  S   UNL     1      51.862   5.147  18.665  0.00  0.00    +0.000 S 
ATOM     14  C   UNL     1      51.687   3.574  18.028  0.00  0.00    +0.000 A 
ATOM     15  N   UNL     1      52.674   2.656  18.188  0.00  0.00    +0.000 NA
ATOM     16  C   UNL     1      52.415   1.510  17.652  0.00  0.00    +0.000 A 
ATOM     17  N   UNL     1      51.258   1.200  16.983  0.00  0.00    +0.000 N 
ATOM     18  C   UNL     1      50.219   2.090  16.818  0.00  0.00    +0.000 A 
ATOM     19  O   UNL     1      49.171   1.755  16.279  0.00  0.00    +0.000 OA
ATOM     20  C   UNL     1      50.473   3.407  17.384  0.00  0.00    +0.000 A 
ATOM     21  H   UNL     1      51.111   0.274  16.612  0.00  0.00    +0.000 HD
ENDBRANCH  10  11
BRANCH  10  23
ATOM     22  C   UNL     1      46.905   5.600  18.716  0.00  0.00    +0.000 C 
ATOM     23  C   UNL     1      47.116   4.556  17.622  0.00  0.00    +0.000 C 
ENDBRANCH  10  23
ENDBRANCH   8  10
ENDBRANCH   7   8
ENDBRANCH   1   7
BRANCH   4  24
ATOM     24  C   UNL     1      43.176   4.730  12.505  0.00  0.00    +0.000 C 
BRANCH  24  25
ATOM     25  O   UNL     1      42.392   5.920  12.351  0.00  0.00    +0.000 OA
ATOM     26  H   UNL     1      41.602   5.776  12.909  0.00  0.00    +0.000 HD
ENDBRANCH  24  25
BRANCH  24  27
ATOM     27  C   UNL     1      43.224   3.971  11.156  0.00  0.00    +0.000 C 
BRANCH  27  28
ATOM     28  N   UNL     1      44.223   2.895  11.148  0.00  0.00    +0.000 NA
ATOM     29  H   UNL     1      43.755   1.992  11.090  0.00  0.00    +0.000 HD
BRANCH  28  30
ATOM     30  C   UNL     1      45.208   2.997  10.074  0.00  0.00    +0.000 C 
ATOM     31  C   UNL     1      45.002   2.107   8.855  0.00  0.00    +0.000 C 
ATOM     32  C   UNL     1      45.794   2.856   7.797  0.00  0.00    +0.000 C 
ATOM     33  N   UNL     1      45.453   4.268   8.010  0.00  0.00    +0.000 NA
ATOM     34  C   UNL     1      45.201   4.409   9.457  0.00  0.00    +0.000 C 
ATOM     35  H   UNL     1      44.568   4.450   7.533  0.00  0.00    +0.000 HD
ENDBRANCH  28  30
ENDBRANCH  27  28
ENDBRANCH  24  27
ENDBRANCH   4  24
TORSDOF 10
ENDMDL
MODEL 3
REMARK VINA RESULT:    -7.325      2.317      3.512
REMARK INTER + INTRA:         -12.676
REMARK INTER:                 -11.336
REMARK INTRA:                  -1.340
REMARK UNBOUND:                -1.283
REMARK  Name = 
REMARK  11 active torsions:
REMARK  status: ('A' for Active; 'I' for Inactive)
REMARK    1  A    between atoms: C_1  and  C_2
REMARK    2  A    between atoms: C_2  and  C_3
REMARK    3  A    between atoms: C_3  and  N_4
REMARK    4  A    between atoms: C_3  and  C_21
REMARK    5  A    between atoms: N_4  and  C_5
REMARK    6  A    between atoms: C_5  and  C_6
REMARK    7  A    between atoms: C_9  and  C_10
REMARK    8  A    between atoms: C_10  and  O_11
REMARK    9  A    between atoms: C_10  and  C_12
REMARK   10  A    between atoms: C_12  and  N_13
REMARK   11  A    between atoms: N_13  and  C_14
REMARK                            x       y       z     vdW  Elec       q    Type
REMARK                         _______ _______ _______ _____ _____    ______ ____
ROOT
ATOM      1  C   UNL     1      47.253   6.145  13.517  0.00  0.00    +0.000 A 
ATOM      2  C   UNL     1      46.232   6.853  12.878  0.00  0.00    +0.000 A 
ATOM      3  C   UNL     1      44.978   6.268  12.731  0.00  0.00    +0.000 A 
ATOM      4  C   UNL     1      44.783   4.980  13.215  0.00  0.00    +0.000 A 
ATOM      5  N   UNL     1      45.779   4.245  13.781  0.00  0.00    +0.000 NA
ATOM      6  C   UNL     1      46.969   4.855  13.947  0.00  0.00    +0.000 A 
ENDROOT
BRANCH   1   7
ATOM      7  C   UNL     1      48.587   6.781  13.777  0.00  0.00    +0.000 C 
BRANCH   7   8
ATOM      8  N   UNL     1      49.237   6.232  14.962  0.00  0.00    +0.000 NA
ATOM      9  H   UNL     1      48.564   5.708  15.513  0.00  0.00    +0.000 HD
BRANCH   8  10
ATOM     10  C   UNL     1      49.877   7.232  15.832  0.00  0.00    +0.000 C 
BRANCH  10  11
ATOM     11  C   UNL     1      49.187   7.213  17.193  0.00  0.00    +0.000 A 
ATOM     12  C   UNL     1      48.567   8.318  17.763  0.00  0.00    +0.000 A 
ATOM     13  S   UNL     1      47.964   8.040  19.334  0.00  0.00    +0.000 S 
ATOM     14  C   UNL     1      48.490   6.417  19.305  0.00  0.00    +0.000 A 
ATOM     15  N   UNL     1      48.280   5.609  20.375  0.00  0.00    +0.000 NA
ATOM     16  C   UNL     1      48.733   4.410  20.223  0.00  0.00    +0.000 A 
ATOM     17  N   UNL     1      49.366   3.947  19.097  0.00  0.00    +0.000 N 
ATOM     18  C   UNL     1      49.579   4.722  17.977  0.00  0.00    +0.000 A 
ATOM     19  O   UNL     1      50.081   4.254  16.963  0.00  0.00    +0.000 OA
ATOM     20  C   UNL     1      49.107   6.092  18.109  0.00  0.00    +0.000 A 
ATOM     21  H   UNL     1      49.672   2.988  19.037  0.00  0.00    +0.000 HD
ENDBRANCH  10  11
BRANCH  10  23
ATOM     22  C   UNL     1      52.226   7.962  14.977  0.00  0.00    +0.000 C 
ATOM     23  C   UNL     1      51.419   7.090  15.935  0.00  0.00    +0.000 C 
ENDBRANCH  10  23
ENDBRANCH   8  10
ENDBRANCH   7   8
ENDBRANCH   1   7
BRANCH   4  24
ATOM     24  C   UNL     1      43.419   4.317  13.129  0.00  0.00    +0.000 C 
BRANCH  24  25
ATOM     25  O   UNL     1      42.409   5.332  13.076  0.00  0.00    +0.000 OA
ATOM     26  H   UNL     1      42.788   6.037  12.513  0.00  0.00    +0.000 HD
ENDBRANCH  24  25
BRANCH  24  27
ATOM     27  C   UNL     1      43.309   3.421  11.871  0.00  0.00    +0.000 C 
BRANCH  27  28
ATOM     28  N   UNL     1      44.591   2.807  11.501  0.00  0.00    +0.000 NA
ATOM     29  H   UNL     1      44.496   1.792  11.493  0.00  0.00    +0.000 HD
BRANCH  28  30
ATOM     30  C   UNL     1      45.121   3.251  10.214  0.00  0.00    +0.000 C 
ATOM     31  C   UNL     1      45.160   2.228   9.087  0.00  0.00    +0.000 C 
ATOM     32  C   UNL     1      45.195   3.127   7.863  0.00  0.00    +0.000 C 
ATOM     33  N   UNL     1      44.218   4.184   8.153  0.00  0.00    +0.000 NA
ATOM     34  C   UNL     1      44.243   4.368   9.617  0.00  0.00    +0.000 C 
ATOM     35  H   UNL     1      43.291   3.826   7.912  0.00  0.00    +0.000 HD
ENDBRANCH  28  30
ENDBRANCH  27  28
ENDBRANCH  24  27
ENDBRANCH   4  24
TORSDOF 10
ENDMDL
MODEL 4
REMARK VINA RESULT:    -7.113      2.054      3.152
REMARK INTER + INTRA:         -12.347
REMARK INTER:                 -11.037
REMARK INTRA:                  -1.310
REMARK UNBOUND:                -1.283
REMARK  Name = 
REMARK  11 active torsions:
REMARK  status: ('A' for Active; 'I' for Inactive)
REMARK    1  A    between atoms: C_1  and  C_2
REMARK    2  A    between atoms: C_2  and  C_3
REMARK    3  A    between atoms: C_3  and  N_4
REMARK    4  A    between atoms: C_3  and  C_21
REMARK    5  A    between atoms: N_4  and  C_5
REMARK    6  A    between atoms: C_5  and  C_6
REMARK    7  A    between atoms: C_9  and  C_10
REMARK    8  A    between atoms: C_10  and  O_11
REMARK    9  A    between atoms: C_10  and  C_12
REMARK   10  A    between atoms: C_12  and  N_13
REMARK   11  A    between atoms: N_13  and  C_14
REMARK                            x       y       z     vdW  Elec       q    Type
REMARK                         _______ _______ _______ _____ _____    ______ ____
ROOT
ATOM      1  C   UNL     1      45.940   7.030  12.388  0.00  0.00    +0.000 A 
ATOM      2  C   UNL     1      46.426   6.659  11.132  0.00  0.00    +0.000 A 
ATOM      3  C   UNL     1      45.758   5.685  10.397  0.00  0.00    +0.000 A 
ATOM      4  C   UNL     1      44.626   5.094  10.947  0.00  0.00    +0.000 A 
ATOM      5  N   UNL     1      44.172   5.390  12.195  0.00  0.00    +0.000 NA
ATOM      6  C   UNL     1      44.815   6.367  12.864  0.00  0.00    +0.000 A 
ENDROOT
BRANCH   1   7
ATOM      7  C   UNL     1      46.580   8.142  13.167  0.00  0.00    +0.000 C 
BRANCH   7   8
ATOM      8  N   UNL     1      47.291   7.653  14.342  0.00  0.00    +0.000 NA
ATOM      9  H   UNL     1      46.943   8.120  15.175  0.00  0.00    +0.000 HD
BRANCH   8  10
ATOM     10  C   UNL     1      48.752   7.818  14.290  0.00  0.00    +0.000 C 
BRANCH  10  11
ATOM     11  C   UNL     1      49.338   7.447  15.650  0.00  0.00    +0.000 A 
ATOM     12  C   UNL     1      50.184   8.270  16.382  0.00  0.00    +0.000 A 
ATOM     13  S   UNL     1      50.767   7.564  17.820  0.00  0.00    +0.000 S 
ATOM     14  C   UNL     1      49.890   6.129  17.531  0.00  0.00    +0.000 A 
ATOM     15  N   UNL     1      49.960   5.095  18.408  0.00  0.00    +0.000 NA
ATOM     16  C   UNL     1      49.254   4.070  18.066  0.00  0.00    +0.000 A 
ATOM     17  N   UNL     1      48.479   3.992  16.936  0.00  0.00    +0.000 N 
ATOM     18  C   UNL     1      48.357   5.025  16.032  0.00  0.00    +0.000 A 
ATOM     19  O   UNL     1      47.599   4.946  15.072  0.00  0.00    +0.000 OA
ATOM     20  C   UNL     1      49.155   6.196  16.360  0.00  0.00    +0.000 A 
ATOM     21  H   UNL     1      47.931   3.167  16.744  0.00  0.00    +0.000 HD
ENDBRANCH  10  11
BRANCH  10  23
ATOM     22  C   UNL     1      49.979   7.954  11.997  0.00  0.00    +0.000 C 
ATOM     23  C   UNL     1      49.434   7.070  13.115  0.00  0.00    +0.000 C 
ENDBRANCH  10  23
ENDBRANCH   8  10
ENDBRANCH   7   8
ENDBRANCH   1   7
BRANCH   4  24
ATOM     24  C   UNL     1      43.829   4.066  10.163  0.00  0.00    +0.000 C 
BRANCH  24  25
ATOM     25  O   UNL     1      43.585   4.571   8.844  0.00  0.00    +0.000 OA
ATOM     26  H   UNL     1      43.302   3.792   8.324  0.00  0.00    +0.000 HD
ENDBRANCH  24  25
BRANCH  24  27
ATOM     27  C   UNL     1      44.593   2.723  10.063  0.00  0.00    +0.000 C 
BRANCH  27  28
ATOM     28  N   UNL     1      44.828   2.309   8.674  0.00  0.00    +0.000 NA
ATOM     29  H   UNL     1      44.226   2.844   8.049  0.00  0.00    +0.000 HD
BRANCH  28  30
ATOM     30  C   UNL     1      46.216   2.441   8.234  0.00  0.00    +0.000 C 
ATOM     31  C   UNL     1      46.833   1.249   7.515  0.00  0.00    +0.000 C 
ATOM     32  C   UNL     1      47.964   1.913   6.748  0.00  0.00    +0.000 C 
ATOM     33  N   UNL     1      47.373   3.145   6.210  0.00  0.00    +0.000 NA
ATOM     34  C   UNL     1      46.355   3.566   7.191  0.00  0.00    +0.000 C 
ATOM     35  H   UNL     1      46.879   2.903   5.349  0.00  0.00    +0.000 HD
ENDBRANCH  28  30
ENDBRANCH  27  28
ENDBRANCH  24  27
ENDBRANCH   4  24
TORSDOF 10
ENDMDL
MODEL 5
REMARK VINA RESULT:    -7.107      2.404      3.532
REMARK INTER + INTRA:         -12.338
REMARK INTER:                 -10.795
REMARK INTRA:                  -1.543
REMARK UNBOUND:                -1.283
REMARK  Name = 
REMARK  11 active torsions:
REMARK  status: ('A' for Active; 'I' for Inactive)
REMARK    1  A    between atoms: C_1  and  C_2
REMARK    2  A    between atoms: C_2  and  C_3
REMARK    3  A    between atoms: C_3  and  N_4
REMARK    4  A    between atoms: C_3  and  C_21
REMARK    5  A    between atoms: N_4  and  C_5
REMARK    6  A    between atoms: C_5  and  C_6
REMARK    7  A    between atoms: C_9  and  C_10
REMARK    8  A    between atoms: C_10  and  O_11
REMARK    9  A    between atoms: C_10  and  C_12
REMARK   10  A    between atoms: C_12  and  N_13
REMARK   11  A    between atoms: N_13  and  C_14
REMARK                            x       y       z     vdW  Elec       q    Type
REMARK                         _______ _______ _______ _____ _____    ______ ____
ROOT
ATOM      1  C   UNL     1      47.272   6.364  13.099  0.00  0.00    +0.000 A 
ATOM      2  C   UNL     1      47.164   4.990  13.327  0.00  0.00    +0.000 A 
ATOM      3  C   UNL     1      45.914   4.381  13.270  0.00  0.00    +0.000 A 
ATOM      4  C   UNL     1      44.801   5.168  13.001  0.00  0.00    +0.000 A 
ATOM      5  N   UNL     1      44.872   6.517  12.842  0.00  0.00    +0.000 NA
ATOM      6  C   UNL     1      46.100   7.071  12.860  0.00  0.00    +0.000 A 
ENDROOT
BRANCH   1   7
ATOM      7  C   UNL     1      48.613   7.037  13.059  0.00  0.00    +0.000 C 
BRANCH   7   8
ATOM      8  N   UNL     1      49.415   6.738  14.240  0.00  0.00    +0.000 NA
ATOM      9  H   UNL     1      49.687   5.759  14.233  0.00  0.00    +0.000 HD
BRANCH   8  10
ATOM     10  C   UNL     1      48.755   7.031  15.523  0.00  0.00    +0.000 C 
BRANCH  10  11
ATOM     11  C   UNL     1      49.093   5.921  16.515  0.00  0.00    +0.000 A 
ATOM     12  C   UNL     1      48.144   5.109  17.123  0.00  0.00    +0.000 A 
ATOM     13  S   UNL     1      48.793   4.018  18.262  0.00  0.00    +0.000 S 
ATOM     14  C   UNL     1      50.379   4.576  17.969  0.00  0.00    +0.000 A 
ATOM     15  N   UNL     1      51.428   4.041  18.643  0.00  0.00    +0.000 NA
ATOM     16  C   UNL     1      52.570   4.557  18.331  0.00  0.00    +0.000 A 
ATOM     17  N   UNL     1      52.754   5.549  17.401  0.00  0.00    +0.000 N 
ATOM     18  C   UNL     1      51.723   6.103  16.673  0.00  0.00    +0.000 A 
ATOM     19  O   UNL     1      51.934   6.935  15.799  0.00  0.00    +0.000 OA
ATOM     20  C   UNL     1      50.410   5.571  17.008  0.00  0.00    +0.000 A 
ATOM     21  H   UNL     1      53.679   5.887  17.187  0.00  0.00    +0.000 HD
ENDBRANCH  10  11
BRANCH  10  23
ATOM     22  C   UNL     1      48.436   8.764  17.440  0.00  0.00    +0.000 C 
ATOM     23  C   UNL     1      49.050   8.448  16.079  0.00  0.00    +0.000 C 
ENDBRANCH  10  23
ENDBRANCH   8  10
ENDBRANCH   7   8
ENDBRANCH   1   7
BRANCH   4  24
ATOM     24  C   UNL     1      43.422   4.543  12.874  0.00  0.00    +0.000 C 
BRANCH  24  25
ATOM     25  O   UNL     1      42.429   5.555  13.087  0.00  0.00    +0.000 OA
ATOM     26  H   UNL     1      42.114   5.410  14.001  0.00  0.00    +0.000 HD
ENDBRANCH  24  25
BRANCH  24  27
ATOM     27  C   UNL     1      43.219   3.915  11.473  0.00  0.00    +0.000 C 
BRANCH  27  28
ATOM     28  N   UNL     1      43.731   4.766  10.392  0.00  0.00    +0.000 NA
ATOM     29  H   UNL     1      44.483   5.357  10.746  0.00  0.00    +0.000 HD
BRANCH  28  30
ATOM     30  C   UNL     1      44.208   4.031   9.222  0.00  0.00    +0.000 C 
ATOM     31  C   UNL     1      45.554   4.444   8.643  0.00  0.00    +0.000 C 
ATOM     32  C   UNL     1      45.960   3.185   7.895  0.00  0.00    +0.000 C 
ATOM     33  N   UNL     1      45.615   2.086   8.805  0.00  0.00    +0.000 NA
ATOM     34  C   UNL     1      44.437   2.546   9.565  0.00  0.00    +0.000 C 
ATOM     35  H   UNL     1      46.382   1.983   9.473  0.00  0.00    +0.000 HD
ENDBRANCH  28  30
ENDBRANCH  27  28
ENDBRANCH  24  27
ENDBRANCH   4  24
TORSDOF 10
ENDMDL
MODEL 6
REMARK VINA RESULT:    -6.815      2.706      4.164
REMARK INTER + INTRA:         -11.882
REMARK INTER:                 -10.855
REMARK INTRA:                  -1.028
REMARK UNBOUND:                -1.283
REMARK  Name = 
REMARK  11 active torsions:
REMARK  status: ('A' for Active; 'I' for Inactive)
REMARK    1  A    between atoms: C_1  and  C_2
REMARK    2  A    between atoms: C_2  and  C_3
REMARK    3  A    between atoms: C_3  and  N_4
REMARK    4  A    between atoms: C_3  and  C_21
REMARK    5  A    between atoms: N_4  and  C_5
REMARK    6  A    between atoms: C_5  and  C_6
REMARK    7  A    between atoms: C_9  and  C_10
REMARK    8  A    between atoms: C_10  and  O_11
REMARK    9  A    between atoms: C_10  and  C_12
REMARK   10  A    between atoms: C_12  and  N_13
REMARK   11  A    between atoms: N_13  and  C_14
REMARK                            x       y       z     vdW  Elec       q    Type
REMARK                         _______ _______ _______ _____ _____    ______ ____
ROOT
ATOM      1  C   UNL     1      47.275   6.519  13.011  0.00  0.00    +0.000 A 
ATOM      2  C   UNL     1      47.268   5.171  13.377  0.00  0.00    +0.000 A 
ATOM      3  C   UNL     1      46.063   4.476  13.413  0.00  0.00    +0.000 A 
ATOM      4  C   UNL     1      44.892   5.154  13.096  0.00  0.00    +0.000 A 
ATOM      5  N   UNL     1      44.865   6.482  12.802  0.00  0.00    +0.000 NA
ATOM      6  C   UNL     1      46.052   7.117  12.734  0.00  0.00    +0.000 A 
ENDROOT
BRANCH   1   7
ATOM      7  C   UNL     1      48.564   7.274  12.871  0.00  0.00    +0.000 C 
BRANCH   7   8
ATOM      8  N   UNL     1      49.605   6.755  13.751  0.00  0.00    +0.000 NA
ATOM      9  H   UNL     1      49.259   5.942  14.252  0.00  0.00    +0.000 HD
BRANCH   8  10
ATOM     10  C   UNL     1      50.123   7.724  14.731  0.00  0.00    +0.000 C 
BRANCH  10  11
ATOM     11  C   UNL     1      50.979   6.980  15.752  0.00  0.00    +0.000 A 
ATOM     12  C   UNL     1      52.351   7.151  15.886  0.00  0.00    +0.000 A 
ATOM     13  S   UNL     1      53.069   6.121  17.040  0.00  0.00    +0.000 S 
ATOM     14  C   UNL     1      51.563   5.418  17.425  0.00  0.00    +0.000 A 
ATOM     15  N   UNL     1      51.484   4.439  18.362  0.00  0.00    +0.000 NA
ATOM     16  C   UNL     1      50.288   3.991  18.551  0.00  0.00    +0.000 A 
ATOM     17  N   UNL     1      49.169   4.440  17.896  0.00  0.00    +0.000 N 
ATOM     18  C   UNL     1      49.197   5.449  16.957  0.00  0.00    +0.000 A 
ATOM     19  O   UNL     1      48.167   5.874  16.447  0.00  0.00    +0.000 OA
ATOM     20  C   UNL     1      50.529   5.971  16.690  0.00  0.00    +0.000 A 
ATOM     21  H   UNL     1      48.260   4.062  18.114  0.00  0.00    +0.000 HD
ENDBRANCH  10  11
BRANCH  10  23
ATOM     22  C   UNL     1      51.759   8.617  12.913  0.00  0.00    +0.000 C 
ATOM     23  C   UNL     1      50.854   8.937  14.099  0.00  0.00    +0.000 C 
ENDBRANCH  10  23
ENDBRANCH   8  10
ENDBRANCH   7   8
ENDBRANCH   1   7
BRANCH   4  24
ATOM     24  C   UNL     1      43.559   4.428  13.066  0.00  0.00    +0.000 C 
BRANCH  24  25
ATOM     25  O   UNL     1      42.535   5.309  13.546  0.00  0.00    +0.000 OA
ATOM     26  H   UNL     1      42.868   5.637  14.405  0.00  0.00    +0.000 HD
ENDBRANCH  24  25
BRANCH  24  27
ATOM     27  C   UNL     1      43.203   3.967  11.631  0.00  0.00    +0.000 C 
BRANCH  27  28
ATOM     28  N   UNL     1      43.940   2.763  11.225  0.00  0.00    +0.000 NA
ATOM     29  H   UNL     1      43.284   2.041  10.931  0.00  0.00    +0.000 HD
BRANCH  28  30
ATOM     30  C   UNL     1      44.918   2.987  10.162  0.00  0.00    +0.000 C 
ATOM     31  C   UNL     1      44.725   2.213   8.865  0.00  0.00    +0.000 C 
ATOM     32  C   UNL     1      45.495   3.074   7.881  0.00  0.00    +0.000 C 
ATOM     33  N   UNL     1      45.126   4.453   8.227  0.00  0.00    +0.000 NA
ATOM     34  C   UNL     1      44.878   4.451   9.682  0.00  0.00    +0.000 C 
ATOM     35  H   UNL     1      44.236   4.660   7.771  0.00  0.00    +0.000 HD
ENDBRANCH  28  30
ENDBRANCH  27  28
ENDBRANCH  24  27
ENDBRANCH   4  24
TORSDOF 10
ENDMDL
MODEL 7
REMARK VINA RESULT:    -6.457      3.749      5.617
REMARK INTER + INTRA:         -11.326
REMARK INTER:                 -10.051
REMARK INTRA:                  -1.275
REMARK UNBOUND:                -1.283
REMARK  Name = 
REMARK  11 active torsions:
REMARK  status: ('A' for Active; 'I' for Inactive)
REMARK    1  A    between atoms: C_1  and  C_2
REMARK    2  A    between atoms: C_2  and  C_3
REMARK    3  A    between atoms: C_3  and  N_4
REMARK    4  A    between atoms: C_3  and  C_21
REMARK    5  A    between atoms: N_4  and  C_5
REMARK    6  A    between atoms: C_5  and  C_6
REMARK    7  A    between atoms: C_9  and  C_10
REMARK    8  A    between atoms: C_10  and  O_11
REMARK    9  A    between atoms: C_10  and  C_12
REMARK   10  A    between atoms: C_12  and  N_13
REMARK   11  A    between atoms: N_13  and  C_14
REMARK                            x       y       z     vdW  Elec       q    Type
REMARK                         _______ _______ _______ _____ _____    ______ ____
ROOT
ATOM      1  C   UNL     1      48.893   7.317  14.592  0.00  0.00    +0.000 A 
ATOM      2  C   UNL     1      48.336   6.331  13.775  0.00  0.00    +0.000 A 
ATOM      3  C   UNL     1      47.168   6.603  13.068  0.00  0.00    +0.000 A 
ATOM      4  C   UNL     1      46.580   7.854  13.210  0.00  0.00    +0.000 A 
ATOM      5  N   UNL     1      47.065   8.807  14.050  0.00  0.00    +0.000 NA
ATOM      6  C   UNL     1      48.219   8.529  14.688  0.00  0.00    +0.000 A 
ENDROOT
BRANCH   1   7
ATOM      7  C   UNL     1      50.200   7.091  15.293  0.00  0.00    +0.000 C 
BRANCH   7   8
ATOM      8  N   UNL     1      50.022   6.829  16.717  0.00  0.00    +0.000 NA
ATOM      9  H   UNL     1      50.875   7.060  17.219  0.00  0.00    +0.000 HD
BRANCH   8  10
ATOM     10  C   UNL     1      49.647   5.444  17.046  0.00  0.00    +0.000 C 
BRANCH  10  11
ATOM     11  C   UNL     1      50.841   4.752  17.697  0.00  0.00    +0.000 A 
ATOM     12  C   UNL     1      51.828   5.418  18.414  0.00  0.00    +0.000 A 
ATOM     13  S   UNL     1      53.096   4.411  18.947  0.00  0.00    +0.000 S 
ATOM     14  C   UNL     1      52.363   3.034  18.255  0.00  0.00    +0.000 A 
ATOM     15  N   UNL     1      52.958   1.818  18.355  0.00  0.00    +0.000 NA
ATOM     16  C   UNL     1      52.301   0.865  17.783  0.00  0.00    +0.000 A 
ATOM     17  N   UNL     1      51.102   1.018  17.133  0.00  0.00    +0.000 N 
ATOM     18  C   UNL     1      50.448   2.227  17.030  0.00  0.00    +0.000 A 
ATOM     19  O   UNL     1      49.344   2.313  16.506  0.00  0.00    +0.000 OA
ATOM     20  C   UNL     1      51.163   3.340  17.638  0.00  0.00    +0.000 A 
ATOM     21  H   UNL     1      50.630   0.223  16.731  0.00  0.00    +0.000 HD
ENDBRANCH  10  11
BRANCH  10  23
ATOM     22  C   UNL     1      47.847   6.615  18.519  0.00  0.00    +0.000 C 
ATOM     23  C   UNL     1      48.348   5.321  17.884  0.00  0.00    +0.000 C 
ENDBRANCH  10  23
ENDBRANCH   8  10
ENDBRANCH   7   8
ENDBRANCH   1   7
BRANCH   4  24
ATOM     24  C   UNL     1      45.336   8.220  12.418  0.00  0.00    +0.000 C 
BRANCH  24  25
ATOM     25  O   UNL     1      45.604   9.398  11.646  0.00  0.00    +0.000 OA
ATOM     26  H   UNL     1      45.025  10.087  12.028  0.00  0.00    +0.000 HD
ENDBRANCH  24  25
BRANCH  24  27
ATOM     27  C   UNL     1      44.917   7.071  11.468  0.00  0.00    +0.000 C 
BRANCH  27  28
ATOM     28  N   UNL     1      43.460   6.911  11.383  0.00  0.00    +0.000 NA
ATOM     29  H   UNL     1      43.126   7.275  10.492  0.00  0.00    +0.000 HD
BRANCH  28  30
ATOM     30  C   UNL     1      42.996   5.534  11.544  0.00  0.00    +0.000 C 
ATOM     31  C   UNL     1      43.776   4.448  10.817  0.00  0.00    +0.000 C 
ATOM     32  C   UNL     1      43.411   3.218  11.630  0.00  0.00    +0.000 C 
ATOM     33  N   UNL     1      43.482   3.664  13.027  0.00  0.00    +0.000 NA
ATOM     34  C   UNL     1      43.103   5.090  13.016  0.00  0.00    +0.000 C 
ATOM     35  H   UNL     1      44.459   3.615  13.320  0.00  0.00    +0.000 HD
ENDBRANCH  28  30
ENDBRANCH  27  28
ENDBRANCH  24  27
ENDBRANCH   4  24
TORSDOF 10
ENDMDL
MODEL 8
REMARK VINA RESULT:    -6.334      2.228      3.115
REMARK INTER + INTRA:         -11.135
REMARK INTER:                 -10.145
REMARK INTRA:                  -0.990
REMARK UNBOUND:                -1.283
REMARK  Name = 
REMARK  11 active torsions:
REMARK  status: ('A' for Active; 'I' for Inactive)
REMARK    1  A    between atoms: C_1  and  C_2
REMARK    2  A    between atoms: C_2  and  C_3
REMARK    3  A    between atoms: C_3  and  N_4
REMARK    4  A    between atoms: C_3  and  C_21
REMARK    5  A    between atoms: N_4  and  C_5
REMARK    6  A    between atoms: C_5  and  C_6
REMARK    7  A    between atoms: C_9  and  C_10
REMARK    8  A    between atoms: C_10  and  O_11
REMARK    9  A    between atoms: C_10  and  C_12
REMARK   10  A    between atoms: C_12  and  N_13
REMARK   11  A    between atoms: N_13  and  C_14
REMARK                            x       y       z     vdW  Elec       q    Type
REMARK                         _______ _______ _______ _____ _____    ______ ____
ROOT
ATOM      1  C   UNL     1      46.072   7.050  12.522  0.00  0.00    +0.000 A 
ATOM      2  C   UNL     1      46.549   6.642  11.274  0.00  0.00    +0.000 A 
ATOM      3  C   UNL     1      45.835   5.700  10.541  0.00  0.00    +0.000 A 
ATOM      4  C   UNL     1      44.667   5.178  11.084  0.00  0.00    +0.000 A 
ATOM      5  N   UNL     1      44.218   5.509  12.325  0.00  0.00    +0.000 NA
ATOM      6  C   UNL     1      44.908   6.455  12.992  0.00  0.00    +0.000 A 
ENDROOT
BRANCH   1   7
ATOM      7  C   UNL     1      46.765   8.132  13.297  0.00  0.00    +0.000 C 
BRANCH   7   8
ATOM      8  N   UNL     1      48.004   7.664  13.909  0.00  0.00    +0.000 NA
ATOM      9  H   UNL     1      47.889   6.708  14.232  0.00  0.00    +0.000 HD
BRANCH   8  10
ATOM     10  C   UNL     1      48.483   8.484  15.034  0.00  0.00    +0.000 C 
BRANCH  10  11
ATOM     11  C   UNL     1      48.676   7.583  16.251  0.00  0.00    +0.000 A 
ATOM     12  C   UNL     1      49.142   6.277  16.184  0.00  0.00    +0.000 A 
ATOM     13  S   UNL     1      49.166   5.470  17.686  0.00  0.00    +0.000 S 
ATOM     14  C   UNL     1      48.572   6.850  18.494  0.00  0.00    +0.000 A 
ATOM     15  N   UNL     1      48.358   6.820  19.834  0.00  0.00    +0.000 NA
ATOM     16  C   UNL     1      47.902   7.927  20.317  0.00  0.00    +0.000 A 
ATOM     17  N   UNL     1      47.652   9.059  19.583  0.00  0.00    +0.000 N 
ATOM     18  C   UNL     1      47.878   9.145  18.226  0.00  0.00    +0.000 A 
ATOM     19  O   UNL     1      47.713  10.195  17.617  0.00  0.00    +0.000 OA
ATOM     20  C   UNL     1      48.370   7.912  17.630  0.00  0.00    +0.000 A 
ATOM     21  H   UNL     1      47.320   9.899  20.031  0.00  0.00    +0.000 HD
ENDBRANCH  10  11
BRANCH  10  23
ATOM     22  C   UNL     1      50.297   9.177  13.299  0.00  0.00    +0.000 C 
ATOM     23  C   UNL     1      49.737   9.337  14.710  0.00  0.00    +0.000 C 
ENDBRANCH  10  23
ENDBRANCH   8  10
ENDBRANCH   7   8
ENDBRANCH   1   7
BRANCH   4  24
ATOM     24  C   UNL     1      43.822   4.188  10.301  0.00  0.00    +0.000 C 
BRANCH  24  25
ATOM     25  O   UNL     1      43.576   4.717   8.991  0.00  0.00    +0.000 OA
ATOM     26  H   UNL     1      43.258   3.955   8.467  0.00  0.00    +0.000 HD
ENDBRANCH  24  25
BRANCH  24  27
ATOM     27  C   UNL     1      44.534   2.819  10.174  0.00  0.00    +0.000 C 
BRANCH  27  28
ATOM     28  N   UNL     1      44.753   2.424   8.777  0.00  0.00    +0.000 NA
ATOM     29  H   UNL     1      44.186   3.006   8.162  0.00  0.00    +0.000 HD
BRANCH  28  30
ATOM     30  C   UNL     1      46.148   2.484   8.346  0.00  0.00    +0.000 C 
ATOM     31  C   UNL     1      46.709   1.261   7.633  0.00  0.00    +0.000 C 
ATOM     32  C   UNL     1      47.876   1.865   6.871  0.00  0.00    +0.000 C 
ATOM     33  N   UNL     1      47.352   3.124   6.328  0.00  0.00    +0.000 NA
ATOM     34  C   UNL     1      46.350   3.598   7.302  0.00  0.00    +0.000 C 
ATOM     35  H   UNL     1      46.852   2.905   5.464  0.00  0.00    +0.000 HD
ENDBRANCH  28  30
ENDBRANCH  27  28
ENDBRANCH  24  27
ENDBRANCH   4  24
TORSDOF 10
ENDMDL
MODEL 9
REMARK VINA RESULT:    -6.130      3.305      4.148
REMARK INTER + INTRA:         -10.817
REMARK INTER:                  -9.615
REMARK INTRA:                  -1.202
REMARK UNBOUND:                -1.283
REMARK  Name = 
REMARK  11 active torsions:
REMARK  status: ('A' for Active; 'I' for Inactive)
REMARK    1  A    between atoms: C_1  and  C_2
REMARK    2  A    between atoms: C_2  and  C_3
REMARK    3  A    between atoms: C_3  and  N_4
REMARK    4  A    between atoms: C_3  and  C_21
REMARK    5  A    between atoms: N_4  and  C_5
REMARK    6  A    between atoms: C_5  and  C_6
REMARK    7  A    between atoms: C_9  and  C_10
REMARK    8  A    between atoms: C_10  and  O_11
REMARK    9  A    between atoms: C_10  and  C_12
REMARK   10  A    between atoms: C_12  and  N_13
REMARK   11  A    between atoms: N_13  and  C_14
REMARK                            x       y       z     vdW  Elec       q    Type
REMARK                         _______ _______ _______ _____ _____    ______ ____
ROOT
ATOM      1  C   UNL     1      45.418   7.394  12.242  0.00  0.00    +0.000 A 
ATOM      2  C   UNL     1      46.118   6.934  11.124  0.00  0.00    +0.000 A 
ATOM      3  C   UNL     1      45.662   5.809  10.443  0.00  0.00    +0.000 A 
ATOM      4  C   UNL     1      44.522   5.165  10.909  0.00  0.00    +0.000 A 
ATOM      5  N   UNL     1      43.863   5.553  12.033  0.00  0.00    +0.000 NA
ATOM      6  C   UNL     1      44.303   6.669  12.645  0.00  0.00    +0.000 A 
ENDROOT
BRANCH   1   7
ATOM      7  C   UNL     1      45.826   8.656  12.943  0.00  0.00    +0.000 C 
BRANCH   7   8
ATOM      8  N   UNL     1      46.763   8.403  14.032  0.00  0.00    +0.000 NA
ATOM      9  H   UNL     1      46.881   9.245  14.588  0.00  0.00    +0.000 HD
BRANCH   8  10
ATOM     10  C   UNL     1      48.091   7.933  13.606  0.00  0.00    +0.000 C 
BRANCH  10  11
ATOM     11  C   UNL     1      49.085   9.084  13.737  0.00  0.00    +0.000 A 
ATOM     12  C   UNL     1      49.045  10.032  14.752  0.00  0.00    +0.000 A 
ATOM     13  S   UNL     1      50.217  11.261  14.599  0.00  0.00    +0.000 S 
ATOM     14  C   UNL     1      50.842  10.560  13.175  0.00  0.00    +0.000 A 
ATOM     15  N   UNL     1      51.882  11.140  12.525  0.00  0.00    +0.000 NA
ATOM     16  C   UNL     1      52.251  10.510  11.460  0.00  0.00    +0.000 A 
ATOM     17  N   UNL     1      51.681   9.352  10.996  0.00  0.00    +0.000 N 
ATOM     18  C   UNL     1      50.641   8.713  11.636  0.00  0.00    +0.000 A 
ATOM     19  O   UNL     1      50.206   7.641  11.232  0.00  0.00    +0.000 OA
ATOM     20  C   UNL     1      50.172   9.399  12.830  0.00  0.00    +0.000 A 
ATOM     21  H   UNL     1      52.038   8.898  10.169  0.00  0.00    +0.000 HD
ENDBRANCH  10  11
BRANCH  10  23
ATOM     22  C   UNL     1      47.507   5.556  14.494  0.00  0.00    +0.000 C 
ATOM     23  C   UNL     1      48.566   6.640  14.319  0.00  0.00    +0.000 C 
ENDBRANCH  10  23
ENDBRANCH   8  10
ENDBRANCH   7   8
ENDBRANCH   1   7
BRANCH   4  24
ATOM     24  C   UNL     1      43.952   3.967  10.169  0.00  0.00    +0.000 C 
BRANCH  24  25
ATOM     25  O   UNL     1      43.617   4.359   8.832  0.00  0.00    +0.000 OA
ATOM     26  H   UNL     1      42.695   4.059   8.704  0.00  0.00    +0.000 HD
ENDBRANCH  24  25
BRANCH  24  27
ATOM     27  C   UNL     1      44.971   2.801  10.120  0.00  0.00    +0.000 C 
BRANCH  27  28
ATOM     28  N   UNL     1      45.119   2.237   8.772  0.00  0.00    +0.000 NA
ATOM     29  H   UNL     1      44.415   2.637   8.153  0.00  0.00    +0.000 HD
BRANCH  28  30
ATOM     30  C   UNL     1      46.443   2.426   8.183  0.00  0.00    +0.000 C 
ATOM     31  C   UNL     1      46.984   1.300   7.313  0.00  0.00    +0.000 C 
ATOM     32  C   UNL     1      48.007   2.037   6.467  0.00  0.00    +0.000 C 
ATOM     33  N   UNL     1      47.342   3.291   6.091  0.00  0.00    +0.000 NA
ATOM     34  C   UNL     1      46.443   3.623   7.212  0.00  0.00    +0.000 C 
ATOM     35  H   UNL     1      46.752   3.098   5.279  0.00  0.00    +0.000 HD
ENDBRANCH  28  30
ENDBRANCH  27  28
ENDBRANCH  24  27
ENDBRANCH   4  24
TORSDOF 10
ENDMDL
