MODEL 1
REMARK VINA RESULT:    -7.830      0.000      0.000
REMARK INTER + INTRA:         -10.847
REMARK INTER:                 -10.119
REMARK INTRA:                  -0.728
REMARK UNBOUND:                -0.728
REMARK  Name = 
REMARK  6 active torsions:
REMARK  status: ('A' for Active; 'I' for Inactive)
REMARK    1  A    between atoms: C_1  and  C_2
REMARK    2  A    between atoms: C_2  and  C_3
REMARK    3  A    between atoms: C_2  and  C_14
REMARK    4  A    between atoms: C_3  and  N_4
REMARK    5  A    between atoms: N_4  and  C_5
REMARK    6  A    between atoms: C_8  and  C_9
REMARK                            x       y       z     vdW  Elec       q    Type
REMARK                         _______ _______ _______ _____ _____    ______ ____
ROOT
ATOM      1  N   UNL     1      43.780   4.799   9.998  0.00  0.00    +0.000 N 
ATOM      2  H   UNL     1      42.820   4.798   9.667  0.00  0.00    +0.000 HD
ENDROOT
BRANCH   1   3
ATOM      3  C   UNL     1      44.596   3.947   9.249  0.00  0.00    +0.000 A 
ATOM      4  C   UNL     1      44.627   2.555   9.409  0.00  0.00    +0.000 A 
ATOM      5  C   UNL     1      45.506   1.754   8.669  0.00  0.00    +0.000 A 
ATOM      6  C   UNL     1      46.397   2.336   7.764  0.00  0.00    +0.000 A 
ATOM      7  C   UNL     1      46.420   3.726   7.630  0.00  0.00    +0.000 A 
ATOM      8  C   UNL     1      45.529   4.517   8.371  0.00  0.00    +0.000 A 
BRANCH   6   9
ATOM      9  C   UNL     1      47.313   1.443   7.010  0.00  0.00    +0.000 C 
ATOM     10  N   UNL     1      48.424   2.007   6.446  0.00  0.00    +0.000 N 
ATOM     11  O   UNL     1      47.073   0.252   6.857  0.00  0.00    +0.000 OA
ATOM     12  H   UNL     1      48.544   3.005   6.352  0.00  0.00    +0.000 HD
ATOM     13  H   UNL     1      48.977   1.404   5.849  0.00  0.00    +0.000 HD
ENDBRANCH   6   9
ENDBRANCH   1   3
BRANCH   1  14
ATOM     14  C   UNL     1      43.888   4.802  11.445  0.00  0.00    +0.000 C 
BRANCH  14  16
ATOM     15  C   UNL     1      45.839   3.779  12.774  0.00  0.00    +0.000 C 
ATOM     16  C   UNL     1      45.338   4.848  11.842  0.00  0.00    +0.000 C 
BRANCH  16  17
ATOM     17  C   UNL     1      45.952   6.239  11.917  0.00  0.00    +0.000 C 
ATOM     18  C   UNL     1      47.376   6.251  12.498  0.00  0.00    +0.000 C 
ATOM     19  C   UNL     1      47.931   7.672  12.615  0.00  0.00    +0.000 C 
ATOM     20  C   UNL     1      46.995   8.570  13.415  0.00  0.00    +0.000 C 
ATOM     21  C   UNL     1      45.604   8.603  12.792  0.00  0.00    +0.000 C 
ATOM     22  C   UNL     1      45.019   7.200  12.674  0.00  0.00    +0.000 C 
ENDBRANCH  16  17
ENDBRANCH  14  16
ENDBRANCH   1  14
TORSDOF 5
ENDMDL
MODEL 2
REMARK VINA RESULT:    -7.810      1.196      2.180
REMARK INTER + INTRA:         -10.821
REMARK INTER:                  -9.887
REMARK INTRA:                  -0.934
REMARK UNBOUND:                -0.728
REMARK  Name = 
REMARK  6 active torsions:
REMARK  status: ('A' for Active; 'I' for Inactive)
REMARK    1  A    between atoms: C_1  and  C_2
REMARK    2  A    between atoms: C_2  and  C_3
REMARK    3  A    between atoms: C_2  and  C_14
REMARK    4  A    between atoms: C_3  and  N_4
REMARK    5  A    between atoms: N_4  and  C_5
REMARK    6  A    between atoms: C_8  and  C_9
REMARK                            x       y       z     vdW  Elec       q    Type
REMARK                         _______ _______ _______ _____ _____    ______ ____
ROOT
ATOM      1  N   UNL     1      43.565   3.245  10.695  0.00  0.00    +0.000 N 
ATOM      2  H   UNL     1      42.838   2.541  10.614  0.00  0.00    +0.000 HD
ENDROOT
BRANCH   1   3
ATOM      3  C   UNL     1      44.546   3.103   9.709  0.00  0.00    +0.000 A 
ATOM      4  C   UNL     1      45.087   4.174   8.985  0.00  0.00    +0.000 A 
ATOM      5  C   UNL     1      46.029   3.966   7.969  0.00  0.00    +0.000 A 
ATOM      6  C   UNL     1      46.434   2.672   7.637  0.00  0.00    +0.000 A 
ATOM      7  C   UNL     1      45.866   1.587   8.309  0.00  0.00    +0.000 A 
ATOM      8  C   UNL     1      44.930   1.808   9.330  0.00  0.00    +0.000 A 
BRANCH   6   9
ATOM      9  C   UNL     1      47.430   2.507   6.547  0.00  0.00    +0.000 C 
ATOM     10  N   UNL     1      47.294   3.301   5.442  0.00  0.00    +0.000 N 
ATOM     11  O   UNL     1      48.319   1.668   6.607  0.00  0.00    +0.000 OA
ATOM     12  H   UNL     1      46.460   3.836   5.251  0.00  0.00    +0.000 HD
ATOM     13  H   UNL     1      47.916   3.099   4.669  0.00  0.00    +0.000 HD
ENDBRANCH   6   9
ENDBRANCH   1   3
BRANCH   1  14
ATOM     14  C   UNL     1      43.963   3.507  12.065  0.00  0.00    +0.000 C 
BRANCH  14  16
ATOM     15  C   UNL     1      42.362   5.506  11.815  0.00  0.00    +0.000 C 
ATOM     16  C   UNL     1      43.601   4.919  12.435  0.00  0.00    +0.000 C 
BRANCH  16  17
ATOM     17  C   UNL     1      44.775   5.836  12.746  0.00  0.00    +0.000 C 
ATOM     18  C   UNL     1      44.915   7.010  11.762  0.00  0.00    +0.000 C 
ATOM     19  C   UNL     1      46.143   7.869  12.072  0.00  0.00    +0.000 C 
ATOM     20  C   UNL     1      47.413   7.027  12.119  0.00  0.00    +0.000 C 
ATOM     21  C   UNL     1      47.288   5.906  13.144  0.00  0.00    +0.000 C 
ATOM     22  C   UNL     1      46.078   5.024  12.854  0.00  0.00    +0.000 C 
ENDBRANCH  16  17
ENDBRANCH  14  16
ENDBRANCH   1  14
TORSDOF 5
ENDMDL
MODEL 3
REMARK VINA RESULT:    -7.144      3.234      6.911
REMARK INTER + INTRA:          -9.961
REMARK INTER:                  -9.481
REMARK INTRA:                  -0.480
REMARK UNBOUND:                -0.728
REMARK  Name = 
REMARK  6 active torsions:
REMARK  status: ('A' for Active; 'I' for Inactive)
REMARK    1  A    between atoms: C_1  and  C_2
REMARK    2  A    between atoms: C_2  and  C_3
REMARK    3  A    between atoms: C_2  and  C_14
REMARK    4  A    between atoms: C_3  and  N_4
REMARK    5  A    between atoms: N_4  and  C_5
REMARK    6  A    between atoms: C_8  and  C_9
REMARK                            x       y       z     vdW  Elec       q    Type
REMARK                         _______ _______ _______ _____ _____    ______ ____
ROOT
ATOM      1  N   UNL     1      45.104   5.737  10.443  0.00  0.00    +0.000 N 
ATOM      2  H   UNL     1      44.534   6.556  10.252  0.00  0.00    +0.000 HD
ENDROOT
BRANCH   1   3
ATOM      3  C   UNL     1      45.930   5.919  11.556  0.00  0.00    +0.000 A 
ATOM      4  C   UNL     1      47.047   6.765  11.571  0.00  0.00    +0.000 A 
ATOM      5  C   UNL     1      47.872   6.866  12.699  0.00  0.00    +0.000 A 
ATOM      6  C   UNL     1      47.609   6.098  13.835  0.00  0.00    +0.000 A 
ATOM      7  C   UNL     1      46.533   5.208  13.821  0.00  0.00    +0.000 A 
ATOM      8  C   UNL     1      45.709   5.122  12.689  0.00  0.00    +0.000 A 
BRANCH   6   9
ATOM      9  C   UNL     1      48.519   6.238  15.000  0.00  0.00    +0.000 C 
ATOM     10  N   UNL     1      48.034   5.878  16.228  0.00  0.00    +0.000 N 
ATOM     11  O   UNL     1      49.649   6.694  14.886  0.00  0.00    +0.000 OA
ATOM     12  H   UNL     1      47.053   5.716  16.403  0.00  0.00    +0.000 HD
ATOM     13  H   UNL     1      48.631   6.080  17.020  0.00  0.00    +0.000 HD
ENDBRANCH   6   9
ENDBRANCH   1   3
BRANCH   1  14
ATOM     14  C   UNL     1      45.646   5.122   9.246  0.00  0.00    +0.000 C 
BRANCH  14  16
ATOM     15  C   UNL     1      44.140   3.207  10.076  0.00  0.00    +0.000 C 
ATOM     16  C   UNL     1      44.894   3.854   8.946  0.00  0.00    +0.000 C 
BRANCH  16  17
ATOM     17  C   UNL     1      45.504   2.971   7.866  0.00  0.00    +0.000 C 
ATOM     18  C   UNL     1      46.151   1.689   8.414  0.00  0.00    +0.000 C 
ATOM     19  C   UNL     1      46.807   0.864   7.305  0.00  0.00    +0.000 C 
ATOM     20  C   UNL     1      47.806   1.696   6.509  0.00  0.00    +0.000 C 
ATOM     21  C   UNL     1      47.138   2.931   5.916  0.00  0.00    +0.000 C 
ATOM     22  C   UNL     1      46.485   3.781   7.000  0.00  0.00    +0.000 C 
ENDBRANCH  16  17
ENDBRANCH  14  16
ENDBRANCH   1  14
TORSDOF 5
ENDMDL
MODEL 4
REMARK VINA RESULT:    -6.920      3.291      6.168
REMARK INTER + INTRA:          -9.670
REMARK INTER:                  -8.703
REMARK INTRA:                  -0.967
REMARK UNBOUND:                -0.728
REMARK  Name = 
REMARK  6 active torsions:
REMARK  status: ('A' for Active; 'I' for Inactive)
REMARK    1  A    between atoms: C_1  and  C_2
REMARK    2  A    between atoms: C_2  and  C_3
REMARK    3  A    between atoms: C_2  and  C_14
REMARK    4  A    between atoms: C_3  and  N_4
REMARK    5  A    between atoms: N_4  and  C_5
REMARK    6  A    between atoms: C_8  and  C_9
REMARK                            x       y       z     vdW  Elec       q    Type
REMARK                         _______ _______ _______ _____ _____    ______ ____
ROOT
ATOM      1  N   UNL     1      43.583   5.319  12.671  0.00  0.00    +0.000 N 
ATOM      2  H   UNL     1      42.890   5.861  13.180  0.00  0.00    +0.000 HD
ENDROOT
BRANCH   1   3
ATOM      3  C   UNL     1      44.883   5.780  12.900  0.00  0.00    +0.000 A 
ATOM      4  C   UNL     1      45.385   6.985  12.393  0.00  0.00    +0.000 A 
ATOM      5  C   UNL     1      46.715   7.371  12.608  0.00  0.00    +0.000 A 
ATOM      6  C   UNL     1      47.583   6.540  13.320  0.00  0.00    +0.000 A 
ATOM      7  C   UNL     1      47.117   5.309  13.787  0.00  0.00    +0.000 A 
ATOM      8  C   UNL     1      45.781   4.938  13.572  0.00  0.00    +0.000 A 
BRANCH   6   9
ATOM      9  C   UNL     1      48.984   6.992  13.514  0.00  0.00    +0.000 C 
ATOM     10  N   UNL     1      49.802   7.002  12.417  0.00  0.00    +0.000 N 
ATOM     11  O   UNL     1      49.413   7.309  14.615  0.00  0.00    +0.000 OA
ATOM     12  H   UNL     1      49.563   6.543  11.552  0.00  0.00    +0.000 HD
ATOM     13  H   UNL     1      50.777   7.211  12.591  0.00  0.00    +0.000 HD
ENDBRANCH   6   9
ENDBRANCH   1   3
BRANCH   1  14
ATOM     14  C   UNL     1      43.172   4.983  11.321  0.00  0.00    +0.000 C 
BRANCH  14  16
ATOM     15  C   UNL     1      43.379   2.527  12.060  0.00  0.00    +0.000 C 
ATOM     16  C   UNL     1      43.592   3.575  11.002  0.00  0.00    +0.000 C 
BRANCH  16  17
ATOM     17  C   UNL     1      44.784   3.444  10.064  0.00  0.00    +0.000 C 
ATOM     18  C   UNL     1      44.952   4.643   9.114  0.00  0.00    +0.000 C 
ATOM     19  C   UNL     1      46.121   4.442   8.148  0.00  0.00    +0.000 C 
ATOM     20  C   UNL     1      45.986   3.134   7.376  0.00  0.00    +0.000 C 
ATOM     21  C   UNL     1      45.886   1.947   8.326  0.00  0.00    +0.000 C 
ATOM     22  C   UNL     1      44.720   2.112   9.296  0.00  0.00    +0.000 C 
ENDBRANCH  16  17
ENDBRANCH  14  16
ENDBRANCH   1  14
TORSDOF 5
ENDMDL
MODEL 5
REMARK VINA RESULT:    -6.030      3.528      6.729
REMARK INTER + INTRA:          -8.521
REMARK INTER:                  -7.868
REMARK INTRA:                  -0.652
REMARK UNBOUND:                -0.728
REMARK  Name = 
REMARK  6 active torsions:
REMARK  status: ('A' for Active; 'I' for Inactive)
REMARK    1  A    between atoms: C_1  and  C_2
REMARK    2  A    between atoms: C_2  and  C_3
REMARK    3  A    between atoms: C_2  and  C_14
REMARK    4  A    between atoms: C_3  and  N_4
REMARK    5  A    between atoms: N_4  and  C_5
REMARK    6  A    between atoms: C_8  and  C_9
REMARK                            x       y       z     vdW  Elec       q    Type
REMARK                         _______ _______ _______ _____ _____    ______ ____
ROOT
ATOM      1  N   UNL     1      44.923   5.455  12.248  0.00  0.00    +0.000 N 
ATOM      2  H   UNL     1      44.607   5.268  13.195  0.00  0.00    +0.000 HD
ENDROOT
BRANCH   1   3
ATOM      3  C   UNL     1      45.758   6.575  12.183  0.00  0.00    +0.000 A 
ATOM      4  C   UNL     1      47.109   6.522  11.817  0.00  0.00    +0.000 A 
ATOM      5  C   UNL     1      47.913   7.670  11.822  0.00  0.00    +0.000 A 
ATOM      6  C   UNL     1      47.384   8.899  12.221  0.00  0.00    +0.000 A 
ATOM      7  C   UNL     1      46.053   8.963  12.643  0.00  0.00    +0.000 A 
ATOM      8  C   UNL     1      45.256   7.809  12.625  0.00  0.00    +0.000 A 
BRANCH   6   9
ATOM      9  C   UNL     1      48.280  10.082  12.216  0.00  0.00    +0.000 C 
ATOM     10  N   UNL     1      48.818  10.462  11.017  0.00  0.00    +0.000 N 
ATOM     11  O   UNL     1      48.566  10.680  13.245  0.00  0.00    +0.000 OA
ATOM     12  H   UNL     1      48.795   9.876  10.196  0.00  0.00    +0.000 HD
ATOM     13  H   UNL     1      49.508  11.203  11.052  0.00  0.00    +0.000 HD
ENDBRANCH   6   9
ENDBRANCH   1   3
BRANCH   1  14
ATOM     14  C   UNL     1      43.884   5.281  11.251  0.00  0.00    +0.000 C 
BRANCH  14  16
ATOM     15  C   UNL     1      43.346   2.797  11.656  0.00  0.00    +0.000 C 
ATOM     16  C   UNL     1      43.899   3.863  10.749  0.00  0.00    +0.000 C 
BRANCH  16  17
ATOM     17  C   UNL     1      45.048   3.512   9.814  0.00  0.00    +0.000 C 
ATOM     18  C   UNL     1      45.274   4.551   8.702  0.00  0.00    +0.000 C 
ATOM     19  C   UNL     1      46.392   4.129   7.748  0.00  0.00    +0.000 C 
ATOM     20  C   UNL     1      46.137   2.742   7.170  0.00  0.00    +0.000 C 
ATOM     21  C   UNL     1      45.979   1.708   8.279  0.00  0.00    +0.000 C 
ATOM     22  C   UNL     1      44.861   2.096   9.241  0.00  0.00    +0.000 C 
ENDBRANCH  16  17
ENDBRANCH  14  16
ENDBRANCH   1  14
TORSDOF 5
ENDMDL
MODEL 6
REMARK VINA RESULT:    -6.014      3.407      6.478
REMARK INTER + INTRA:          -8.499
REMARK INTER:                  -7.683
REMARK INTRA:                  -0.816
REMARK UNBOUND:                -0.728
REMARK  Name = 
REMARK  6 active torsions:
REMARK  status: ('A' for Active; 'I' for Inactive)
REMARK    1  A    between atoms: C_1  and  C_2
REMARK    2  A    between atoms: C_2  and  C_3
REMARK    3  A    between atoms: C_2  and  C_14
REMARK    4  A    between atoms: C_3  and  N_4
REMARK    5  A    between atoms: N_4  and  C_5
REMARK    6  A    between atoms: C_8  and  C_9
REMARK                            x       y       z     vdW  Elec       q    Type
REMARK                         _______ _______ _______ _____ _____    ______ ____
ROOT
ATOM      1  N   UNL     1      45.131   5.244  13.358  0.00  0.00    +0.000 N 
ATOM      2  H   UNL     1      44.335   5.608  13.874  0.00  0.00    +0.000 HD
ENDROOT
BRANCH   1   3
ATOM      3  C   UNL     1      45.980   6.263  12.914  0.00  0.00    +0.000 A 
ATOM      4  C   UNL     1      47.345   6.084  12.654  0.00  0.00    +0.000 A 
ATOM      5  C   UNL     1      48.160   7.155  12.263  0.00  0.00    +0.000 A 
ATOM      6  C   UNL     1      47.628   8.441  12.149  0.00  0.00    +0.000 A 
ATOM      7  C   UNL     1      46.281   8.650  12.458  0.00  0.00    +0.000 A 
ATOM      8  C   UNL     1      45.473   7.569  12.839  0.00  0.00    +0.000 A 
BRANCH   6   9
ATOM      9  C   UNL     1      48.536   9.541  11.739  0.00  0.00    +0.000 C 
ATOM     10  N   UNL     1      49.858   9.427  12.072  0.00  0.00    +0.000 N 
ATOM     11  O   UNL     1      48.123  10.537  11.159  0.00  0.00    +0.000 OA
ATOM     12  H   UNL     1      50.199   8.747  12.736  0.00  0.00    +0.000 HD
ATOM     13  H   UNL     1      50.438  10.233  11.878  0.00  0.00    +0.000 HD
ENDBRANCH   6   9
ENDBRANCH   1   3
BRANCH   1  14
ATOM     14  C   UNL     1      44.787   4.159  12.459  0.00  0.00    +0.000 C 
BRANCH  14  16
ATOM     15  C   UNL     1      42.736   5.346  11.456  0.00  0.00    +0.000 C 
ATOM     16  C   UNL     1      44.084   4.711  11.249  0.00  0.00    +0.000 C 
BRANCH  16  17
ATOM     17  C   UNL     1      44.363   3.984   9.941  0.00  0.00    +0.000 C 
ATOM     18  C   UNL     1      44.637   2.481  10.121  0.00  0.00    +0.000 C 
ATOM     19  C   UNL     1      44.975   1.802   8.792  0.00  0.00    +0.000 C 
ATOM     20  C   UNL     1      46.134   2.500   8.090  0.00  0.00    +0.000 C 
ATOM     21  C   UNL     1      45.825   3.974   7.858  0.00  0.00    +0.000 C 
ATOM     22  C   UNL     1      45.496   4.682   9.169  0.00  0.00    +0.000 C 
ENDBRANCH  16  17
ENDBRANCH  14  16
ENDBRANCH   1  14
TORSDOF 5
ENDMDL
MODEL 7
REMARK VINA RESULT:    -5.827      4.300      7.050
REMARK INTER + INTRA:          -8.259
REMARK INTER:                  -7.409
REMARK INTRA:                  -0.850
REMARK UNBOUND:                -0.728
REMARK  Name = 
REMARK  6 active torsions:
REMARK  status: ('A' for Active; 'I' for Inactive)
REMARK    1  A    between atoms: C_1  and  C_2
REMARK    2  A    between atoms: C_2  and  C_3
REMARK    3  A    between atoms: C_2  and  C_14
REMARK    4  A    between atoms: C_3  and  N_4
REMARK    5  A    between atoms: N_4  and  C_5
REMARK    6  A    between atoms: C_8  and  C_9
REMARK                            x       y       z     vdW  Elec       q    Type
REMARK                         _______ _______ _______ _____ _____    ______ ____
ROOT
ATOM      1  N   UNL     1      47.881   7.154  13.036  0.00  0.00    +0.000 N 
ATOM      2  H   UNL     1      48.798   7.555  12.863  0.00  0.00    +0.000 HD
ENDROOT
BRANCH   1   3
ATOM      3  C   UNL     1      47.895   6.250  14.102  0.00  0.00    +0.000 A 
ATOM      4  C   UNL     1      47.156   5.060  14.126  0.00  0.00    +0.000 A 
ATOM      5  C   UNL     1      47.165   4.217  15.245  0.00  0.00    +0.000 A 
ATOM      6  C   UNL     1      47.899   4.563  16.382  0.00  0.00    +0.000 A 
ATOM      7  C   UNL     1      48.598   5.772  16.399  0.00  0.00    +0.000 A 
ATOM      8  C   UNL     1      48.589   6.603  15.269  0.00  0.00    +0.000 A 
BRANCH   6   9
ATOM      9  C   UNL     1      47.869   3.639  17.544  0.00  0.00    +0.000 C 
ATOM     10  N   UNL     1      46.807   2.781  17.642  0.00  0.00    +0.000 N 
ATOM     11  O   UNL     1      48.735   3.661  18.409  0.00  0.00    +0.000 OA
ATOM     12  H   UNL     1      45.970   2.881  17.088  0.00  0.00    +0.000 HD
ATOM     13  H   UNL     1      46.751   2.236  18.493  0.00  0.00    +0.000 HD
ENDBRANCH   6   9
ENDBRANCH   1   3
BRANCH   1  14
ATOM     14  C   UNL     1      47.165   6.814  11.821  0.00  0.00    +0.000 C 
BRANCH  14  16
ATOM     15  C   UNL     1      45.576   8.594  12.784  0.00  0.00    +0.000 C 
ATOM     16  C   UNL     1      45.794   7.432  11.855  0.00  0.00    +0.000 C 
BRANCH  16  17
ATOM     17  C   UNL     1      44.639   6.477  11.585  0.00  0.00    +0.000 C 
ATOM     18  C   UNL     1      43.999   5.911  12.863  0.00  0.00    +0.000 C 
ATOM     19  C   UNL     1      42.887   4.909  12.547  0.00  0.00    +0.000 C 
ATOM     20  C   UNL     1      43.386   3.795  11.633  0.00  0.00    +0.000 C 
ATOM     21  C   UNL     1      43.959   4.364  10.340  0.00  0.00    +0.000 C 
ATOM     22  C   UNL     1      45.079   5.359  10.624  0.00  0.00    +0.000 C 
ENDBRANCH  16  17
ENDBRANCH  14  16
ENDBRANCH   1  14
TORSDOF 5
ENDMDL
MODEL 8
REMARK VINA RESULT:    -5.777      3.767      5.552
REMARK INTER + INTRA:          -8.194
REMARK INTER:                  -7.632
REMARK INTRA:                  -0.562
REMARK UNBOUND:                -0.728
REMARK  Name = 
REMARK  6 active torsions:
REMARK  status: ('A' for Active; 'I' for Inactive)
REMARK    1  A    between atoms: C_1  and  C_2
REMARK    2  A    between atoms: C_2  and  C_3
REMARK    3  A    between atoms: C_2  and  C_14
REMARK    4  A    between atoms: C_3  and  N_4
REMARK    5  A    between atoms: N_4  and  C_5
REMARK    6  A    between atoms: C_8  and  C_9
REMARK                            x       y       z     vdW  Elec       q    Type
REMARK                         _______ _______ _______ _____ _____    ______ ____
ROOT
ATOM      1  N   UNL     1      47.176   7.027  13.897  0.00  0.00    +0.000 N 
ATOM      2  H   UNL     1      46.613   7.482  14.610  0.00  0.00    +0.000 HD
ENDROOT
BRANCH   1   3
ATOM      3  C   UNL     1      46.396   6.279  13.009  0.00  0.00    +0.000 A 
ATOM      4  C   UNL     1      45.686   5.127  13.372  0.00  0.00    +0.000 A 
ATOM      5  C   UNL     1      44.965   4.386  12.427  0.00  0.00    +0.000 A 
ATOM      6  C   UNL     1      44.959   4.771  11.085  0.00  0.00    +0.000 A 
ATOM      7  C   UNL     1      45.706   5.885  10.693  0.00  0.00    +0.000 A 
ATOM      8  C   UNL     1      46.417   6.624  11.649  0.00  0.00    +0.000 A 
BRANCH   6   9
ATOM      9  C   UNL     1      44.185   3.946  10.123  0.00  0.00    +0.000 C 
ATOM     10  N   UNL     1      44.105   4.389   8.831  0.00  0.00    +0.000 N 
ATOM     11  O   UNL     1      43.602   2.927  10.469  0.00  0.00    +0.000 OA
ATOM     12  H   UNL     1      44.371   5.323   8.555  0.00  0.00    +0.000 HD
ATOM     13  H   UNL     1      43.487   3.871   8.219  0.00  0.00    +0.000 HD
ENDBRANCH   6   9
ENDBRANCH   1   3
BRANCH   1  14
ATOM     14  C   UNL     1      48.410   6.463  14.412  0.00  0.00    +0.000 C 
BRANCH  14  16
ATOM     15  C   UNL     1      49.293   8.012  16.267  0.00  0.00    +0.000 C 
ATOM     16  C   UNL     1      48.532   6.774  15.879  0.00  0.00    +0.000 C 
BRANCH  16  17
ATOM     17  C   UNL     1      48.570   5.565  16.803  0.00  0.00    +0.000 C 
ATOM     18  C   UNL     1      49.995   5.113  17.164  0.00  0.00    +0.000 C 
ATOM     19  C   UNL     1      49.989   3.859  18.041  0.00  0.00    +0.000 C 
ATOM     20  C   UNL     1      49.194   2.731  17.392  0.00  0.00    +0.000 C 
ATOM     21  C   UNL     1      47.764   3.169  17.098  0.00  0.00    +0.000 C 
ATOM     22  C   UNL     1      47.738   4.412  16.214  0.00  0.00    +0.000 C 
ENDBRANCH  16  17
ENDBRANCH  14  16
ENDBRANCH   1  14
TORSDOF 5
ENDMDL
MODEL 9
REMARK VINA RESULT:    -5.302      2.248      3.953
REMARK INTER + INTRA:          -7.580
REMARK INTER:                  -6.872
REMARK INTRA:                  -0.708
REMARK UNBOUND:                -0.728
REMARK  Name = 
REMARK  6 active torsions:
REMARK  status: ('A' for Active; 'I' for Inactive)
REMARK    1  A    between atoms: C_1  and  C_2
REMARK    2  A    between atoms: C_2  and  C_3
REMARK    3  A    between atoms: C_2  and  C_14
REMARK    4  A    between atoms: C_3  and  N_4
REMARK    5  A    between atoms: N_4  and  C_5
REMARK    6  A    between atoms: C_8  and  C_9
REMARK                            x       y       z     vdW  Elec       q    Type
REMARK                         _______ _______ _______ _____ _____    ______ ____
ROOT
ATOM      1  N   UNL     1      44.829   7.329  12.582  0.00  0.00    +0.000 N 
ATOM      2  H   UNL     1      45.434   7.152  13.379  0.00  0.00    +0.000 HD
ENDROOT
BRANCH   1   3
ATOM      3  C   UNL     1      44.843   6.273  11.666  0.00  0.00    +0.000 A 
ATOM      4  C   UNL     1      45.698   6.212  10.557  0.00  0.00    +0.000 A 
ATOM      5  C   UNL     1      45.631   5.155   9.640  0.00  0.00    +0.000 A 
ATOM      6  C   UNL     1      44.683   4.142   9.801  0.00  0.00    +0.000 A 
ATOM      7  C   UNL     1      43.785   4.213  10.869  0.00  0.00    +0.000 A 
ATOM      8  C   UNL     1      43.868   5.272  11.785  0.00  0.00    +0.000 A 
BRANCH   6   9
ATOM      9  C   UNL     1      44.649   3.049   8.797  0.00  0.00    +0.000 C 
ATOM     10  N   UNL     1      44.468   1.774   9.257  0.00  0.00    +0.000 N 
ATOM     11  O   UNL     1      44.815   3.264   7.603  0.00  0.00    +0.000 OA
ATOM     12  H   UNL     1      44.554   1.525  10.231  0.00  0.00    +0.000 HD
ATOM     13  H   UNL     1      44.554   1.035   8.569  0.00  0.00    +0.000 HD
ENDBRANCH   6   9
ENDBRANCH   1   3
BRANCH   1  14
ATOM     14  C   UNL     1      44.902   8.695  12.098  0.00  0.00    +0.000 C 
BRANCH  14  16
ATOM     15  C   UNL     1      46.644  10.573  11.848  0.00  0.00    +0.000 C 
ATOM     16  C   UNL     1      46.192   9.322  12.552  0.00  0.00    +0.000 C 
BRANCH  16  17
ATOM     17  C   UNL     1      47.240   8.354  13.081  0.00  0.00    +0.000 C 
ATOM     18  C   UNL     1      47.799   8.748  14.459  0.00  0.00    +0.000 C 
ATOM     19  C   UNL     1      48.894   7.786  14.924  0.00  0.00    +0.000 C 
ATOM     20  C   UNL     1      50.004   7.662  13.887  0.00  0.00    +0.000 C 
ATOM     21  C   UNL     1      49.448   7.208  12.543  0.00  0.00    +0.000 C 
ATOM     22  C   UNL     1      48.361   8.156  12.046  0.00  0.00    +0.000 C 
ENDBRANCH  16  17
ENDBRANCH  14  16
ENDBRANCH   1  14
TORSDOF 5
ENDMDL
