MODEL 1
REMARK VINA RESULT:    -8.499      0.000      0.000
REMARK INTER + INTRA:         -12.746
REMARK INTER:                 -11.977
REMARK INTRA:                  -0.769
REMARK UNBOUND:                -0.769
REMARK  Name = 
REMARK  10 active torsions:
REMARK  status: ('A' for Active; 'I' for Inactive)
REMARK    1  A    between atoms: C_1  and  C_2
REMARK    2  A    between atoms: C_2  and  C_3
REMARK    3  A    between atoms: C_2  and  C_4
REMARK    4  A    between atoms: C_2  and  C_5
REMARK    5  A    between atoms: C_5  and  N_6
REMARK    6  A    between atoms: N_6  and  C_7
REMARK    7  A    between atoms: C_7  and  C_8
REMARK    8  A    between atoms: C_11  and  C_12
REMARK    9  A    between atoms: C_12  and  N_13
REMARK   10  A    between atoms: C_18  and  C_19
REMARK                            x       y       z     vdW  Elec       q    Type
REMARK                         _______ _______ _______ _____ _____    ______ ____
ROOT
ATOM      1  C   UNL     1      43.838   5.727  10.949  0.00  0.00    +0.000 C 
ENDROOT
BRANCH   1   2
ATOM      2  N   UNL     1      43.624   4.422  10.346  0.00  0.00    +0.000 N 
ATOM      3  N   UNL     1      43.018   3.463  11.087  0.00  0.00    +0.000 NA
ATOM      4  N   UNL     1      43.584   2.307  10.762  0.00  0.00    +0.000 NA
ATOM      5  C   UNL     1      44.447   2.540   9.724  0.00  0.00    +0.000 A 
ATOM      6  C   UNL     1      45.359   1.687   9.094  0.00  0.00    +0.000 A 
ATOM      7  C   UNL     1      46.117   2.182   8.016  0.00  0.00    +0.000 A 
ATOM      8  C   UNL     1      45.916   3.494   7.557  0.00  0.00    +0.000 A 
ATOM      9  C   UNL     1      45.039   4.377   8.211  0.00  0.00    +0.000 A 
ATOM     10  C   UNL     1      44.358   3.866   9.323  0.00  0.00    +0.000 A 
BRANCH   7  11
ATOM     11  C   UNL     1      47.145   1.259   7.449  0.00  0.00    +0.000 C 
ATOM     12  N   UNL     1      48.210   1.779   6.783  0.00  0.00    +0.000 N 
ATOM     13  O   UNL     1      47.050   0.043   7.587  0.00  0.00    +0.000 OA
ATOM     14  H   UNL     1      48.375   2.755   6.602  0.00  0.00    +0.000 HD
ATOM     15  H   UNL     1      48.888   1.112   6.434  0.00  0.00    +0.000 HD
ENDBRANCH   7  11
ENDBRANCH   1   2
BRANCH   1  19
ATOM     16  C   UNL     1      47.141   5.666  13.761  0.00  0.00    +0.000 A 
ATOM     17  C   UNL     1      46.011   4.860  13.961  0.00  0.00    +0.000 A 
ATOM     18  C   UNL     1      44.972   4.834  13.032  0.00  0.00    +0.000 A 
ATOM     19  C   UNL     1      45.012   5.664  11.903  0.00  0.00    +0.000 A 
ATOM     20  C   UNL     1      46.112   6.520  11.737  0.00  0.00    +0.000 A 
ATOM     21  C   UNL     1      47.165   6.522  12.654  0.00  0.00    +0.000 A 
BRANCH  16  22
ATOM     22  C   UNL     1      48.304   5.666  14.730  0.00  0.00    +0.000 C 
BRANCH  22  23
ATOM     23  N   UNL     1      47.927   5.635  16.147  0.00  0.00    +0.000 NA
ATOM     24  H   UNL     1      47.662   6.578  16.420  0.00  0.00    +0.000 HD
BRANCH  23  25
ATOM     25  C   UNL     1      49.000   5.160  17.029  0.00  0.00    +0.000 C 
BRANCH  25  27
ATOM     26  C   UNL     1      47.189   3.401  17.353  0.00  0.00    +0.000 C 
ATOM     27  C   UNL     1      48.603   3.850  17.767  0.00  0.00    +0.000 C 
ATOM     28  C   UNL     1      48.656   4.042  19.292  0.00  0.00    +0.000 C 
ATOM     29  C   UNL     1      49.597   2.739  17.376  0.00  0.00    +0.000 C 
ENDBRANCH  25  27
ENDBRANCH  23  25
ENDBRANCH  22  23
ENDBRANCH  16  22
ENDBRANCH   1  19
TORSDOF 7
ENDMDL
MODEL 2
REMARK VINA RESULT:    -7.751      2.336      3.559
REMARK INTER + INTRA:         -11.692
REMARK INTER:                 -10.397
REMARK INTRA:                  -1.294
REMARK UNBOUND:                -0.769
REMARK  Name = 
REMARK  10 active torsions:
REMARK  status: ('A' for Active; 'I' for Inactive)
REMARK    1  A    between atoms: C_1  and  C_2
REMARK    2  A    between atoms: C_2  and  C_3
REMARK    3  A    between atoms: C_2  and  C_4
REMARK    4  A    between atoms: C_2  and  C_5
REMARK    5  A    between atoms: C_5  and  N_6
REMARK    6  A    between atoms: N_6  and  C_7
REMARK    7  A    between atoms: C_7  and  C_8
REMARK    8  A    between atoms: C_11  and  C_12
REMARK    9  A    between atoms: C_12  and  N_13
REMARK   10  A    between atoms: C_18  and  C_19
REMARK                            x       y       z     vdW  Elec       q    Type
REMARK                         _______ _______ _______ _____ _____    ______ ____
ROOT
ATOM      1  C   UNL     1      43.531   5.620  11.182  0.00  0.00    +0.000 C 
ENDROOT
BRANCH   1   2
ATOM      2  N   UNL     1      43.410   4.313  10.558  0.00  0.00    +0.000 N 
ATOM      3  N   UNL     1      42.907   3.294  11.294  0.00  0.00    +0.000 NA
ATOM      4  N   UNL     1      43.556   2.195  10.931  0.00  0.00    +0.000 NA
ATOM      5  C   UNL     1      44.368   2.518   9.875  0.00  0.00    +0.000 A 
ATOM      6  C   UNL     1      45.329   1.756   9.203  0.00  0.00    +0.000 A 
ATOM      7  C   UNL     1      46.012   2.332   8.116  0.00  0.00    +0.000 A 
ATOM      8  C   UNL     1      45.690   3.631   7.690  0.00  0.00    +0.000 A 
ATOM      9  C   UNL     1      44.762   4.425   8.385  0.00  0.00    +0.000 A 
ATOM     10  C   UNL     1      44.157   3.839   9.504  0.00  0.00    +0.000 A 
BRANCH   7  11
ATOM     11  C   UNL     1      47.097   1.509   7.502  0.00  0.00    +0.000 C 
ATOM     12  N   UNL     1      46.982   0.155   7.497  0.00  0.00    +0.000 N 
ATOM     13  O   UNL     1      48.081   2.037   6.993  0.00  0.00    +0.000 OA
ATOM     14  H   UNL     1      46.228  -0.376   7.898  0.00  0.00    +0.000 HD
ATOM     15  H   UNL     1      47.736  -0.356   7.052  0.00  0.00    +0.000 HD
ENDBRANCH   7  11
ENDBRANCH   1   2
BRANCH   1  19
ATOM     16  C   UNL     1      47.371   6.116  13.140  0.00  0.00    +0.000 A 
ATOM     17  C   UNL     1      46.379   5.296  13.698  0.00  0.00    +0.000 A 
ATOM     18  C   UNL     1      45.165   5.089  13.045  0.00  0.00    +0.000 A 
ATOM     19  C   UNL     1      44.889   5.749  11.839  0.00  0.00    +0.000 A 
ATOM     20  C   UNL     1      45.855   6.622  11.314  0.00  0.00    +0.000 A 
ATOM     21  C   UNL     1      47.082   6.803  11.955  0.00  0.00    +0.000 A 
BRANCH  16  22
ATOM     22  C   UNL     1      48.716   6.309  13.806  0.00  0.00    +0.000 C 
BRANCH  22  23
ATOM     23  N   UNL     1      49.726   6.975  12.977  0.00  0.00    +0.000 NA
ATOM     24  H   UNL     1      50.434   6.286  12.734  0.00  0.00    +0.000 HD
BRANCH  23  25
ATOM     25  C   UNL     1      50.370   8.115  13.640  0.00  0.00    +0.000 C 
BRANCH  25  27
ATOM     26  C   UNL     1      49.641   9.379  11.555  0.00  0.00    +0.000 C 
ATOM     27  C   UNL     1      49.865   9.473  13.076  0.00  0.00    +0.000 C 
ATOM     28  C   UNL     1      50.867  10.600  13.380  0.00  0.00    +0.000 C 
ATOM     29  C   UNL     1      48.519   9.818  13.742  0.00  0.00    +0.000 C 
ENDBRANCH  25  27
ENDBRANCH  23  25
ENDBRANCH  22  23
ENDBRANCH  16  22
ENDBRANCH   1  19
TORSDOF 7
ENDMDL
MODEL 3
REMARK VINA RESULT:    -7.554      1.452      2.146
REMARK INTER + INTRA:         -11.414
REMARK INTER:                 -10.624
REMARK INTRA:                  -0.790
REMARK UNBOUND:                -0.769
REMARK  Name = 
REMARK  10 active torsions:
REMARK  status: ('A' for Active; 'I' for Inactive)
REMARK    1  A    between atoms: C_1  and  C_2
REMARK    2  A    between atoms: C_2  and  C_3
REMARK    3  A    between atoms: C_2  and  C_4
REMARK    4  A    between atoms: C_2  and  C_5
REMARK    5  A    between atoms: C_5  and  N_6
REMARK    6  A    between atoms: N_6  and  C_7
REMARK    7  A    between atoms: C_7  and  C_8
REMARK    8  A    between atoms: C_11  and  C_12
REMARK    9  A    between atoms: C_12  and  N_13
REMARK   10  A    between atoms: C_18  and  C_19
REMARK                            x       y       z     vdW  Elec       q    Type
REMARK                         _______ _______ _______ _____ _____    ______ ____
ROOT
ATOM      1  C   UNL     1      43.607   5.873  11.027  0.00  0.00    +0.000 C 
ENDROOT
BRANCH   1   2
ATOM      2  N   UNL     1      43.432   4.526  10.509  0.00  0.00    +0.000 N 
ATOM      3  N   UNL     1      42.895   3.588  11.325  0.00  0.00    +0.000 NA
ATOM      4  N   UNL     1      43.500   2.440  11.048  0.00  0.00    +0.000 NA
ATOM      5  C   UNL     1      44.316   2.648   9.967  0.00  0.00    +0.000 A 
ATOM      6  C   UNL     1      45.244   1.798   9.355  0.00  0.00    +0.000 A 
ATOM      7  C   UNL     1      45.941   2.260   8.223  0.00  0.00    +0.000 A 
ATOM      8  C   UNL     1      45.666   3.532   7.696  0.00  0.00    +0.000 A 
ATOM      9  C   UNL     1      44.773   4.414   8.330  0.00  0.00    +0.000 A 
ATOM     10  C   UNL     1      44.154   3.942   9.493  0.00  0.00    +0.000 A 
BRANCH   7  11
ATOM     11  C   UNL     1      46.990   1.350   7.673  0.00  0.00    +0.000 C 
ATOM     12  N   UNL     1      48.017   1.877   6.954  0.00  0.00    +0.000 N 
ATOM     13  O   UNL     1      46.946   0.140   7.872  0.00  0.00    +0.000 OA
ATOM     14  H   UNL     1      48.140   2.848   6.722  0.00  0.00    +0.000 HD
ATOM     15  H   UNL     1      48.712   1.219   6.620  0.00  0.00    +0.000 HD
ENDBRANCH   7  11
ENDBRANCH   1   2
BRANCH   1  19
ATOM     16  C   UNL     1      47.241   5.922  13.396  0.00  0.00    +0.000 A 
ATOM     17  C   UNL     1      47.174   6.594  12.167  0.00  0.00    +0.000 A 
ATOM     18  C   UNL     1      45.992   6.629  11.428  0.00  0.00    +0.000 A 
ATOM     19  C   UNL     1      44.858   5.936  11.877  0.00  0.00    +0.000 A 
ATOM     20  C   UNL     1      44.945   5.207  13.073  0.00  0.00    +0.000 A 
ATOM     21  C   UNL     1      46.122   5.200  13.825  0.00  0.00    +0.000 A 
BRANCH  16  22
ATOM     22  C   UNL     1      48.499   5.920  14.237  0.00  0.00    +0.000 C 
BRANCH  22  23
ATOM     23  N   UNL     1      48.273   5.924  15.686  0.00  0.00    +0.000 NA
ATOM     24  H   UNL     1      47.458   6.503  15.873  0.00  0.00    +0.000 HD
BRANCH  23  25
ATOM     25  C   UNL     1      49.414   6.433  16.457  0.00  0.00    +0.000 C 
BRANCH  25  27
ATOM     26  C   UNL     1      47.988   7.227  18.410  0.00  0.00    +0.000 C 
ATOM     27  C   UNL     1      49.017   7.647  17.343  0.00  0.00    +0.000 C 
ATOM     28  C   UNL     1      48.434   8.783  16.486  0.00  0.00    +0.000 C 
ATOM     29  C   UNL     1      50.275   8.169  18.063  0.00  0.00    +0.000 C 
ENDBRANCH  25  27
ENDBRANCH  23  25
ENDBRANCH  22  23
ENDBRANCH  16  22
ENDBRANCH   1  19
TORSDOF 7
ENDMDL
MODEL 4
REMARK VINA RESULT:    -6.458      3.030      4.414
REMARK INTER + INTRA:          -9.870
REMARK INTER:                  -9.041
REMARK INTRA:                  -0.829
REMARK UNBOUND:                -0.769
REMARK  Name = 
REMARK  10 active torsions:
REMARK  status: ('A' for Active; 'I' for Inactive)
REMARK    1  A    between atoms: C_1  and  C_2
REMARK    2  A    between atoms: C_2  and  C_3
REMARK    3  A    between atoms: C_2  and  C_4
REMARK    4  A    between atoms: C_2  and  C_5
REMARK    5  A    between atoms: C_5  and  N_6
REMARK    6  A    between atoms: N_6  and  C_7
REMARK    7  A    between atoms: C_7  and  C_8
REMARK    8  A    between atoms: C_11  and  C_12
REMARK    9  A    between atoms: C_12  and  N_13
REMARK   10  A    between atoms: C_18  and  C_19
REMARK                            x       y       z     vdW  Elec       q    Type
REMARK                         _______ _______ _______ _____ _____    ______ ____
ROOT
ATOM      1  C   UNL     1      43.703   5.907  13.024  0.00  0.00    +0.000 C 
ENDROOT
BRANCH   1   2
ATOM      2  N   UNL     1      43.516   4.609  12.399  0.00  0.00    +0.000 N 
ATOM      3  N   UNL     1      43.515   3.509  13.190  0.00  0.00    +0.000 NA
ATOM      4  N   UNL     1      44.100   2.536  12.503  0.00  0.00    +0.000 NA
ATOM      5  C   UNL     1      44.343   3.004  11.238  0.00  0.00    +0.000 A 
ATOM      6  C   UNL     1      45.033   2.419  10.171  0.00  0.00    +0.000 A 
ATOM      7  C   UNL     1      45.112   3.116   8.952  0.00  0.00    +0.000 A 
ATOM      8  C   UNL     1      44.463   4.352   8.803  0.00  0.00    +0.000 A 
ATOM      9  C   UNL     1      43.809   4.975   9.880  0.00  0.00    +0.000 A 
ATOM     10  C   UNL     1      43.814   4.280  11.096  0.00  0.00    +0.000 A 
BRANCH   7  11
ATOM     11  C   UNL     1      45.946   2.490   7.882  0.00  0.00    +0.000 C 
ATOM     12  N   UNL     1      46.215   3.193   6.751  0.00  0.00    +0.000 N 
ATOM     13  O   UNL     1      46.401   1.357   8.016  0.00  0.00    +0.000 OA
ATOM     14  H   UNL     1      45.881   4.118   6.536  0.00  0.00    +0.000 HD
ATOM     15  H   UNL     1      46.800   2.731   6.065  0.00  0.00    +0.000 HD
ENDBRANCH   7  11
ENDBRANCH   1   2
BRANCH   1  19
ATOM     16  C   UNL     1      47.588   7.587  12.072  0.00  0.00    +0.000 A 
ATOM     17  C   UNL     1      47.476   6.308  12.638  0.00  0.00    +0.000 A 
ATOM     18  C   UNL     1      46.228   5.741  12.894  0.00  0.00    +0.000 A 
ATOM     19  C   UNL     1      45.056   6.469  12.644  0.00  0.00    +0.000 A 
ATOM     20  C   UNL     1      45.170   7.774  12.140  0.00  0.00    +0.000 A 
ATOM     21  C   UNL     1      46.421   8.328  11.856  0.00  0.00    +0.000 A 
BRANCH  16  22
ATOM     22  C   UNL     1      48.932   8.195  11.736  0.00  0.00    +0.000 C 
BRANCH  22  23
ATOM     23  N   UNL     1      50.092   7.422  12.190  0.00  0.00    +0.000 NA
ATOM     24  H   UNL     1      49.826   6.929  13.040  0.00  0.00    +0.000 HD
BRANCH  23  25
ATOM     25  C   UNL     1      51.277   8.245  12.461  0.00  0.00    +0.000 C 
BRANCH  25  27
ATOM     26  C   UNL     1      51.927   7.107  10.279  0.00  0.00    +0.000 C 
ATOM     27  C   UNL     1      52.267   8.243  11.263  0.00  0.00    +0.000 C 
ATOM     28  C   UNL     1      53.717   8.083  11.751  0.00  0.00    +0.000 C 
ATOM     29  C   UNL     1      52.145   9.584  10.514  0.00  0.00    +0.000 C 
ENDBRANCH  25  27
ENDBRANCH  23  25
ENDBRANCH  22  23
ENDBRANCH  16  22
ENDBRANCH   1  19
TORSDOF 7
ENDMDL
MODEL 5
REMARK VINA RESULT:    -6.440      3.864      8.260
REMARK INTER + INTRA:          -9.844
REMARK INTER:                  -8.831
REMARK INTRA:                  -1.013
REMARK UNBOUND:                -0.769
REMARK  Name = 
REMARK  10 active torsions:
REMARK  status: ('A' for Active; 'I' for Inactive)
REMARK    1  A    between atoms: C_1  and  C_2
REMARK    2  A    between atoms: C_2  and  C_3
REMARK    3  A    between atoms: C_2  and  C_4
REMARK    4  A    between atoms: C_2  and  C_5
REMARK    5  A    between atoms: C_5  and  N_6
REMARK    6  A    between atoms: N_6  and  C_7
REMARK    7  A    between atoms: C_7  and  C_8
REMARK    8  A    between atoms: C_11  and  C_12
REMARK    9  A    between atoms: C_12  and  N_13
REMARK   10  A    between atoms: C_18  and  C_19
REMARK                            x       y       z     vdW  Elec       q    Type
REMARK                         _______ _______ _______ _____ _____    ______ ____
ROOT
ATOM      1  C   UNL     1      46.456   6.864  13.235  0.00  0.00    +0.000 C 
ENDROOT
BRANCH   1   2
ATOM      2  N   UNL     1      47.865   6.600  13.471  0.00  0.00    +0.000 N 
ATOM      3  N   UNL     1      48.232   6.098  14.674  0.00  0.00    +0.000 NA
ATOM      4  N   UNL     1      49.405   6.638  14.979  0.00  0.00    +0.000 NA
ATOM      5  C   UNL     1      49.822   7.371  13.899  0.00  0.00    +0.000 A 
ATOM      6  C   UNL     1      50.926   8.216  13.747  0.00  0.00    +0.000 A 
ATOM      7  C   UNL     1      51.139   8.836  12.502  0.00  0.00    +0.000 A 
ATOM      8  C   UNL     1      50.282   8.565  11.423  0.00  0.00    +0.000 A 
ATOM      9  C   UNL     1      49.141   7.757  11.575  0.00  0.00    +0.000 A 
ATOM     10  C   UNL     1      48.926   7.217  12.849  0.00  0.00    +0.000 A 
BRANCH   7  11
ATOM     11  C   UNL     1      52.274   9.804  12.428  0.00  0.00    +0.000 C 
ATOM     12  N   UNL     1      52.714  10.222  11.212  0.00  0.00    +0.000 N 
ATOM     13  O   UNL     1      52.805  10.237  13.447  0.00  0.00    +0.000 OA
ATOM     14  H   UNL     1      52.361   9.920  10.319  0.00  0.00    +0.000 HD
ATOM     15  H   UNL     1      53.473  10.893  11.217  0.00  0.00    +0.000 HD
ENDBRANCH   7  11
ENDBRANCH   1   2
BRANCH   1  19
ATOM     16  C   UNL     1      44.914   3.695  10.704  0.00  0.00    +0.000 A 
ATOM     17  C   UNL     1      45.248   3.448  12.044  0.00  0.00    +0.000 A 
ATOM     18  C   UNL     1      45.690   4.475  12.877  0.00  0.00    +0.000 A 
ATOM     19  C   UNL     1      45.868   5.770  12.369  0.00  0.00    +0.000 A 
ATOM     20  C   UNL     1      45.598   6.003  11.012  0.00  0.00    +0.000 A 
ATOM     21  C   UNL     1      45.126   4.978  10.188  0.00  0.00    +0.000 A 
BRANCH  16  22
ATOM     22  C   UNL     1      44.380   2.605   9.801  0.00  0.00    +0.000 C 
BRANCH  22  23
ATOM     23  N   UNL     1      45.360   2.042   8.865  0.00  0.00    +0.000 NA
ATOM     24  H   UNL     1      46.289   2.243   9.228  0.00  0.00    +0.000 HD
BRANCH  23  25
ATOM     25  C   UNL     1      45.247   2.579   7.504  0.00  0.00    +0.000 C 
BRANCH  25  27
ATOM     26  C   UNL     1      47.234   4.159   7.324  0.00  0.00    +0.000 C 
ATOM     27  C   UNL     1      46.641   2.815   6.859  0.00  0.00    +0.000 C 
ATOM     28  C   UNL     1      46.544   2.800   5.324  0.00  0.00    +0.000 C 
ATOM     29  C   UNL     1      47.592   1.687   7.303  0.00  0.00    +0.000 C 
ENDBRANCH  25  27
ENDBRANCH  23  25
ENDBRANCH  22  23
ENDBRANCH  16  22
ENDBRANCH   1  19
TORSDOF 7
ENDMDL
MODEL 6
REMARK VINA RESULT:    -6.195      3.862      5.624
REMARK INTER + INTRA:          -9.499
REMARK INTER:                  -7.548
REMARK INTRA:                  -1.951
REMARK UNBOUND:                -0.769
REMARK  Name = 
REMARK  10 active torsions:
REMARK  status: ('A' for Active; 'I' for Inactive)
REMARK    1  A    between atoms: C_1  and  C_2
REMARK    2  A    between atoms: C_2  and  C_3
REMARK    3  A    between atoms: C_2  and  C_4
REMARK    4  A    between atoms: C_2  and  C_5
REMARK    5  A    between atoms: C_5  and  N_6
REMARK    6  A    between atoms: N_6  and  C_7
REMARK    7  A    between atoms: C_7  and  C_8
REMARK    8  A    between atoms: C_11  and  C_12
REMARK    9  A    between atoms: C_12  and  N_13
REMARK   10  A    between atoms: C_18  and  C_19
REMARK                            x       y       z     vdW  Elec       q    Type
REMARK                         _______ _______ _______ _____ _____    ______ ____
ROOT
ATOM      1  C   UNL     1      49.227   9.154  12.937  0.00  0.00    +0.000 C 
ENDROOT
BRANCH   1   2
ATOM      2  N   UNL     1      47.943   8.987  12.278  0.00  0.00    +0.000 N 
ATOM      3  N   UNL     1      47.148  10.074  12.134  0.00  0.00    +0.000 NA
ATOM      4  N   UNL     1      45.895   9.661  12.278  0.00  0.00    +0.000 NA
ATOM      5  C   UNL     1      45.914   8.294  12.377  0.00  0.00    +0.000 A 
ATOM      6  C   UNL     1      44.881   7.390  12.648  0.00  0.00    +0.000 A 
ATOM      7  C   UNL     1      45.173   6.014  12.666  0.00  0.00    +0.000 A 
ATOM      8  C   UNL     1      46.469   5.564  12.366  0.00  0.00    +0.000 A 
ATOM      9  C   UNL     1      47.527   6.463  12.141  0.00  0.00    +0.000 A 
ATOM     10  C   UNL     1      47.208   7.825  12.202  0.00  0.00    +0.000 A 
BRANCH   7  11
ATOM     11  C   UNL     1      44.057   5.103  13.059  0.00  0.00    +0.000 C 
ATOM     12  N   UNL     1      42.783   5.576  13.061  0.00  0.00    +0.000 N 
ATOM     13  O   UNL     1      44.271   3.934  13.367  0.00  0.00    +0.000 OA
ATOM     14  H   UNL     1      42.500   6.516  12.841  0.00  0.00    +0.000 HD
ATOM     15  H   UNL     1      42.060   4.914  13.318  0.00  0.00    +0.000 HD
ENDBRANCH   7  11
ENDBRANCH   1   2
BRANCH   1  19
ATOM     16  C   UNL     1      49.110   7.762  17.045  0.00  0.00    +0.000 A 
ATOM     17  C   UNL     1      48.337   8.858  16.634  0.00  0.00    +0.000 A 
ATOM     18  C   UNL     1      48.328   9.274  15.303  0.00  0.00    +0.000 A 
ATOM     19  C   UNL     1      49.144   8.637  14.358  0.00  0.00    +0.000 A 
ATOM     20  C   UNL     1      49.968   7.583  14.782  0.00  0.00    +0.000 A 
ATOM     21  C   UNL     1      49.952   7.149  16.109  0.00  0.00    +0.000 A 
BRANCH  16  22
ATOM     22  C   UNL     1      49.091   7.262  18.472  0.00  0.00    +0.000 C 
BRANCH  22  23
ATOM     23  N   UNL     1      49.076   5.802  18.615  0.00  0.00    +0.000 NA
ATOM     24  H   UNL     1      49.810   5.423  18.022  0.00  0.00    +0.000 HD
BRANCH  23  25
ATOM     25  C   UNL     1      47.794   5.189  18.247  0.00  0.00    +0.000 C 
BRANCH  25  27
ATOM     26  C   UNL     1      47.147   2.789  17.699  0.00  0.00    +0.000 C 
ATOM     27  C   UNL     1      47.982   4.006  17.257  0.00  0.00    +0.000 C 
ATOM     28  C   UNL     1      49.463   3.605  17.158  0.00  0.00    +0.000 C 
ATOM     29  C   UNL     1      47.496   4.443  15.862  0.00  0.00    +0.000 C 
ENDBRANCH  25  27
ENDBRANCH  23  25
ENDBRANCH  22  23
ENDBRANCH  16  22
ENDBRANCH   1  19
TORSDOF 7
ENDMDL
MODEL 7
REMARK VINA RESULT:    -6.190      3.221      5.160
REMARK INTER + INTRA:          -9.492
REMARK INTER:                  -8.048
REMARK INTRA:                  -1.445
REMARK UNBOUND:                -0.769
REMARK  Name = 
REMARK  10 active torsions:
REMARK  status: ('A' for Active; 'I' for Inactive)
REMARK    1  A    between atoms: C_1  and  C_2
REMARK    2  A    between atoms: C_2  and  C_3
REMARK    3  A    between atoms: C_2  and  C_4
REMARK    4  A    between atoms: C_2  and  C_5
REMARK    5  A    between atoms: C_5  and  N_6
REMARK    6  A    between atoms: N_6  and  C_7
REMARK    7  A    between atoms: C_7  and  C_8
REMARK    8  A    between atoms: C_11  and  C_12
REMARK    9  A    between atoms: C_12  and  N_13
REMARK   10  A    between atoms: C_18  and  C_19
REMARK                            x       y       z     vdW  Elec       q    Type
REMARK                         _______ _______ _______ _____ _____    ______ ____
ROOT
ATOM      1  C   UNL     1      48.812   6.779  13.349  0.00  0.00    +0.000 C 
ENDROOT
BRANCH   1   2
ATOM      2  N   UNL     1      47.658   5.993  13.752  0.00  0.00    +0.000 N 
ATOM      3  N   UNL     1      47.810   5.095  14.754  0.00  0.00    +0.000 NA
ATOM      4  N   UNL     1      47.046   4.051  14.460  0.00  0.00    +0.000 NA
ATOM      5  C   UNL     1      46.321   4.366  13.340  0.00  0.00    +0.000 A 
ATOM      6  C   UNL     1      45.460   3.580  12.566  0.00  0.00    +0.000 A 
ATOM      7  C   UNL     1      44.811   4.169  11.466  0.00  0.00    +0.000 A 
ATOM      8  C   UNL     1      44.991   5.534  11.189  0.00  0.00    +0.000 A 
ATOM      9  C   UNL     1      45.890   6.323  11.928  0.00  0.00    +0.000 A 
ATOM     10  C   UNL     1      46.570   5.680  12.970  0.00  0.00    +0.000 A 
BRANCH   7  11
ATOM     11  C   UNL     1      43.985   3.259  10.617  0.00  0.00    +0.000 C 
ATOM     12  N   UNL     1      44.134   3.292   9.267  0.00  0.00    +0.000 N 
ATOM     13  O   UNL     1      43.186   2.475  11.122  0.00  0.00    +0.000 OA
ATOM     14  H   UNL     1      44.746   3.903   8.754  0.00  0.00    +0.000 HD
ATOM     15  H   UNL     1      43.564   2.641   8.739  0.00  0.00    +0.000 HD
ENDBRANCH   7  11
ENDBRANCH   1   2
BRANCH   1  19
ATOM     16  C   UNL     1      50.012   9.211  16.736  0.00  0.00    +0.000 A 
ATOM     17  C   UNL     1      50.816   8.153  16.289  0.00  0.00    +0.000 A 
ATOM     18  C   UNL     1      50.463   7.404  15.167  0.00  0.00    +0.000 A 
ATOM     19  C   UNL     1      49.258   7.659  14.497  0.00  0.00    +0.000 A 
ATOM     20  C   UNL     1      48.421   8.675  14.984  0.00  0.00    +0.000 A 
ATOM     21  C   UNL     1      48.792   9.443  16.090  0.00  0.00    +0.000 A 
BRANCH  16  22
ATOM     22  C   UNL     1      50.406  10.070  17.917  0.00  0.00    +0.000 C 
BRANCH  22  23
ATOM     23  N   UNL     1      49.515   9.972  19.077  0.00  0.00    +0.000 NA
ATOM     24  H   UNL     1      49.825  10.652  19.767  0.00  0.00    +0.000 HD
BRANCH  23  25
ATOM     25  C   UNL     1      49.493   8.638  19.690  0.00  0.00    +0.000 C 
BRANCH  25  27
ATOM     26  C   UNL     1      47.988   6.857  18.670  0.00  0.00    +0.000 C 
ATOM     27  C   UNL     1      48.067   8.020  19.678  0.00  0.00    +0.000 C 
ATOM     28  C   UNL     1      47.013   9.081  19.323  0.00  0.00    +0.000 C 
ATOM     29  C   UNL     1      47.754   7.465  21.081  0.00  0.00    +0.000 C 
ENDBRANCH  25  27
ENDBRANCH  23  25
ENDBRANCH  22  23
ENDBRANCH  16  22
ENDBRANCH   1  19
TORSDOF 7
ENDMDL
MODEL 8
REMARK VINA RESULT:    -6.066      3.424      6.177
REMARK INTER + INTRA:          -9.318
REMARK INTER:                  -8.896
REMARK INTRA:                  -0.422
REMARK UNBOUND:                -0.769
REMARK  Name = 
REMARK  10 active torsions:
REMARK  status: ('A' for Active; 'I' for Inactive)
REMARK    1  A    between atoms: C_1  and  C_2
REMARK    2  A    between atoms: C_2  and  C_3
REMARK    3  A    between atoms: C_2  and  C_4
REMARK    4  A    between atoms: C_2  and  C_5
REMARK    5  A    between atoms: C_5  and  N_6
REMARK    6  A    between atoms: N_6  and  C_7
REMARK    7  A    between atoms: C_7  and  C_8
REMARK    8  A    between atoms: C_11  and  C_12
REMARK    9  A    between atoms: C_12  and  N_13
REMARK   10  A    between atoms: C_18  and  C_19
REMARK                            x       y       z     vdW  Elec       q    Type
REMARK                         _______ _______ _______ _____ _____    ______ ____
ROOT
ATOM      1  C   UNL     1      47.173   4.234  16.089  0.00  0.00    +0.000 C 
ENDROOT
BRANCH   1   2
ATOM      2  N   UNL     1      47.391   4.719  14.736  0.00  0.00    +0.000 N 
ATOM      3  N   UNL     1      48.008   5.913  14.574  0.00  0.00    +0.000 NA
ATOM      4  N   UNL     1      47.448   6.499  13.522  0.00  0.00    +0.000 NA
ATOM      5  C   UNL     1      46.578   5.604  12.959  0.00  0.00    +0.000 A 
ATOM      6  C   UNL     1      45.667   5.762  11.908  0.00  0.00    +0.000 A 
ATOM      7  C   UNL     1      44.901   4.654  11.503  0.00  0.00    +0.000 A 
ATOM      8  C   UNL     1      45.090   3.404  12.115  0.00  0.00    +0.000 A 
ATOM      9  C   UNL     1      45.965   3.242  13.204  0.00  0.00    +0.000 A 
ATOM     10  C   UNL     1      46.656   4.387  13.621  0.00  0.00    +0.000 A 
BRANCH   7  11
ATOM     11  C   UNL     1      43.875   4.907  10.447  0.00  0.00    +0.000 C 
ATOM     12  N   UNL     1      44.095   4.453   9.185  0.00  0.00    +0.000 N 
ATOM     13  O   UNL     1      42.834   5.504  10.705  0.00  0.00    +0.000 OA
ATOM     14  H   UNL     1      44.916   3.967   8.865  0.00  0.00    +0.000 HD
ATOM     15  H   UNL     1      43.360   4.634   8.511  0.00  0.00    +0.000 HD
ENDBRANCH   7  11
ENDBRANCH   1   2
BRANCH   1  19
ATOM     16  C   UNL     1      51.049   3.829  17.994  0.00  0.00    +0.000 A 
ATOM     17  C   UNL     1      50.426   5.081  17.890  0.00  0.00    +0.000 A 
ATOM     18  C   UNL     1      49.156   5.209  17.329  0.00  0.00    +0.000 A 
ATOM     19  C   UNL     1      48.501   4.087  16.801  0.00  0.00    +0.000 A 
ATOM     20  C   UNL     1      49.152   2.845  16.845  0.00  0.00    +0.000 A 
ATOM     21  C   UNL     1      50.412   2.716  17.434  0.00  0.00    +0.000 A 
BRANCH  16  22
ATOM     22  C   UNL     1      52.403   3.663  18.649  0.00  0.00    +0.000 C 
BRANCH  22  23
ATOM     23  N   UNL     1      52.847   2.274  18.808  0.00  0.00    +0.000 NA
ATOM     24  H   UNL     1      52.477   1.928  19.690  0.00  0.00    +0.000 HD
BRANCH  23  25
ATOM     25  C   UNL     1      54.306   2.120  18.803  0.00  0.00    +0.000 C 
BRANCH  25  27
ATOM     26  C   UNL     1      55.638  -0.022  18.466  0.00  0.00    +0.000 C 
ATOM     27  C   UNL     1      54.770   1.049  17.777  0.00  0.00    +0.000 C 
ATOM     28  C   UNL     1      55.565   1.695  16.630  0.00  0.00    +0.000 C 
ATOM     29  C   UNL     1      53.528   0.356  17.185  0.00  0.00    +0.000 C 
ENDBRANCH  25  27
ENDBRANCH  23  25
ENDBRANCH  22  23
ENDBRANCH  16  22
ENDBRANCH   1  19
TORSDOF 7
ENDMDL
