MODEL 1
REMARK VINA RESULT:    -7.254      0.000      0.000
REMARK INTER + INTRA:         -10.047
REMARK INTER:                 -10.011
REMARK INTRA:                  -0.036
REMARK UNBOUND:                -0.036
REMARK  Name = 
REMARK  8 active torsions:
REMARK  status: ('A' for Active; 'I' for Inactive)
REMARK    1  A    between atoms: C_1  and  O_2
REMARK    2  A    between atoms: O_2  and  C_3
REMARK    3  A    between atoms: C_5  and  C_6
REMARK    4  A    between atoms: C_6  and  C_7
REMARK    5  A    between atoms: C_10  and  O_11
REMARK    6  A    between atoms: O_11  and  C_12
REMARK    7  A    between atoms: C_12  and  C_13
REMARK    8  A    between atoms: C_13  and  O_14
REMARK                            x       y       z     vdW  Elec       q    Type
REMARK                         _______ _______ _______ _____ _____    ______ ____
ROOT
ATOM      1  C   UNL     1      44.399   5.162  11.804  0.00  0.00    +0.000 C 
ATOM      2  C   UNL     1      43.362   6.285  11.854  0.00  0.00    +0.000 C 
ATOM      3  C   UNL     1      43.039   4.979  12.501  0.00  0.00    +0.000 C 
ENDROOT
BRANCH   1   6
ATOM      4  C   UNL     1      47.102   4.310  14.292  0.00  0.00    +0.000 A 
ATOM      5  C   UNL     1      46.051   4.119  13.427  0.00  0.00    +0.000 A 
ATOM      6  C   UNL     1      45.629   5.224  12.706  0.00  0.00    +0.000 A 
ATOM      7  N   UNL     1      46.269   6.413  12.828  0.00  0.00    +0.000 NA
ATOM      8  C   UNL     1      47.297   6.473  13.680  0.00  0.00    +0.000 A 
ATOM      9  N   UNL     1      47.751   5.473  14.439  0.00  0.00    +0.000 NA
BRANCH   4  11
ATOM     10  C   UNL     1      47.729   3.559  16.405  0.00  0.00    +0.000 C 
ATOM     11  O   UNL     1      47.496   3.220  15.040  0.00  0.00    +0.000 OA
ENDBRANCH   4  11
ENDBRANCH   1   6
BRANCH   1  12
ATOM     12  C   UNL     1      44.528   4.340  10.529  0.00  0.00    +0.000 A 
ATOM     13  C   UNL     1      45.162   4.869   9.395  0.00  0.00    +0.000 A 
ATOM     14  C   UNL     1      45.578   4.033   8.366  0.00  0.00    +0.000 A 
ATOM     15  C   UNL     1      45.303   2.685   8.482  0.00  0.00    +0.000 A 
ATOM     16  N   UNL     1      44.556   2.153   9.468  0.00  0.00    +0.000 NA
ATOM     17  C   UNL     1      44.181   2.992  10.463  0.00  0.00    +0.000 A 
BRANCH  15  18
ATOM     18  O   UNL     1      45.958   1.856   7.592  0.00  0.00    +0.000 OA
BRANCH  18  19
ATOM     19  C   UNL     1      46.680   2.565   6.582  0.00  0.00    +0.000 C 
BRANCH  19  20
ATOM     20  C   UNL     1      48.144   2.143   6.666  0.00  0.00    +0.000 C 
BRANCH  20  21
ATOM     21  O   UNL     1      48.638   1.767   5.379  0.00  0.00    +0.000 OA
ATOM     22  H   UNL     1      47.995   2.098   4.725  0.00  0.00    +0.000 HD
ENDBRANCH  20  21
ENDBRANCH  19  20
ENDBRANCH  18  19
ENDBRANCH  15  18
ENDBRANCH   1  12
TORSDOF 7
ENDMDL
MODEL 2
REMARK VINA RESULT:    -7.027      1.265      1.819
REMARK INTER + INTRA:          -9.733
REMARK INTER:                  -9.676
REMARK INTRA:                  -0.056
REMARK UNBOUND:                -0.036
REMARK  Name = 
REMARK  8 active torsions:
REMARK  status: ('A' for Active; 'I' for Inactive)
REMARK    1  A    between atoms: C_1  and  O_2
REMARK    2  A    between atoms: O_2  and  C_3
REMARK    3  A    between atoms: C_5  and  C_6
REMARK    4  A    between atoms: C_6  and  C_7
REMARK    5  A    between atoms: C_10  and  O_11
REMARK    6  A    between atoms: O_11  and  C_12
REMARK    7  A    between atoms: C_12  and  C_13
REMARK    8  A    between atoms: C_13  and  O_14
REMARK                            x       y       z     vdW  Elec       q    Type
REMARK                         _______ _______ _______ _____ _____    ______ ____
ROOT
ATOM      1  C   UNL     1      44.295   5.005  11.924  0.00  0.00    +0.000 C 
ATOM      2  C   UNL     1      43.193   6.060  12.035  0.00  0.00    +0.000 C 
ATOM      3  C   UNL     1      42.953   4.708  12.617  0.00  0.00    +0.000 C 
ENDROOT
BRANCH   1   6
ATOM      4  C   UNL     1      47.408   6.215  13.674  0.00  0.00    +0.000 A 
ATOM      5  C   UNL     1      46.256   6.269  12.926  0.00  0.00    +0.000 A 
ATOM      6  C   UNL     1      45.525   5.096  12.822  0.00  0.00    +0.000 A 
ATOM      7  N   UNL     1      45.921   3.977  13.476  0.00  0.00    +0.000 NA
ATOM      8  C   UNL     1      47.044   4.050  14.196  0.00  0.00    +0.000 A 
ATOM      9  N   UNL     1      47.828   5.122  14.327  0.00  0.00    +0.000 NA
BRANCH   4  11
ATOM     10  C   UNL     1      49.382   7.264  13.025  0.00  0.00    +0.000 C 
ATOM     11  O   UNL     1      48.157   7.371  13.745  0.00  0.00    +0.000 OA
ENDBRANCH   4  11
ENDBRANCH   1   6
BRANCH   1  12
ATOM     12  C   UNL     1      44.462   4.257  10.609  0.00  0.00    +0.000 A 
ATOM     13  C   UNL     1      45.104   4.860   9.516  0.00  0.00    +0.000 A 
ATOM     14  C   UNL     1      45.555   4.091   8.452  0.00  0.00    +0.000 A 
ATOM     15  C   UNL     1      45.307   2.733   8.488  0.00  0.00    +0.000 A 
ATOM     16  N   UNL     1      44.555   2.133   9.431  0.00  0.00    +0.000 NA
ATOM     17  C   UNL     1      44.145   2.909  10.463  0.00  0.00    +0.000 A 
BRANCH  15  18
ATOM     18  O   UNL     1      45.993   1.968   7.567  0.00  0.00    +0.000 OA
BRANCH  18  19
ATOM     19  C   UNL     1      46.705   2.746   6.601  0.00  0.00    +0.000 C 
BRANCH  19  20
ATOM     20  C   UNL     1      48.163   2.295   6.615  0.00  0.00    +0.000 C 
BRANCH  20  21
ATOM     21  O   UNL     1      48.574   1.867   5.315  0.00  0.00    +0.000 OA
ATOM     22  H   UNL     1      49.164   2.560   4.966  0.00  0.00    +0.000 HD
ENDBRANCH  20  21
ENDBRANCH  19  20
ENDBRANCH  18  19
ENDBRANCH  15  18
ENDBRANCH   1  12
TORSDOF 7
ENDMDL
MODEL 3
REMARK VINA RESULT:    -6.824      2.129      6.532
REMARK INTER + INTRA:          -9.453
REMARK INTER:                  -9.291
REMARK INTRA:                  -0.163
REMARK UNBOUND:                -0.036
REMARK  Name = 
REMARK  8 active torsions:
REMARK  status: ('A' for Active; 'I' for Inactive)
REMARK    1  A    between atoms: C_1  and  O_2
REMARK    2  A    between atoms: O_2  and  C_3
REMARK    3  A    between atoms: C_5  and  C_6
REMARK    4  A    between atoms: C_6  and  C_7
REMARK    5  A    between atoms: C_10  and  O_11
REMARK    6  A    between atoms: O_11  and  C_12
REMARK    7  A    between atoms: C_12  and  C_13
REMARK    8  A    between atoms: C_13  and  O_14
REMARK                            x       y       z     vdW  Elec       q    Type
REMARK                         _______ _______ _______ _____ _____    ______ ____
ROOT
ATOM      1  C   UNL     1      44.457   4.541  11.086  0.00  0.00    +0.000 C 
ATOM      2  C   UNL     1      43.171   3.987  11.702  0.00  0.00    +0.000 C 
ATOM      3  C   UNL     1      43.116   5.287  10.972  0.00  0.00    +0.000 C 
ENDROOT
BRANCH   1   6
ATOM      4  C   UNL     1      45.704   2.097   8.499  0.00  0.00    +0.000 A 
ATOM      5  C   UNL     1      45.090   2.550   9.642  0.00  0.00    +0.000 A 
ATOM      6  C   UNL     1      45.011   3.924   9.805  0.00  0.00    +0.000 A 
ATOM      7  N   UNL     1      45.479   4.760   8.846  0.00  0.00    +0.000 NA
ATOM      8  C   UNL     1      46.033   4.205   7.763  0.00  0.00    +0.000 A 
ATOM      9  N   UNL     1      46.182   2.899   7.536  0.00  0.00    +0.000 NA
BRANCH   4  11
ATOM     10  C   UNL     1      46.917   0.366   7.523  0.00  0.00    +0.000 C 
ATOM     11  O   UNL     1      45.819   0.730   8.355  0.00  0.00    +0.000 OA
ENDBRANCH   4  11
ENDBRANCH   1   6
BRANCH   1  12
ATOM     12  C   UNL     1      45.456   5.250  11.990  0.00  0.00    +0.000 A 
ATOM     13  C   UNL     1      45.806   4.709  13.237  0.00  0.00    +0.000 A 
ATOM     14  C   UNL     1      46.940   5.154  13.905  0.00  0.00    +0.000 A 
ATOM     15  C   UNL     1      47.672   6.171  13.323  0.00  0.00    +0.000 A 
ATOM     16  N   UNL     1      47.288   6.832  12.214  0.00  0.00    +0.000 NA
ATOM     17  C   UNL     1      46.188   6.362  11.580  0.00  0.00    +0.000 A 
BRANCH  15  18
ATOM     18  O   UNL     1      48.921   6.401  13.863  0.00  0.00    +0.000 OA
BRANCH  18  19
ATOM     19  C   UNL     1      49.253   7.789  13.954  0.00  0.00    +0.000 C 
BRANCH  19  20
ATOM     20  C   UNL     1      48.539   8.365  15.174  0.00  0.00    +0.000 C 
BRANCH  20  21
ATOM     21  O   UNL     1      47.269   8.907  14.809  0.00  0.00    +0.000 OA
ATOM     22  H   UNL     1      47.425   9.498  14.050  0.00  0.00    +0.000 HD
ENDBRANCH  20  21
ENDBRANCH  19  20
ENDBRANCH  18  19
ENDBRANCH  15  18
ENDBRANCH   1  12
TORSDOF 7
ENDMDL
MODEL 4
REMARK VINA RESULT:    -6.708      2.635      3.083
REMARK INTER + INTRA:          -9.293
REMARK INTER:                  -9.504
REMARK INTRA:                   0.211
REMARK UNBOUND:                -0.036
REMARK  Name = 
REMARK  8 active torsions:
REMARK  status: ('A' for Active; 'I' for Inactive)
REMARK    1  A    between atoms: C_1  and  O_2
REMARK    2  A    between atoms: O_2  and  C_3
REMARK    3  A    between atoms: C_5  and  C_6
REMARK    4  A    between atoms: C_6  and  C_7
REMARK    5  A    between atoms: C_10  and  O_11
REMARK    6  A    between atoms: O_11  and  C_12
REMARK    7  A    between atoms: C_12  and  C_13
REMARK    8  A    between atoms: C_13  and  O_14
REMARK                            x       y       z     vdW  Elec       q    Type
REMARK                         _______ _______ _______ _____ _____    ______ ____
ROOT
ATOM      1  C   UNL     1      43.986   5.755  11.497  0.00  0.00    +0.000 C 
ATOM      2  C   UNL     1      42.502   5.532  11.795  0.00  0.00    +0.000 C 
ATOM      3  C   UNL     1      43.516   4.936  12.713  0.00  0.00    +0.000 C 
ENDROOT
BRANCH   1   6
ATOM      4  C   UNL     1      46.072   8.522  12.983  0.00  0.00    +0.000 A 
ATOM      5  C   UNL     1      45.644   7.245  12.715  0.00  0.00    +0.000 A 
ATOM      6  C   UNL     1      44.622   7.112  11.788  0.00  0.00    +0.000 A 
ATOM      7  N   UNL     1      44.120   8.199  11.154  0.00  0.00    +0.000 NA
ATOM      8  C   UNL     1      44.634   9.390  11.476  0.00  0.00    +0.000 A 
ATOM      9  N   UNL     1      45.592   9.618  12.377  0.00  0.00    +0.000 NA
BRANCH   4  11
ATOM     10  C   UNL     1      48.130   9.488  13.485  0.00  0.00    +0.000 C 
ATOM     11  O   UNL     1      47.061   8.659  13.935  0.00  0.00    +0.000 OA
ENDBRANCH   4  11
ENDBRANCH   1   6
BRANCH   1  12
ATOM     12  C   UNL     1      44.655   4.901  10.429  0.00  0.00    +0.000 A 
ATOM     13  C   UNL     1      44.195   3.605  10.154  0.00  0.00    +0.000 A 
ATOM     14  C   UNL     1      44.565   2.959   8.981  0.00  0.00    +0.000 A 
ATOM     15  C   UNL     1      45.431   3.618   8.130  0.00  0.00    +0.000 A 
ATOM     16  N   UNL     1      46.026   4.790   8.425  0.00  0.00    +0.000 NA
ATOM     17  C   UNL     1      45.630   5.399   9.568  0.00  0.00    +0.000 A 
BRANCH  15  18
ATOM     18  O   UNL     1      45.563   3.079   6.866  0.00  0.00    +0.000 OA
BRANCH  18  19
ATOM     19  C   UNL     1      46.858   3.282   6.295  0.00  0.00    +0.000 C 
BRANCH  19  20
ATOM     20  C   UNL     1      47.750   2.121   6.724  0.00  0.00    +0.000 C 
BRANCH  20  21
ATOM     21  O   UNL     1      48.608   1.719   5.655  0.00  0.00    +0.000 OA
ATOM     22  H   UNL     1      49.407   1.341   6.065  0.00  0.00    +0.000 HD
ENDBRANCH  20  21
ENDBRANCH  19  20
ENDBRANCH  18  19
ENDBRANCH  15  18
ENDBRANCH   1  12
TORSDOF 7
ENDMDL
MODEL 5
REMARK VINA RESULT:    -6.525      1.974      6.805
REMARK INTER + INTRA:          -9.040
REMARK INTER:                  -8.902
REMARK INTRA:                  -0.138
REMARK UNBOUND:                -0.036
REMARK  Name = 
REMARK  8 active torsions:
REMARK  status: ('A' for Active; 'I' for Inactive)
REMARK    1  A    between atoms: C_1  and  O_2
REMARK    2  A    between atoms: O_2  and  C_3
REMARK    3  A    between atoms: C_5  and  C_6
REMARK    4  A    between atoms: C_6  and  C_7
REMARK    5  A    between atoms: C_10  and  O_11
REMARK    6  A    between atoms: O_11  and  C_12
REMARK    7  A    between atoms: C_12  and  C_13
REMARK    8  A    between atoms: C_13  and  O_14
REMARK                            x       y       z     vdW  Elec       q    Type
REMARK                         _______ _______ _______ _____ _____    ______ ____
ROOT
ATOM      1  C   UNL     1      44.126   5.051  11.566  0.00  0.00    +0.000 C 
ATOM      2  C   UNL     1      42.703   4.913  12.111  0.00  0.00    +0.000 C 
ATOM      3  C   UNL     1      43.037   6.097  11.266  0.00  0.00    +0.000 C 
ENDROOT
BRANCH   1   6
ATOM      4  C   UNL     1      45.613   3.854   8.315  0.00  0.00    +0.000 A 
ATOM      5  C   UNL     1      45.351   4.694   9.371  0.00  0.00    +0.000 A 
ATOM      6  C   UNL     1      44.579   4.178  10.400  0.00  0.00    +0.000 A 
ATOM      7  N   UNL     1      44.159   2.890  10.368  0.00  0.00    +0.000 NA
ATOM      8  C   UNL     1      44.498   2.159   9.302  0.00  0.00    +0.000 A 
ATOM      9  N   UNL     1      45.207   2.578   8.252  0.00  0.00    +0.000 NA
BRANCH   4  11
ATOM     10  C   UNL     1      46.767   3.377   6.350  0.00  0.00    +0.000 C 
ATOM     11  O   UNL     1      46.347   4.380   7.272  0.00  0.00    +0.000 OA
ENDBRANCH   4  11
ENDBRANCH   1   6
BRANCH   1  12
ATOM     12  C   UNL     1      45.215   5.578  12.490  0.00  0.00    +0.000 A 
ATOM     13  C   UNL     1      45.766   4.761  13.489  0.00  0.00    +0.000 A 
ATOM     14  C   UNL     1      46.965   5.105  14.099  0.00  0.00    +0.000 A 
ATOM     15  C   UNL     1      47.561   6.293  13.722  0.00  0.00    +0.000 A 
ATOM     16  N   UNL     1      46.992   7.187  12.891  0.00  0.00    +0.000 NA
ATOM     17  C   UNL     1      45.832   6.812  12.302  0.00  0.00    +0.000 A 
BRANCH  15  18
ATOM     18  O   UNL     1      48.866   6.473  14.137  0.00  0.00    +0.000 OA
BRANCH  18  19
ATOM     19  C   UNL     1      48.973   6.964  15.476  0.00  0.00    +0.000 C 
BRANCH  19  20
ATOM     20  C   UNL     1      48.946   8.489  15.423  0.00  0.00    +0.000 C 
BRANCH  20  21
ATOM     21  O   UNL     1      47.605   8.975  15.503  0.00  0.00    +0.000 OA
ATOM     22  H   UNL     1      47.027   8.254  15.194  0.00  0.00    +0.000 HD
ENDBRANCH  20  21
ENDBRANCH  19  20
ENDBRANCH  18  19
ENDBRANCH  15  18
ENDBRANCH   1  12
TORSDOF 7
ENDMDL
MODEL 6
REMARK VINA RESULT:    -6.283      2.544      6.807
REMARK INTER + INTRA:          -8.706
REMARK INTER:                  -8.726
REMARK INTRA:                   0.021
REMARK UNBOUND:                -0.036
REMARK  Name = 
REMARK  8 active torsions:
REMARK  status: ('A' for Active; 'I' for Inactive)
REMARK    1  A    between atoms: C_1  and  O_2
REMARK    2  A    between atoms: O_2  and  C_3
REMARK    3  A    between atoms: C_5  and  C_6
REMARK    4  A    between atoms: C_6  and  C_7
REMARK    5  A    between atoms: C_10  and  O_11
REMARK    6  A    between atoms: O_11  and  C_12
REMARK    7  A    between atoms: C_12  and  C_13
REMARK    8  A    between atoms: C_13  and  O_14
REMARK                            x       y       z     vdW  Elec       q    Type
REMARK                         _______ _______ _______ _____ _____    ______ ____
ROOT
ATOM      1  C   UNL     1      46.419   6.400  12.818  0.00  0.00    +0.000 C 
ATOM      2  C   UNL     1      46.560   7.920  12.714  0.00  0.00    +0.000 C 
ATOM      3  C   UNL     1      47.358   7.060  11.793  0.00  0.00    +0.000 C 
ENDROOT
BRANCH   1   6
ATOM      4  C   UNL     1      44.008   4.523  10.608  0.00  0.00    +0.000 A 
ATOM      5  C   UNL     1      45.207   5.009  11.073  0.00  0.00    +0.000 A 
ATOM      6  C   UNL     1      45.172   5.714  12.265  0.00  0.00    +0.000 A 
ATOM      7  N   UNL     1      44.010   5.861  12.947  0.00  0.00    +0.000 NA
ATOM      8  C   UNL     1      42.911   5.321  12.412  0.00  0.00    +0.000 A 
ATOM      9  N   UNL     1      42.842   4.656  11.256  0.00  0.00    +0.000 NA
BRANCH   4  11
ATOM     10  C   UNL     1      44.445   2.498   9.545  0.00  0.00    +0.000 C 
ATOM     11  O   UNL     1      44.035   3.856   9.401  0.00  0.00    +0.000 OA
ENDBRANCH   4  11
ENDBRANCH   1   6
BRANCH   1  12
ATOM     12  C   UNL     1      47.168   5.669  13.924  0.00  0.00    +0.000 A 
ATOM     13  C   UNL     1      48.040   6.361  14.779  0.00  0.00    +0.000 A 
ATOM     14  C   UNL     1      48.456   5.789  15.974  0.00  0.00    +0.000 A 
ATOM     15  C   UNL     1      48.021   4.510  16.261  0.00  0.00    +0.000 A 
ATOM     16  N   UNL     1      47.319   3.745  15.402  0.00  0.00    +0.000 NA
ATOM     17  C   UNL     1      46.917   4.340  14.253  0.00  0.00    +0.000 A 
BRANCH  15  18
ATOM     18  O   UNL     1      48.222   4.079  17.557  0.00  0.00    +0.000 OA
BRANCH  18  19
ATOM     19  C   UNL     1      48.442   2.670  17.659  0.00  0.00    +0.000 C 
BRANCH  19  20
ATOM     20  C   UNL     1      49.870   2.382  17.203  0.00  0.00    +0.000 C 
BRANCH  20  21
ATOM     21  O   UNL     1      49.870   1.609  16.001  0.00  0.00    +0.000 OA
ATOM     22  H   UNL     1      50.166   0.713  16.245  0.00  0.00    +0.000 HD
ENDBRANCH  20  21
ENDBRANCH  19  20
ENDBRANCH  18  19
ENDBRANCH  15  18
ENDBRANCH   1  12
TORSDOF 7
ENDMDL
MODEL 7
REMARK VINA RESULT:    -6.127      1.578      6.833
REMARK INTER + INTRA:          -8.491
REMARK INTER:                  -8.668
REMARK INTRA:                   0.177
REMARK UNBOUND:                -0.036
REMARK  Name = 
REMARK  8 active torsions:
REMARK  status: ('A' for Active; 'I' for Inactive)
REMARK    1  A    between atoms: C_1  and  O_2
REMARK    2  A    between atoms: O_2  and  C_3
REMARK    3  A    between atoms: C_5  and  C_6
REMARK    4  A    between atoms: C_6  and  C_7
REMARK    5  A    between atoms: C_10  and  O_11
REMARK    6  A    between atoms: O_11  and  C_12
REMARK    7  A    between atoms: C_12  and  C_13
REMARK    8  A    between atoms: C_13  and  O_14
REMARK                            x       y       z     vdW  Elec       q    Type
REMARK                         _______ _______ _______ _____ _____    ______ ____
ROOT
ATOM      1  C   UNL     1      44.803   5.005  11.555  0.00  0.00    +0.000 C 
ATOM      2  C   UNL     1      43.411   5.352  12.087  0.00  0.00    +0.000 C 
ATOM      3  C   UNL     1      44.192   6.406  11.376  0.00  0.00    +0.000 C 
ENDROOT
BRANCH   1   6
ATOM      4  C   UNL     1      45.624   3.807   8.076  0.00  0.00    +0.000 A 
ATOM      5  C   UNL     1      45.650   4.603   9.195  0.00  0.00    +0.000 A 
ATOM      6  C   UNL     1      44.943   4.151  10.298  0.00  0.00    +0.000 A 
ATOM      7  N   UNL     1      44.308   2.955  10.267  0.00  0.00    +0.000 NA
ATOM      8  C   UNL     1      44.374   2.252   9.132  0.00  0.00    +0.000 A 
ATOM      9  N   UNL     1      45.000   2.622   8.012  0.00  0.00    +0.000 NA
BRANCH   4  11
ATOM     10  C   UNL     1      46.729   3.219   6.112  0.00  0.00    +0.000 C 
ATOM     11  O   UNL     1      46.293   4.275   6.964  0.00  0.00    +0.000 OA
ENDBRANCH   4  11
ENDBRANCH   1   6
BRANCH   1  12
ATOM     12  C   UNL     1      45.975   4.989  12.527  0.00  0.00    +0.000 A 
ATOM     13  C   UNL     1      46.718   6.153  12.774  0.00  0.00    +0.000 A 
ATOM     14  C   UNL     1      47.551   6.236  13.882  0.00  0.00    +0.000 A 
ATOM     15  C   UNL     1      47.653   5.123  14.695  0.00  0.00    +0.000 A 
ATOM     16  N   UNL     1      47.090   3.933  14.411  0.00  0.00    +0.000 NA
ATOM     17  C   UNL     1      46.272   3.892  13.332  0.00  0.00    +0.000 A 
BRANCH  15  18
ATOM     18  O   UNL     1      48.262   5.321  15.918  0.00  0.00    +0.000 OA
BRANCH  18  19
ATOM     19  C   UNL     1      47.904   4.341  16.895  0.00  0.00    +0.000 C 
BRANCH  19  20
ATOM     20  C   UNL     1      49.191   3.767  17.482  0.00  0.00    +0.000 C 
BRANCH  20  21
ATOM     21  O   UNL     1      49.680   2.694  16.676  0.00  0.00    +0.000 OA
ATOM     22  H   UNL     1      49.507   1.872  17.170  0.00  0.00    +0.000 HD
ENDBRANCH  20  21
ENDBRANCH  19  20
ENDBRANCH  18  19
ENDBRANCH  15  18
ENDBRANCH   1  12
TORSDOF 7
ENDMDL
MODEL 8
REMARK VINA RESULT:    -5.987      2.747      6.608
REMARK INTER + INTRA:          -8.298
REMARK INTER:                  -8.059
REMARK INTRA:                  -0.239
REMARK UNBOUND:                -0.036
REMARK  Name = 
REMARK  8 active torsions:
REMARK  status: ('A' for Active; 'I' for Inactive)
REMARK    1  A    between atoms: C_1  and  O_2
REMARK    2  A    between atoms: O_2  and  C_3
REMARK    3  A    between atoms: C_5  and  C_6
REMARK    4  A    between atoms: C_6  and  C_7
REMARK    5  A    between atoms: C_10  and  O_11
REMARK    6  A    between atoms: O_11  and  C_12
REMARK    7  A    between atoms: C_12  and  C_13
REMARK    8  A    between atoms: C_13  and  O_14
REMARK                            x       y       z     vdW  Elec       q    Type
REMARK                         _______ _______ _______ _____ _____    ______ ____
ROOT
ATOM      1  C   UNL     1      44.151   5.191  11.569  0.00  0.00    +0.000 C 
ATOM      2  C   UNL     1      42.934   4.844  12.428  0.00  0.00    +0.000 C 
ATOM      3  C   UNL     1      42.808   5.925  11.408  0.00  0.00    +0.000 C 
ENDROOT
BRANCH   1   6
ATOM      4  C   UNL     1      45.541   3.835   8.337  0.00  0.00    +0.000 A 
ATOM      5  C   UNL     1      45.314   4.723   9.360  0.00  0.00    +0.000 A 
ATOM      6  C   UNL     1      44.565   4.262  10.431  0.00  0.00    +0.000 A 
ATOM      7  N   UNL     1      44.133   2.978  10.468  0.00  0.00    +0.000 NA
ATOM      8  C   UNL     1      44.437   2.196   9.428  0.00  0.00    +0.000 A 
ATOM      9  N   UNL     1      45.121   2.561   8.342  0.00  0.00    +0.000 NA
BRANCH   4  11
ATOM     10  C   UNL     1      47.018   3.281   6.625  0.00  0.00    +0.000 C 
ATOM     11  O   UNL     1      46.251   4.305   7.252  0.00  0.00    +0.000 OA
ENDBRANCH   4  11
ENDBRANCH   1   6
BRANCH   1  12
ATOM     12  C   UNL     1      45.241   6.071  12.164  0.00  0.00    +0.000 A 
ATOM     13  C   UNL     1      46.341   5.504  12.826  0.00  0.00    +0.000 A 
ATOM     14  C   UNL     1      47.482   6.256  13.068  0.00  0.00    +0.000 A 
ATOM     15  C   UNL     1      47.474   7.582  12.679  0.00  0.00    +0.000 A 
ATOM     16  N   UNL     1      46.389   8.214  12.192  0.00  0.00    +0.000 NA
ATOM     17  C   UNL     1      45.298   7.447  11.953  0.00  0.00    +0.000 A 
BRANCH  15  18
ATOM     18  O   UNL     1      48.697   8.222  12.683  0.00  0.00    +0.000 OA
BRANCH  18  19
ATOM     19  C   UNL     1      48.768   9.318  11.767  0.00  0.00    +0.000 C 
BRANCH  19  20
ATOM     20  C   UNL     1      48.869  10.605  12.580  0.00  0.00    +0.000 C 
BRANCH  20  21
ATOM     21  O   UNL     1      47.574  11.043  12.998  0.00  0.00    +0.000 OA
ATOM     22  H   UNL     1      47.124  11.383  12.203  0.00  0.00    +0.000 HD
ENDBRANCH  20  21
ENDBRANCH  19  20
ENDBRANCH  18  19
ENDBRANCH  15  18
ENDBRANCH   1  12
TORSDOF 7
ENDMDL
MODEL 9
REMARK VINA RESULT:    -5.576      3.280      4.448
REMARK INTER + INTRA:          -7.731
REMARK INTER:                  -7.753
REMARK INTRA:                   0.022
REMARK UNBOUND:                -0.036
REMARK  Name = 
REMARK  8 active torsions:
REMARK  status: ('A' for Active; 'I' for Inactive)
REMARK    1  A    between atoms: C_1  and  O_2
REMARK    2  A    between atoms: O_2  and  C_3
REMARK    3  A    between atoms: C_5  and  C_6
REMARK    4  A    between atoms: C_6  and  C_7
REMARK    5  A    between atoms: C_10  and  O_11
REMARK    6  A    between atoms: O_11  and  C_12
REMARK    7  A    between atoms: C_12  and  C_13
REMARK    8  A    between atoms: C_13  and  O_14
REMARK                            x       y       z     vdW  Elec       q    Type
REMARK                         _______ _______ _______ _____ _____    ______ ____
ROOT
ATOM      1  C   UNL     1      47.830   7.310  12.792  0.00  0.00    +0.000 C 
ATOM      2  C   UNL     1      48.971   7.941  11.993  0.00  0.00    +0.000 C 
ATOM      3  C   UNL     1      48.089   8.827  12.807  0.00  0.00    +0.000 C 
ENDROOT
BRANCH   1   6
ATOM      4  C   UNL     1      47.727   4.838  15.637  0.00  0.00    +0.000 A 
ATOM      5  C   UNL     1      47.456   5.386  14.407  0.00  0.00    +0.000 A 
ATOM      6  C   UNL     1      48.135   6.549  14.079  0.00  0.00    +0.000 A 
ATOM      7  N   UNL     1      49.054   7.072  14.926  0.00  0.00    +0.000 NA
ATOM      8  C   UNL     1      49.256   6.437  16.084  0.00  0.00    +0.000 A 
ATOM      9  N   UNL     1      48.627   5.335  16.499  0.00  0.00    +0.000 NA
BRANCH   4  11
ATOM     10  C   UNL     1      47.231   3.331  17.341  0.00  0.00    +0.000 C 
ATOM     11  O   UNL     1      47.022   3.703  15.981  0.00  0.00    +0.000 OA
ENDBRANCH   4  11
ENDBRANCH   1   6
BRANCH   1  12
ATOM     12  C   UNL     1      46.546   6.935  12.064  0.00  0.00    +0.000 A 
ATOM     13  C   UNL     1      46.590   6.304  10.811  0.00  0.00    +0.000 A 
ATOM     14  C   UNL     1      45.465   5.665  10.305  0.00  0.00    +0.000 A 
ATOM     15  C   UNL     1      44.305   5.717  11.052  0.00  0.00    +0.000 A 
ATOM     16  N   UNL     1      44.168   6.445  12.177  0.00  0.00    +0.000 NA
ATOM     17  C   UNL     1      45.288   7.041  12.651  0.00  0.00    +0.000 A 
BRANCH  15  18
ATOM     18  O   UNL     1      43.297   4.857  10.663  0.00  0.00    +0.000 OA
BRANCH  18  19
ATOM     19  C   UNL     1      42.783   4.063  11.736  0.00  0.00    +0.000 C 
BRANCH  19  20
ATOM     20  C   UNL     1      43.428   2.683  11.651  0.00  0.00    +0.000 C 
BRANCH  20  21
ATOM     21  O   UNL     1      44.532   2.583  12.553  0.00  0.00    +0.000 OA
ATOM     22  H   UNL     1      44.962   1.727  12.376  0.00  0.00    +0.000 HD
ENDBRANCH  20  21
ENDBRANCH  19  20
ENDBRANCH  18  19
ENDBRANCH  15  18
ENDBRANCH   1  12
TORSDOF 7
ENDMDL
