MODEL 1
REMARK VINA RESULT:    -8.227      0.000      0.000
REMARK INTER + INTRA:         -11.781
REMARK INTER:                 -11.112
REMARK INTRA:                  -0.669
REMARK UNBOUND:                -0.669
REMARK  Name = 
REMARK  7 active torsions:
REMARK  status: ('A' for Active; 'I' for Inactive)
REMARK    1  A    between atoms: C_1  and  C_2
REMARK    2  A    between atoms: C_2  and  N_3
REMARK    3  A    between atoms: C_2  and  C_16
REMARK    4  A    between atoms: C_4  and  C_6
REMARK    5  A    between atoms: C_19  and  C_20
REMARK    6  A    between atoms: C_20  and  N_21
REMARK    7  A    between atoms: C_22  and  C_24
REMARK                            x       y       z     vdW  Elec       q    Type
REMARK                         _______ _______ _______ _____ _____    ______ ____
ROOT
ATOM      1  C   UNL     1      47.593   9.170  12.394  0.00  0.00    +0.000 C 
ATOM      2  C   UNL     1      46.594   8.302  13.174  0.00  0.00    +0.000 C 
ENDROOT
BRANCH   2   3
ATOM      3  C   UNL     1      45.963   7.196  12.337  0.00  0.00    +0.000 A 
ATOM      4  C   UNL     1      44.815   6.542  12.814  0.00  0.00    +0.000 A 
ATOM      5  C   UNL     1      44.191   5.539  12.062  0.00  0.00    +0.000 A 
ATOM      6  C   UNL     1      44.709   5.153  10.821  0.00  0.00    +0.000 A 
ATOM      7  C   UNL     1      45.872   5.780  10.355  0.00  0.00    +0.000 A 
ATOM      8  C   UNL     1      46.497   6.777  11.112  0.00  0.00    +0.000 A 
BRANCH   6   9
ATOM      9  C   UNL     1      44.009   4.127   9.966  0.00  0.00    +0.000 C 
BRANCH   9  10
ATOM     10  N   UNL     1      44.687   3.967   8.699  0.00  0.00    +0.000 N 
ATOM     11  C   UNL     1      45.344   2.799   8.373  0.00  0.00    +0.000 C 
ATOM     12  O   UNL     1      45.371   1.826   9.120  0.00  0.00    +0.000 OA
ATOM     13  H   UNL     1      44.729   4.766   8.082  0.00  0.00    +0.000 HD
BRANCH  11  14
ATOM     14  C   UNL     1      45.970   2.811   6.979  0.00  0.00    +0.000 C 
ATOM     15  C   UNL     1      46.616   1.490   6.580  0.00  0.00    +0.000 C 
ATOM     16  C   UNL     1      48.082   1.698   6.897  0.00  0.00    +0.000 C 
ATOM     17  N   UNL     1      48.334   3.093   6.523  0.00  0.00    +0.000 NA
ATOM     18  C   UNL     1      47.109   3.828   6.876  0.00  0.00    +0.000 C 
ATOM     19  H   UNL     1      48.472   3.141   5.513  0.00  0.00    +0.000 HD
ENDBRANCH  11  14
ENDBRANCH   9  10
ENDBRANCH   6   9
ENDBRANCH   2   3
BRANCH   2  20
ATOM     20  N   UNL     1      47.233   7.726  14.336  0.00  0.00    +0.000 N 
ATOM     21  C   UNL     1      48.398   7.002  14.254  0.00  0.00    +0.000 C 
ATOM     22  O   UNL     1      49.047   6.921  13.215  0.00  0.00    +0.000 OA
ATOM     23  H   UNL     1      46.655   7.631  15.165  0.00  0.00    +0.000 HD
BRANCH  21  24
ATOM     24  C   UNL     1      48.848   6.361  15.489  0.00  0.00    +0.000 A 
ATOM     25  C   UNL     1      49.942   6.869  16.179  0.00  0.00    +0.000 A 
ATOM     26  S   UNL     1      50.336   5.984  17.585  0.00  0.00    +0.000 S 
ATOM     27  C   UNL     1      49.093   4.860  17.292  0.00  0.00    +0.000 A 
ATOM     28  N   UNL     1      48.913   3.787  18.109  0.00  0.00    +0.000 NA
ATOM     29  C   UNL     1      47.963   2.992  17.744  0.00  0.00    +0.000 A 
ATOM     30  N   UNL     1      47.164   3.184  16.645  0.00  0.00    +0.000 N 
ATOM     31  C   UNL     1      47.267   4.285  15.830  0.00  0.00    +0.000 A 
ATOM     32  O   UNL     1      46.466   4.484  14.922  0.00  0.00    +0.000 OA
ATOM     33  C   UNL     1      48.357   5.182  16.165  0.00  0.00    +0.000 A 
ATOM     34  H   UNL     1      46.415   2.540  16.435  0.00  0.00    +0.000 HD
ENDBRANCH  21  24
ENDBRANCH   2  20
TORSDOF 6
ENDMDL
MODEL 2
REMARK VINA RESULT:    -7.550      2.323      2.923
REMARK INTER + INTRA:         -10.867
REMARK INTER:                  -9.845
REMARK INTRA:                  -1.022
REMARK UNBOUND:                -0.669
REMARK  Name = 
REMARK  7 active torsions:
REMARK  status: ('A' for Active; 'I' for Inactive)
REMARK    1  A    between atoms: C_1  and  C_2
REMARK    2  A    between atoms: C_2  and  N_3
REMARK    3  A    between atoms: C_2  and  C_16
REMARK    4  A    between atoms: C_4  and  C_6
REMARK    5  A    between atoms: C_19  and  C_20
REMARK    6  A    between atoms: C_20  and  N_21
REMARK    7  A    between atoms: C_22  and  C_24
REMARK                            x       y       z     vdW  Elec       q    Type
REMARK                         _______ _______ _______ _____ _____    ______ ____
ROOT
ATOM      1  C   UNL     1      49.499   8.137  14.030  0.00  0.00    +0.000 C 
ATOM      2  C   UNL     1      48.760   7.115  14.905  0.00  0.00    +0.000 C 
ENDROOT
BRANCH   2   3
ATOM      3  C   UNL     1      47.729   6.290  14.144  0.00  0.00    +0.000 A 
ATOM      4  C   UNL     1      47.131   6.829  12.993  0.00  0.00    +0.000 A 
ATOM      5  C   UNL     1      46.199   6.092  12.252  0.00  0.00    +0.000 A 
ATOM      6  C   UNL     1      45.830   4.803  12.653  0.00  0.00    +0.000 A 
ATOM      7  C   UNL     1      46.399   4.273  13.817  0.00  0.00    +0.000 A 
ATOM      8  C   UNL     1      47.324   5.015  14.560  0.00  0.00    +0.000 A 
BRANCH   6   9
ATOM      9  C   UNL     1      44.883   3.968  11.827  0.00  0.00    +0.000 C 
BRANCH   9  10
ATOM     10  N   UNL     1      45.109   4.183  10.415  0.00  0.00    +0.000 N 
ATOM     11  C   UNL     1      44.816   3.212   9.481  0.00  0.00    +0.000 C 
ATOM     12  O   UNL     1      44.328   2.129   9.785  0.00  0.00    +0.000 OA
ATOM     13  H   UNL     1      45.559   5.043  10.135  0.00  0.00    +0.000 HD
BRANCH  11  14
ATOM     14  C   UNL     1      45.094   3.639   8.040  0.00  0.00    +0.000 C 
ATOM     15  C   UNL     1      45.666   2.529   7.166  0.00  0.00    +0.000 C 
ATOM     16  C   UNL     1      47.159   2.783   7.197  0.00  0.00    +0.000 C 
ATOM     17  N   UNL     1      47.273   4.244   7.169  0.00  0.00    +0.000 NA
ATOM     18  C   UNL     1      46.146   4.749   7.969  0.00  0.00    +0.000 C 
ATOM     19  H   UNL     1      47.168   4.562   6.205  0.00  0.00    +0.000 HD
ENDBRANCH  11  14
ENDBRANCH   9  10
ENDBRANCH   6   9
ENDBRANCH   2   3
BRANCH   2  20
ATOM     20  N   UNL     1      49.706   6.232  15.551  0.00  0.00    +0.000 N 
ATOM     21  C   UNL     1      49.625   5.916  16.886  0.00  0.00    +0.000 C 
ATOM     22  O   UNL     1      48.667   6.243  17.580  0.00  0.00    +0.000 OA
ATOM     23  H   UNL     1      50.583   6.081  15.064  0.00  0.00    +0.000 HD
BRANCH  21  24
ATOM     24  C   UNL     1      50.732   5.129  17.430  0.00  0.00    +0.000 A 
ATOM     25  C   UNL     1      51.831   5.767  17.992  0.00  0.00    +0.000 A 
ATOM     26  S   UNL     1      53.031   4.693  18.556  0.00  0.00    +0.000 S 
ATOM     27  C   UNL     1      52.151   3.339  18.021  0.00  0.00    +0.000 A 
ATOM     28  N   UNL     1      52.654   2.081  18.148  0.00  0.00    +0.000 NA
ATOM     29  C   UNL     1      51.900   1.153  17.659  0.00  0.00    +0.000 A 
ATOM     30  N   UNL     1      50.680   1.368  17.070  0.00  0.00    +0.000 N 
ATOM     31  C   UNL     1      50.104   2.613  16.978  0.00  0.00    +0.000 A 
ATOM     32  O   UNL     1      48.965   2.758  16.547  0.00  0.00    +0.000 OA
ATOM     33  C   UNL     1      50.936   3.698  17.463  0.00  0.00    +0.000 A 
ATOM     34  H   UNL     1      50.124   0.594  16.738  0.00  0.00    +0.000 HD
ENDBRANCH  21  24
ENDBRANCH   2  20
TORSDOF 6
ENDMDL
MODEL 3
REMARK VINA RESULT:    -7.548      2.663      3.929
REMARK INTER + INTRA:         -10.864
REMARK INTER:                  -9.555
REMARK INTRA:                  -1.308
REMARK UNBOUND:                -0.669
REMARK  Name = 
REMARK  7 active torsions:
REMARK  status: ('A' for Active; 'I' for Inactive)
REMARK    1  A    between atoms: C_1  and  C_2
REMARK    2  A    between atoms: C_2  and  N_3
REMARK    3  A    between atoms: C_2  and  C_16
REMARK    4  A    between atoms: C_4  and  C_6
REMARK    5  A    between atoms: C_19  and  C_20
REMARK    6  A    between atoms: C_20  and  N_21
REMARK    7  A    between atoms: C_22  and  C_24
REMARK                            x       y       z     vdW  Elec       q    Type
REMARK                         _______ _______ _______ _____ _____    ______ ____
ROOT
ATOM      1  C   UNL     1      47.532   3.290  15.958  0.00  0.00    +0.000 C 
ATOM      2  C   UNL     1      47.891   4.603  15.248  0.00  0.00    +0.000 C 
ENDROOT
BRANCH   2   3
ATOM      3  C   UNL     1      46.966   4.942  14.085  0.00  0.00    +0.000 A 
ATOM      4  C   UNL     1      46.112   3.951  13.574  0.00  0.00    +0.000 A 
ATOM      5  C   UNL     1      45.229   4.232  12.524  0.00  0.00    +0.000 A 
ATOM      6  C   UNL     1      45.189   5.507  11.948  0.00  0.00    +0.000 A 
ATOM      7  C   UNL     1      46.060   6.490  12.434  0.00  0.00    +0.000 A 
ATOM      8  C   UNL     1      46.947   6.205  13.478  0.00  0.00    +0.000 A 
BRANCH   6   9
ATOM      9  C   UNL     1      44.194   5.846  10.867  0.00  0.00    +0.000 C 
BRANCH   9  10
ATOM     10  N   UNL     1      44.145   4.800   9.869  0.00  0.00    +0.000 N 
ATOM     11  C   UNL     1      45.101   4.699   8.881  0.00  0.00    +0.000 C 
ATOM     12  O   UNL     1      46.055   5.467   8.804  0.00  0.00    +0.000 OA
ATOM     13  H   UNL     1      43.345   4.182   9.872  0.00  0.00    +0.000 HD
BRANCH  11  14
ATOM     14  C   UNL     1      44.895   3.511   7.943  0.00  0.00    +0.000 C 
ATOM     15  C   UNL     1      44.646   2.191   8.664  0.00  0.00    +0.000 C 
ATOM     16  C   UNL     1      46.010   1.534   8.688  0.00  0.00    +0.000 C 
ATOM     17  N   UNL     1      46.594   1.873   7.387  0.00  0.00    +0.000 NA
ATOM     18  C   UNL     1      46.136   3.239   7.088  0.00  0.00    +0.000 C 
ATOM     19  H   UNL     1      46.220   1.234   6.684  0.00  0.00    +0.000 HD
ENDBRANCH  11  14
ENDBRANCH   9  10
ENDBRANCH   6   9
ENDBRANCH   2   3
BRANCH   2  20
ATOM     20  N   UNL     1      47.903   5.698  16.193  0.00  0.00    +0.000 N 
ATOM     21  C   UNL     1      49.031   6.055  16.892  0.00  0.00    +0.000 C 
ATOM     22  O   UNL     1      50.131   5.568  16.654  0.00  0.00    +0.000 OA
ATOM     23  H   UNL     1      46.997   6.006  16.533  0.00  0.00    +0.000 HD
BRANCH  21  24
ATOM     24  C   UNL     1      48.855   7.085  17.916  0.00  0.00    +0.000 A 
ATOM     25  C   UNL     1      49.001   6.763  19.260  0.00  0.00    +0.000 A 
ATOM     26  S   UNL     1      48.741   8.082  20.312  0.00  0.00    +0.000 S 
ATOM     27  C   UNL     1      48.371   9.116  19.013  0.00  0.00    +0.000 A 
ATOM     28  N   UNL     1      47.995  10.406  19.230  0.00  0.00    +0.000 NA
ATOM     29  C   UNL     1      47.700  11.063  18.158  0.00  0.00    +0.000 A 
ATOM     30  N   UNL     1      47.764  10.552  16.887  0.00  0.00    +0.000 N 
ATOM     31  C   UNL     1      48.200   9.277  16.616  0.00  0.00    +0.000 A 
ATOM     32  O   UNL     1      48.352   8.887  15.463  0.00  0.00    +0.000 OA
ATOM     33  C   UNL     1      48.491   8.478  17.791  0.00  0.00    +0.000 A 
ATOM     34  H   UNL     1      47.552  11.131  16.087  0.00  0.00    +0.000 HD
ENDBRANCH  21  24
ENDBRANCH   2  20
TORSDOF 6
ENDMDL
MODEL 4
REMARK VINA RESULT:    -7.541      2.719      3.547
REMARK INTER + INTRA:         -10.855
REMARK INTER:                  -9.818
REMARK INTRA:                  -1.037
REMARK UNBOUND:                -0.669
REMARK  Name = 
REMARK  7 active torsions:
REMARK  status: ('A' for Active; 'I' for Inactive)
REMARK    1  A    between atoms: C_1  and  C_2
REMARK    2  A    between atoms: C_2  and  N_3
REMARK    3  A    between atoms: C_2  and  C_16
REMARK    4  A    between atoms: C_4  and  C_6
REMARK    5  A    between atoms: C_19  and  C_20
REMARK    6  A    between atoms: C_20  and  N_21
REMARK    7  A    between atoms: C_22  and  C_24
REMARK                            x       y       z     vdW  Elec       q    Type
REMARK                         _______ _______ _______ _____ _____    ______ ____
ROOT
ATOM      1  C   UNL     1      47.057   4.026  16.042  0.00  0.00    +0.000 C 
ATOM      2  C   UNL     1      47.573   4.843  14.848  0.00  0.00    +0.000 C 
ENDROOT
BRANCH   2   3
ATOM      3  C   UNL     1      46.685   4.748  13.613  0.00  0.00    +0.000 A 
ATOM      4  C   UNL     1      46.145   3.504  13.247  0.00  0.00    +0.000 A 
ATOM      5  C   UNL     1      45.304   3.382  12.134  0.00  0.00    +0.000 A 
ATOM      6  C   UNL     1      44.994   4.499  11.350  0.00  0.00    +0.000 A 
ATOM      7  C   UNL     1      45.555   5.736  11.692  0.00  0.00    +0.000 A 
ATOM      8  C   UNL     1      46.402   5.854  12.800  0.00  0.00    +0.000 A 
BRANCH   6   9
ATOM      9  C   UNL     1      44.033   4.400  10.192  0.00  0.00    +0.000 C 
BRANCH   9  10
ATOM     10  N   UNL     1      44.748   4.304   8.939  0.00  0.00    +0.000 N 
ATOM     11  C   UNL     1      45.086   3.085   8.391  0.00  0.00    +0.000 C 
ATOM     12  O   UNL     1      44.782   2.018   8.915  0.00  0.00    +0.000 OA
ATOM     13  H   UNL     1      45.060   5.163   8.507  0.00  0.00    +0.000 HD
BRANCH  11  14
ATOM     14  C   UNL     1      45.809   3.191   7.049  0.00  0.00    +0.000 C 
ATOM     15  C   UNL     1      46.305   1.856   6.507  0.00  0.00    +0.000 C 
ATOM     16  C   UNL     1      47.758   1.815   6.931  0.00  0.00    +0.000 C 
ATOM     17  N   UNL     1      48.217   3.198   6.768  0.00  0.00    +0.000 NA
ATOM     18  C   UNL     1      47.076   4.044   7.152  0.00  0.00    +0.000 C 
ATOM     19  H   UNL     1      48.434   3.357   5.784  0.00  0.00    +0.000 HD
ENDBRANCH  11  14
ENDBRANCH   9  10
ENDBRANCH   6   9
ENDBRANCH   2   3
BRANCH   2  20
ATOM     20  N   UNL     1      47.736   6.230  15.223  0.00  0.00    +0.000 N 
ATOM     21  C   UNL     1      48.819   6.676  15.942  0.00  0.00    +0.000 C 
ATOM     22  O   UNL     1      49.785   5.959  16.185  0.00  0.00    +0.000 OA
ATOM     23  H   UNL     1      46.901   6.805  15.187  0.00  0.00    +0.000 HD
BRANCH  21  24
ATOM     24  C   UNL     1      48.776   8.074  16.371  0.00  0.00    +0.000 A 
ATOM     25  C   UNL     1      49.281   9.071  15.546  0.00  0.00    +0.000 A 
ATOM     26  S   UNL     1      49.166  10.637  16.216  0.00  0.00    +0.000 S 
ATOM     27  C   UNL     1      48.488  10.032  17.654  0.00  0.00    +0.000 A 
ATOM     28  N   UNL     1      48.195  10.860  18.694  0.00  0.00    +0.000 NA
ATOM     29  C   UNL     1      47.728  10.261  19.738  0.00  0.00    +0.000 A 
ATOM     30  N   UNL     1      47.509   8.910  19.830  0.00  0.00    +0.000 N 
ATOM     31  C   UNL     1      47.727   8.045  18.785  0.00  0.00    +0.000 A 
ATOM     32  O   UNL     1      47.417   6.861  18.861  0.00  0.00    +0.000 OA
ATOM     33  C   UNL     1      48.306   8.661  17.605  0.00  0.00    +0.000 A 
ATOM     34  H   UNL     1      47.108   8.509  20.665  0.00  0.00    +0.000 HD
ENDBRANCH  21  24
ENDBRANCH   2  20
TORSDOF 6
ENDMDL
MODEL 5
REMARK VINA RESULT:    -7.464      1.862      2.540
REMARK INTER + INTRA:         -10.751
REMARK INTER:                  -9.704
REMARK INTRA:                  -1.047
REMARK UNBOUND:                -0.669
REMARK  Name = 
REMARK  7 active torsions:
REMARK  status: ('A' for Active; 'I' for Inactive)
REMARK    1  A    between atoms: C_1  and  C_2
REMARK    2  A    between atoms: C_2  and  N_3
REMARK    3  A    between atoms: C_2  and  C_16
REMARK    4  A    between atoms: C_4  and  C_6
REMARK    5  A    between atoms: C_19  and  C_20
REMARK    6  A    between atoms: C_20  and  N_21
REMARK    7  A    between atoms: C_22  and  C_24
REMARK                            x       y       z     vdW  Elec       q    Type
REMARK                         _______ _______ _______ _____ _____    ______ ____
ROOT
ATOM      1  C   UNL     1      49.129   7.747  13.054  0.00  0.00    +0.000 C 
ATOM      2  C   UNL     1      47.875   7.190  13.744  0.00  0.00    +0.000 C 
ENDROOT
BRANCH   2   3
ATOM      3  C   UNL     1      46.917   6.483  12.793  0.00  0.00    +0.000 A 
ATOM      4  C   UNL     1      46.181   5.378  13.253  0.00  0.00    +0.000 A 
ATOM      5  C   UNL     1      45.272   4.719  12.417  0.00  0.00    +0.000 A 
ATOM      6  C   UNL     1      45.088   5.138  11.094  0.00  0.00    +0.000 A 
ATOM      7  C   UNL     1      45.842   6.219  10.621  0.00  0.00    +0.000 A 
ATOM      8  C   UNL     1      46.755   6.871  11.457  0.00  0.00    +0.000 A 
BRANCH   6   9
ATOM      9  C   UNL     1      44.060   4.486  10.203  0.00  0.00    +0.000 C 
BRANCH   9  10
ATOM     10  N   UNL     1      44.623   4.188   8.905  0.00  0.00    +0.000 N 
ATOM     11  C   UNL     1      45.247   2.987   8.645  0.00  0.00    +0.000 C 
ATOM     12  O   UNL     1      45.339   2.096   9.484  0.00  0.00    +0.000 OA
ATOM     13  H   UNL     1      44.611   4.919   8.207  0.00  0.00    +0.000 HD
BRANCH  11  14
ATOM     14  C   UNL     1      45.747   2.849   7.208  0.00  0.00    +0.000 C 
ATOM     15  C   UNL     1      46.424   1.515   6.915  0.00  0.00    +0.000 C 
ATOM     16  C   UNL     1      47.899   1.823   7.065  0.00  0.00    +0.000 C 
ATOM     17  N   UNL     1      48.043   3.168   6.501  0.00  0.00    +0.000 NA
ATOM     18  C   UNL     1      46.817   3.891   6.875  0.00  0.00    +0.000 C 
ATOM     19  H   UNL     1      48.090   3.094   5.485  0.00  0.00    +0.000 HD
ENDBRANCH  11  14
ENDBRANCH   9  10
ENDBRANCH   6   9
ENDBRANCH   2   3
BRANCH   2  20
ATOM     20  N   UNL     1      48.250   6.290  14.813  0.00  0.00    +0.000 N 
ATOM     21  C   UNL     1      48.664   6.740  16.043  0.00  0.00    +0.000 C 
ATOM     22  O   UNL     1      48.603   7.923  16.363  0.00  0.00    +0.000 OA
ATOM     23  H   UNL     1      48.469   5.337  14.540  0.00  0.00    +0.000 HD
BRANCH  21  24
ATOM     24  C   UNL     1      49.148   5.719  16.973  0.00  0.00    +0.000 A 
ATOM     25  C   UNL     1      48.245   4.971  17.718  0.00  0.00    +0.000 A 
ATOM     26  S   UNL     1      48.986   3.844  18.763  0.00  0.00    +0.000 S 
ATOM     27  C   UNL     1      50.542   4.353  18.298  0.00  0.00    +0.000 A 
ATOM     28  N   UNL     1      51.654   3.818  18.871  0.00  0.00    +0.000 NA
ATOM     29  C   UNL     1      52.765   4.329  18.456  0.00  0.00    +0.000 A 
ATOM     30  N   UNL     1      52.866   5.313  17.505  0.00  0.00    +0.000 N 
ATOM     31  C   UNL     1      51.774   5.835  16.853  0.00  0.00    +0.000 A 
ATOM     32  O   UNL     1      51.904   6.633  15.931  0.00  0.00    +0.000 OA
ATOM     33  C   UNL     1      50.496   5.335  17.323  0.00  0.00    +0.000 A 
ATOM     34  H   UNL     1      53.769   5.644  17.200  0.00  0.00    +0.000 HD
ENDBRANCH  21  24
ENDBRANCH   2  20
TORSDOF 6
ENDMDL
MODEL 6
REMARK VINA RESULT:    -7.324      3.346      5.615
REMARK INTER + INTRA:         -10.561
REMARK INTER:                  -9.475
REMARK INTRA:                  -1.087
REMARK UNBOUND:                -0.669
REMARK  Name = 
REMARK  7 active torsions:
REMARK  status: ('A' for Active; 'I' for Inactive)
REMARK    1  A    between atoms: C_1  and  C_2
REMARK    2  A    between atoms: C_2  and  N_3
REMARK    3  A    between atoms: C_2  and  C_16
REMARK    4  A    between atoms: C_4  and  C_6
REMARK    5  A    between atoms: C_19  and  C_20
REMARK    6  A    between atoms: C_20  and  N_21
REMARK    7  A    between atoms: C_22  and  C_24
REMARK                            x       y       z     vdW  Elec       q    Type
REMARK                         _______ _______ _______ _____ _____    ______ ____
ROOT
ATOM      1  C   UNL     1      47.589   4.797  18.650  0.00  0.00    +0.000 C 
ATOM      2  C   UNL     1      48.080   3.934  17.478  0.00  0.00    +0.000 C 
ENDROOT
BRANCH   2   3
ATOM      3  C   UNL     1      47.848   4.569  16.113  0.00  0.00    +0.000 A 
ATOM      4  C   UNL     1      47.039   3.906  15.174  0.00  0.00    +0.000 A 
ATOM      5  C   UNL     1      46.782   4.471  13.919  0.00  0.00    +0.000 A 
ATOM      6  C   UNL     1      47.340   5.704  13.564  0.00  0.00    +0.000 A 
ATOM      7  C   UNL     1      48.172   6.354  14.484  0.00  0.00    +0.000 A 
ATOM      8  C   UNL     1      48.434   5.784  15.735  0.00  0.00    +0.000 A 
BRANCH   6   9
ATOM      9  C   UNL     1      47.014   6.359  12.245  0.00  0.00    +0.000 C 
BRANCH   9  10
ATOM     10  N   UNL     1      45.908   5.688  11.599  0.00  0.00    +0.000 N 
ATOM     11  C   UNL     1      44.688   6.307  11.428  0.00  0.00    +0.000 C 
ATOM     12  O   UNL     1      44.477   7.461  11.786  0.00  0.00    +0.000 OA
ATOM     13  H   UNL     1      46.032   4.720  11.338  0.00  0.00    +0.000 HD
BRANCH  11  14
ATOM     14  C   UNL     1      43.659   5.448  10.695  0.00  0.00    +0.000 C 
ATOM     15  C   UNL     1      42.679   4.736  11.619  0.00  0.00    +0.000 C 
ATOM     16  C   UNL     1      43.268   3.348  11.765  0.00  0.00    +0.000 C 
ATOM     17  N   UNL     1      43.796   3.042  10.432  0.00  0.00    +0.000 NA
ATOM     18  C   UNL     1      44.321   4.313   9.909  0.00  0.00    +0.000 C 
ATOM     19  H   UNL     1      43.026   2.730   9.839  0.00  0.00    +0.000 HD
ENDBRANCH  11  14
ENDBRANCH   9  10
ENDBRANCH   6   9
ENDBRANCH   2   3
BRANCH   2  20
ATOM     20  N   UNL     1      49.484   3.626  17.638  0.00  0.00    +0.000 N 
ATOM     21  C   UNL     1      50.065   2.518  17.069  0.00  0.00    +0.000 C 
ATOM     22  O   UNL     1      49.467   1.801  16.272  0.00  0.00    +0.000 OA
ATOM     23  H   UNL     1      49.960   4.089  18.405  0.00  0.00    +0.000 HD
BRANCH  21  24
ATOM     24  C   UNL     1      51.457   2.260  17.435  0.00  0.00    +0.000 A 
ATOM     25  C   UNL     1      51.895   0.957  17.638  0.00  0.00    +0.000 A 
ATOM     26  S   UNL     1      53.540   0.848  18.078  0.00  0.00    +0.000 S 
ATOM     27  C   UNL     1      53.713   2.540  18.066  0.00  0.00    +0.000 A 
ATOM     28  N   UNL     1      54.891   3.126  18.415  0.00  0.00    +0.000 NA
ATOM     29  C   UNL     1      54.867   4.418  18.404  0.00  0.00    +0.000 A 
ATOM     30  N   UNL     1      53.778   5.176  18.058  0.00  0.00    +0.000 N 
ATOM     31  C   UNL     1      52.590   4.628  17.637  0.00  0.00    +0.000 A 
ATOM     32  O   UNL     1      51.672   5.331  17.229  0.00  0.00    +0.000 OA
ATOM     33  C   UNL     1      52.546   3.178  17.684  0.00  0.00    +0.000 A 
ATOM     34  H   UNL     1      53.836   6.183  18.038  0.00  0.00    +0.000 HD
ENDBRANCH  21  24
ENDBRANCH   2  20
TORSDOF 6
ENDMDL
MODEL 7
REMARK VINA RESULT:    -7.296      1.882      2.176
REMARK INTER + INTRA:         -10.524
REMARK INTER:                  -9.560
REMARK INTRA:                  -0.964
REMARK UNBOUND:                -0.669
REMARK  Name = 
REMARK  7 active torsions:
REMARK  status: ('A' for Active; 'I' for Inactive)
REMARK    1  A    between atoms: C_1  and  C_2
REMARK    2  A    between atoms: C_2  and  N_3
REMARK    3  A    between atoms: C_2  and  C_16
REMARK    4  A    between atoms: C_4  and  C_6
REMARK    5  A    between atoms: C_19  and  C_20
REMARK    6  A    between atoms: C_20  and  N_21
REMARK    7  A    between atoms: C_22  and  C_24
REMARK                            x       y       z     vdW  Elec       q    Type
REMARK                         _______ _______ _______ _____ _____    ______ ____
ROOT
ATOM      1  C   UNL     1      49.569   7.543  13.306  0.00  0.00    +0.000 C 
ATOM      2  C   UNL     1      48.110   7.811  13.704  0.00  0.00    +0.000 C 
ENDROOT
BRANCH   2   3
ATOM      3  C   UNL     1      47.101   6.975  12.926  0.00  0.00    +0.000 A 
ATOM      4  C   UNL     1      46.330   7.584  11.923  0.00  0.00    +0.000 A 
ATOM      5  C   UNL     1      45.411   6.843  11.170  0.00  0.00    +0.000 A 
ATOM      6  C   UNL     1      45.229   5.476  11.412  0.00  0.00    +0.000 A 
ATOM      7  C   UNL     1      45.973   4.870  12.432  0.00  0.00    +0.000 A 
ATOM      8  C   UNL     1      46.885   5.615  13.189  0.00  0.00    +0.000 A 
BRANCH   6   9
ATOM      9  C   UNL     1      44.298   4.648  10.563  0.00  0.00    +0.000 C 
BRANCH   9  10
ATOM     10  N   UNL     1      44.855   4.441   9.244  0.00  0.00    +0.000 N 
ATOM     11  C   UNL     1      45.095   3.176   8.752  0.00  0.00    +0.000 C 
ATOM     12  O   UNL     1      44.829   2.160   9.385  0.00  0.00    +0.000 OA
ATOM     13  H   UNL     1      45.134   5.257   8.716  0.00  0.00    +0.000 HD
BRANCH  11  14
ATOM     14  C   UNL     1      45.654   3.163   7.330  0.00  0.00    +0.000 C 
ATOM     15  C   UNL     1      46.202   1.810   6.894  0.00  0.00    +0.000 C 
ATOM     16  C   UNL     1      47.691   1.930   7.142  0.00  0.00    +0.000 C 
ATOM     17  N   UNL     1      48.006   3.312   6.763  0.00  0.00    +0.000 NA
ATOM     18  C   UNL     1      46.844   4.114   7.178  0.00  0.00    +0.000 C 
ATOM     19  H   UNL     1      48.100   3.359   5.748  0.00  0.00    +0.000 HD
ENDBRANCH  11  14
ENDBRANCH   9  10
ENDBRANCH   6   9
ENDBRANCH   2   3
BRANCH   2  20
ATOM     20  N   UNL     1      47.930   7.594  15.122  0.00  0.00    +0.000 N 
ATOM     21  C   UNL     1      48.586   8.341  16.071  0.00  0.00    +0.000 C 
ATOM     22  O   UNL     1      49.251   9.331  15.781  0.00  0.00    +0.000 OA
ATOM     23  H   UNL     1      47.530   6.701  15.392  0.00  0.00    +0.000 HD
BRANCH  21  24
ATOM     24  C   UNL     1      48.416   7.913  17.459  0.00  0.00    +0.000 A 
ATOM     25  C   UNL     1      48.083   8.841  18.438  0.00  0.00    +0.000 A 
ATOM     26  S   UNL     1      47.945   8.168  20.001  0.00  0.00    +0.000 S 
ATOM     27  C   UNL     1      48.378   6.623  19.434  0.00  0.00    +0.000 A 
ATOM     28  N   UNL     1      48.506   5.574  20.291  0.00  0.00    +0.000 NA
ATOM     29  C   UNL     1      48.884   4.472  19.732  0.00  0.00    +0.000 A 
ATOM     30  N   UNL     1      49.127   4.321  18.390  0.00  0.00    +0.000 N 
ATOM     31  C   UNL     1      48.948   5.335  17.480  0.00  0.00    +0.000 A 
ATOM     32  O   UNL     1      49.066   5.139  16.275  0.00  0.00    +0.000 OA
ATOM     33  C   UNL     1      48.578   6.610  18.065  0.00  0.00    +0.000 A 
ATOM     34  H   UNL     1      49.387   3.422  18.012  0.00  0.00    +0.000 HD
ENDBRANCH  21  24
ENDBRANCH   2  20
TORSDOF 6
ENDMDL
MODEL 8
REMARK VINA RESULT:    -7.206      1.728      2.137
REMARK INTER + INTRA:         -10.402
REMARK INTER:                  -9.159
REMARK INTRA:                  -1.242
REMARK UNBOUND:                -0.669
REMARK  Name = 
REMARK  7 active torsions:
REMARK  status: ('A' for Active; 'I' for Inactive)
REMARK    1  A    between atoms: C_1  and  C_2
REMARK    2  A    between atoms: C_2  and  N_3
REMARK    3  A    between atoms: C_2  and  C_16
REMARK    4  A    between atoms: C_4  and  C_6
REMARK    5  A    between atoms: C_19  and  C_20
REMARK    6  A    between atoms: C_20  and  N_21
REMARK    7  A    between atoms: C_22  and  C_24
REMARK                            x       y       z     vdW  Elec       q    Type
REMARK                         _______ _______ _______ _____ _____    ______ ____
ROOT
ATOM      1  C   UNL     1      49.347   8.954  12.813  0.00  0.00    +0.000 C 
ATOM      2  C   UNL     1      48.377   8.314  13.818  0.00  0.00    +0.000 C 
ENDROOT
BRANCH   2   3
ATOM      3  C   UNL     1      47.155   7.678  13.167  0.00  0.00    +0.000 A 
ATOM      4  C   UNL     1      46.974   6.288  13.254  0.00  0.00    +0.000 A 
ATOM      5  C   UNL     1      45.851   5.670  12.691  0.00  0.00    +0.000 A 
ATOM      6  C   UNL     1      44.887   6.426  12.014  0.00  0.00    +0.000 A 
ATOM      7  C   UNL     1      45.078   7.808  11.897  0.00  0.00    +0.000 A 
ATOM      8  C   UNL     1      46.205   8.422  12.454  0.00  0.00    +0.000 A 
BRANCH   6   9
ATOM      9  C   UNL     1      43.636   5.787  11.465  0.00  0.00    +0.000 C 
BRANCH   9  10
ATOM     10  N   UNL     1      43.894   5.174  10.181  0.00  0.00    +0.000 N 
ATOM     11  C   UNL     1      44.223   3.840  10.070  0.00  0.00    +0.000 C 
ATOM     12  O   UNL     1      44.292   3.094  11.041  0.00  0.00    +0.000 OA
ATOM     13  H   UNL     1      43.897   5.771   9.366  0.00  0.00    +0.000 HD
BRANCH  11  14
ATOM     14  C   UNL     1      44.425   3.373   8.629  0.00  0.00    +0.000 C 
ATOM     15  C   UNL     1      44.612   1.867   8.489  0.00  0.00    +0.000 C 
ATOM     16  C   UNL     1      46.116   1.697   8.423  0.00  0.00    +0.000 C 
ATOM     17  N   UNL     1      46.570   2.845   7.631  0.00  0.00    +0.000 NA
ATOM     18  C   UNL     1      45.695   3.964   8.012  0.00  0.00    +0.000 C 
ATOM     19  H   UNL     1      46.432   2.635   6.642  0.00  0.00    +0.000 HD
ENDBRANCH  11  14
ENDBRANCH   9  10
ENDBRANCH   6   9
ENDBRANCH   2   3
BRANCH   2  20
ATOM     20  N   UNL     1      49.067   7.329  14.621  0.00  0.00    +0.000 N 
ATOM     21  C   UNL     1      49.382   7.545  15.941  0.00  0.00    +0.000 C 
ATOM     22  O   UNL     1      48.972   8.522  16.561  0.00  0.00    +0.000 OA
ATOM     23  H   UNL     1      49.557   6.600  14.113  0.00  0.00    +0.000 HD
BRANCH  21  24
ATOM     24  C   UNL     1      50.204   6.521  16.584  0.00  0.00    +0.000 A 
ATOM     25  C   UNL     1      51.523   6.797  16.923  0.00  0.00    +0.000 A 
ATOM     26  S   UNL     1      52.335   5.480  17.644  0.00  0.00    +0.000 S 
ATOM     27  C   UNL     1      50.971   4.477  17.480  0.00  0.00    +0.000 A 
ATOM     28  N   UNL     1      51.012   3.171  17.859  0.00  0.00    +0.000 NA
ATOM     29  C   UNL     1      49.921   2.517  17.636  0.00  0.00    +0.000 A 
ATOM     30  N   UNL     1      48.786   3.055  17.086  0.00  0.00    +0.000 N 
ATOM     31  C   UNL     1      48.677   4.383  16.749  0.00  0.00    +0.000 A 
ATOM     32  O   UNL     1      47.614   4.858  16.363  0.00  0.00    +0.000 OA
ATOM     33  C   UNL     1      49.895   5.151  16.927  0.00  0.00    +0.000 A 
ATOM     34  H   UNL     1      47.954   2.495  16.970  0.00  0.00    +0.000 HD
ENDBRANCH  21  24
ENDBRANCH   2  20
TORSDOF 6
ENDMDL
MODEL 9
REMARK VINA RESULT:    -6.971      3.108      4.408
REMARK INTER + INTRA:         -10.085
REMARK INTER:                  -9.078
REMARK INTRA:                  -1.008
REMARK UNBOUND:                -0.669
REMARK  Name = 
REMARK  7 active torsions:
REMARK  status: ('A' for Active; 'I' for Inactive)
REMARK    1  A    between atoms: C_1  and  C_2
REMARK    2  A    between atoms: C_2  and  N_3
REMARK    3  A    between atoms: C_2  and  C_16
REMARK    4  A    between atoms: C_4  and  C_6
REMARK    5  A    between atoms: C_19  and  C_20
REMARK    6  A    between atoms: C_20  and  N_21
REMARK    7  A    between atoms: C_22  and  C_24
REMARK                            x       y       z     vdW  Elec       q    Type
REMARK                         _______ _______ _______ _____ _____    ______ ____
ROOT
ATOM      1  C   UNL     1      49.884   9.098  16.391  0.00  0.00    +0.000 C 
ATOM      2  C   UNL     1      49.234   7.713  16.263  0.00  0.00    +0.000 C 
ENDROOT
BRANCH   2   3
ATOM      3  C   UNL     1      48.660   7.433  14.879  0.00  0.00    +0.000 A 
ATOM      4  C   UNL     1      47.930   6.252  14.663  0.00  0.00    +0.000 A 
ATOM      5  C   UNL     1      47.364   5.972  13.413  0.00  0.00    +0.000 A 
ATOM      6  C   UNL     1      47.529   6.859  12.343  0.00  0.00    +0.000 A 
ATOM      7  C   UNL     1      48.282   8.022  12.544  0.00  0.00    +0.000 A 
ATOM      8  C   UNL     1      48.852   8.296  13.792  0.00  0.00    +0.000 A 
BRANCH   6   9
ATOM      9  C   UNL     1      46.866   6.609  11.011  0.00  0.00    +0.000 C 
BRANCH   9  10
ATOM     10  N   UNL     1      45.656   5.835  11.178  0.00  0.00    +0.000 N 
ATOM     11  C   UNL     1      45.117   5.104  10.141  0.00  0.00    +0.000 C 
ATOM     12  O   UNL     1      45.639   5.046   9.033  0.00  0.00    +0.000 OA
ATOM     13  H   UNL     1      45.172   5.902  12.063  0.00  0.00    +0.000 HD
BRANCH  11  14
ATOM     14  C   UNL     1      43.857   4.328  10.523  0.00  0.00    +0.000 C 
ATOM     15  C   UNL     1      43.278   4.720  11.877  0.00  0.00    +0.000 C 
ATOM     16  C   UNL     1      43.830   3.671  12.820  0.00  0.00    +0.000 C 
ATOM     17  N   UNL     1      43.800   2.434  12.034  0.00  0.00    +0.000 NA
ATOM     18  C   UNL     1      44.131   2.828  10.655  0.00  0.00    +0.000 C 
ATOM     19  H   UNL     1      42.853   2.055  12.055  0.00  0.00    +0.000 HD
ENDBRANCH  11  14
ENDBRANCH   9  10
ENDBRANCH   6   9
ENDBRANCH   2   3
BRANCH   2  20
ATOM     20  N   UNL     1      50.184   6.680  16.611  0.00  0.00    +0.000 N 
ATOM     21  C   UNL     1      49.984   5.819  17.664  0.00  0.00    +0.000 C 
ATOM     22  O   UNL     1      48.925   5.775  18.282  0.00  0.00    +0.000 OA
ATOM     23  H   UNL     1      51.123   6.790  16.240  0.00  0.00    +0.000 HD
BRANCH  21  24
ATOM     24  C   UNL     1      51.095   4.923  17.984  0.00  0.00    +0.000 A 
ATOM     25  C   UNL     1      52.251   5.427  18.567  0.00  0.00    +0.000 A 
ATOM     26  S   UNL     1      53.447   4.243  18.852  0.00  0.00    +0.000 S 
ATOM     27  C   UNL     1      52.485   3.025  18.157  0.00  0.00    +0.000 A 
ATOM     28  N   UNL     1      52.949   1.752  18.031  0.00  0.00    +0.000 NA
ATOM     29  C   UNL     1      52.132   0.941  17.446  0.00  0.00    +0.000 A 
ATOM     30  N   UNL     1      50.884   1.284  16.991  0.00  0.00    +0.000 N 
ATOM     31  C   UNL     1      50.348   2.539  17.155  0.00  0.00    +0.000 A 
ATOM     32  O   UNL     1      49.189   2.785  16.838  0.00  0.00    +0.000 OA
ATOM     33  C   UNL     1      51.249   3.504  17.758  0.00  0.00    +0.000 A 
ATOM     34  H   UNL     1      50.280   0.592  16.572  0.00  0.00    +0.000 HD
ENDBRANCH  21  24
ENDBRANCH   2  20
TORSDOF 6
ENDMDL
