MODEL 1
REMARK VINA RESULT:    -8.176      0.000      0.000
REMARK INTER + INTRA:         -12.059
REMARK INTER:                 -11.044
REMARK INTRA:                  -1.015
REMARK UNBOUND:                -1.015
REMARK  Name = 
REMARK  7 active torsions:
REMARK  status: ('A' for Active; 'I' for Inactive)
REMARK    1  A    between atoms: C_1  and  N_2
REMARK    2  A    between atoms: C_8  and  C_9
REMARK    3  A    between atoms: N_11  and  C_12
REMARK    4  A    between atoms: C_12  and  C_13
REMARK    5  A    between atoms: C_16  and  O_17
REMARK    6  A    between atoms: O_17  and  C_18
REMARK    7  A    between atoms: C_18  and  C_19
REMARK                            x       y       z     vdW  Elec       q    Type
REMARK                         _______ _______ _______ _____ _____    ______ ____
ROOT
ATOM      1  C   UNL     1      48.520   7.082  13.983  0.00  0.00    +0.000 C 
ATOM      2  O   UNL     1      49.107   7.079  12.904  0.00  0.00    +0.000 OA
ATOM      3  N   UNL     1      47.160   7.220  14.082  0.00  0.00    +0.000 N 
ATOM      4  H   UNL     1      46.749   7.350  14.999  0.00  0.00    +0.000 HD
ENDROOT
BRANCH   1  12
ATOM      5  C   UNL     1      47.469   2.813  17.632  0.00  0.00    +0.000 C 
ATOM      6  N   UNL     1      48.333   3.966  17.488  0.00  0.00    +0.000 N 
ATOM      7  C   UNL     1      49.273   4.265  18.454  0.00  0.00    +0.000 A 
ATOM      8  N   UNL     1      50.092   5.264  18.416  0.00  0.00    +0.000 NA
ATOM      9  C   UNL     1      49.977   6.049  17.316  0.00  0.00    +0.000 A 
ATOM     10  S   UNL     1      50.948   7.434  17.123  0.00  0.00    +0.000 S 
ATOM     11  C   UNL     1      50.203   7.819  15.638  0.00  0.00    +0.000 A 
ATOM     12  C   UNL     1      49.241   6.899  15.249  0.00  0.00    +0.000 A 
ATOM     13  C   UNL     1      49.107   5.873  16.259  0.00  0.00    +0.000 A 
ATOM     14  C   UNL     1      48.211   4.731  16.331  0.00  0.00    +0.000 A 
ATOM     15  O   UNL     1      47.430   4.444  15.426  0.00  0.00    +0.000 OA
ENDBRANCH   1  12
BRANCH   3  16
ATOM     16  C   UNL     1      46.324   7.528  12.952  0.00  0.00    +0.000 C 
BRANCH  16  17
ATOM     17  C   UNL     1      45.882   6.294  12.226  0.00  0.00    +0.000 A 
ATOM     18  C   UNL     1      45.634   5.099  12.905  0.00  0.00    +0.000 A 
ATOM     19  C   UNL     1      45.237   3.970  12.192  0.00  0.00    +0.000 A 
ATOM     20  C   UNL     1      45.120   4.069  10.818  0.00  0.00    +0.000 A 
ATOM     21  N   UNL     1      45.328   5.212  10.129  0.00  0.00    +0.000 NA
ATOM     22  C   UNL     1      45.690   6.298  10.848  0.00  0.00    +0.000 A 
BRANCH  20  23
ATOM     23  O   UNL     1      44.735   2.929  10.141  0.00  0.00    +0.000 OA
BRANCH  23  24
ATOM     24  C   UNL     1      44.589   3.164   8.740  0.00  0.00    +0.000 C 
BRANCH  24  25
ATOM     25  C   UNL     1      45.756   2.533   8.022  0.00  0.00    +0.000 A 
ATOM     26  C   UNL     1      46.607   3.318   7.238  0.00  0.00    +0.000 A 
ATOM     27  C   UNL     1      47.690   2.713   6.622  0.00  0.00    +0.000 A 
ATOM     28  N   UNL     1      47.980   1.399   6.732  0.00  0.00    +0.000 NA
ATOM     29  C   UNL     1      47.143   0.658   7.488  0.00  0.00    +0.000 A 
ATOM     30  C   UNL     1      46.033   1.169   8.143  0.00  0.00    +0.000 A 
ENDBRANCH  24  25
ENDBRANCH  23  24
ENDBRANCH  20  23
ENDBRANCH  16  17
ENDBRANCH   3  16
TORSDOF 6
ENDMDL
MODEL 2
REMARK VINA RESULT:    -8.059      2.195      2.767
REMARK INTER + INTRA:         -11.901
REMARK INTER:                 -11.043
REMARK INTRA:                  -0.857
REMARK UNBOUND:                -1.015
REMARK  Name = 
REMARK  7 active torsions:
REMARK  status: ('A' for Active; 'I' for Inactive)
REMARK    1  A    between atoms: C_1  and  N_2
REMARK    2  A    between atoms: C_8  and  C_9
REMARK    3  A    between atoms: N_11  and  C_12
REMARK    4  A    between atoms: C_12  and  C_13
REMARK    5  A    between atoms: C_16  and  O_17
REMARK    6  A    between atoms: O_17  and  C_18
REMARK    7  A    between atoms: C_18  and  C_19
REMARK                            x       y       z     vdW  Elec       q    Type
REMARK                         _______ _______ _______ _____ _____    ______ ____
ROOT
ATOM      1  C   UNL     1      48.628   6.201  15.545  0.00  0.00    +0.000 C 
ATOM      2  O   UNL     1      49.685   6.650  15.111  0.00  0.00    +0.000 OA
ATOM      3  N   UNL     1      47.475   6.182  14.804  0.00  0.00    +0.000 N 
ATOM      4  H   UNL     1      46.607   5.926  15.259  0.00  0.00    +0.000 HD
ENDROOT
BRANCH   1  12
ATOM      5  C   UNL     1      47.753   9.269  20.285  0.00  0.00    +0.000 C 
ATOM      6  N   UNL     1      47.949   7.895  19.869  0.00  0.00    +0.000 N 
ATOM      7  C   UNL     1      47.937   6.872  20.795  0.00  0.00    +0.000 A 
ATOM      8  N   UNL     1      48.097   5.618  20.526  0.00  0.00    +0.000 NA
ATOM      9  C   UNL     1      48.286   5.341  19.212  0.00  0.00    +0.000 A 
ATOM     10  S   UNL     1      48.557   3.746  18.683  0.00  0.00    +0.000 S 
ATOM     11  C   UNL     1      48.717   4.249  17.062  0.00  0.00    +0.000 A 
ATOM     12  C   UNL     1      48.538   5.614  16.888  0.00  0.00    +0.000 A 
ATOM     13  C   UNL     1      48.304   6.244  18.168  0.00  0.00    +0.000 A 
ATOM     14  C   UNL     1      48.107   7.644  18.509  0.00  0.00    +0.000 A 
ATOM     15  O   UNL     1      48.051   8.530  17.659  0.00  0.00    +0.000 OA
ENDBRANCH   1  12
BRANCH   3  16
ATOM     16  C   UNL     1      47.364   6.825  13.520  0.00  0.00    +0.000 C 
BRANCH  16  17
ATOM     17  C   UNL     1      46.613   5.984  12.533  0.00  0.00    +0.000 A 
ATOM     18  C   UNL     1      46.416   6.407  11.217  0.00  0.00    +0.000 A 
ATOM     19  C   UNL     1      45.701   5.603  10.333  0.00  0.00    +0.000 A 
ATOM     20  C   UNL     1      45.190   4.406  10.801  0.00  0.00    +0.000 A 
ATOM     21  N   UNL     1      45.380   3.952  12.059  0.00  0.00    +0.000 NA
ATOM     22  C   UNL     1      46.097   4.742  12.889  0.00  0.00    +0.000 A 
BRANCH  20  23
ATOM     23  O   UNL     1      44.479   3.638   9.902  0.00  0.00    +0.000 OA
BRANCH  23  24
ATOM     24  C   UNL     1      44.758   4.003   8.550  0.00  0.00    +0.000 C 
BRANCH  24  25
ATOM     25  C   UNL     1      45.775   3.040   7.991  0.00  0.00    +0.000 A 
ATOM     26  C   UNL     1      46.785   3.499   7.139  0.00  0.00    +0.000 A 
ATOM     27  C   UNL     1      47.724   2.595   6.673  0.00  0.00    +0.000 A 
ATOM     28  N   UNL     1      47.728   1.283   6.992  0.00  0.00    +0.000 NA
ATOM     29  C   UNL     1      46.741   0.858   7.810  0.00  0.00    +0.000 A 
ATOM     30  C   UNL     1      45.756   1.684   8.328  0.00  0.00    +0.000 A 
ENDBRANCH  24  25
ENDBRANCH  23  24
ENDBRANCH  20  23
ENDBRANCH  16  17
ENDBRANCH   3  16
TORSDOF 6
ENDMDL
MODEL 3
REMARK VINA RESULT:    -7.395      1.443      1.962
REMARK INTER + INTRA:         -11.004
REMARK INTER:                  -9.954
REMARK INTRA:                  -1.050
REMARK UNBOUND:                -1.015
REMARK  Name = 
REMARK  7 active torsions:
REMARK  status: ('A' for Active; 'I' for Inactive)
REMARK    1  A    between atoms: C_1  and  N_2
REMARK    2  A    between atoms: C_8  and  C_9
REMARK    3  A    between atoms: N_11  and  C_12
REMARK    4  A    between atoms: C_12  and  C_13
REMARK    5  A    between atoms: C_16  and  O_17
REMARK    6  A    between atoms: O_17  and  C_18
REMARK    7  A    between atoms: C_18  and  C_19
REMARK                            x       y       z     vdW  Elec       q    Type
REMARK                         _______ _______ _______ _____ _____    ______ ____
ROOT
ATOM      1  C   UNL     1      49.109   7.913  15.450  0.00  0.00    +0.000 C 
ATOM      2  O   UNL     1      50.052   8.358  14.802  0.00  0.00    +0.000 OA
ATOM      3  N   UNL     1      47.888   7.641  14.886  0.00  0.00    +0.000 N 
ATOM      4  H   UNL     1      47.113   7.405  15.494  0.00  0.00    +0.000 HD
ENDROOT
BRANCH   1  12
ATOM      5  C   UNL     1      47.923   2.797  17.701  0.00  0.00    +0.000 C 
ATOM      6  N   UNL     1      48.380   4.111  18.104  0.00  0.00    +0.000 N 
ATOM      7  C   UNL     1      48.682   4.376  19.425  0.00  0.00    +0.000 A 
ATOM      8  N   UNL     1      49.099   5.509  19.883  0.00  0.00    +0.000 NA
ATOM      9  C   UNL     1      49.237   6.482  18.948  0.00  0.00    +0.000 A 
ATOM     10  S   UNL     1      49.737   8.050  19.383  0.00  0.00    +0.000 S 
ATOM     11  C   UNL     1      49.620   8.596  17.771  0.00  0.00    +0.000 A 
ATOM     12  C   UNL     1      49.238   7.604  16.879  0.00  0.00    +0.000 A 
ATOM     13  C   UNL     1      48.998   6.370  17.593  0.00  0.00    +0.000 A 
ATOM     14  C   UNL     1      48.542   5.076  17.114  0.00  0.00    +0.000 A 
ATOM     15  O   UNL     1      48.347   4.843  15.922  0.00  0.00    +0.000 OA
ENDBRANCH   1  12
BRANCH   3  16
ATOM     16  C   UNL     1      47.560   7.998  13.531  0.00  0.00    +0.000 C 
BRANCH  16  17
ATOM     17  C   UNL     1      46.705   6.962  12.868  0.00  0.00    +0.000 A 
ATOM     18  C   UNL     1      45.845   7.291  11.817  0.00  0.00    +0.000 A 
ATOM     19  C   UNL     1      45.056   6.302  11.235  0.00  0.00    +0.000 A 
ATOM     20  C   UNL     1      45.139   5.016  11.738  0.00  0.00    +0.000 A 
ATOM     21  N   UNL     1      45.974   4.655  12.736  0.00  0.00    +0.000 NA
ATOM     22  C   UNL     1      46.745   5.630  13.267  0.00  0.00    +0.000 A 
BRANCH  20  23
ATOM     23  O   UNL     1      44.336   4.063  11.145  0.00  0.00    +0.000 OA
BRANCH  23  24
ATOM     24  C   UNL     1      44.104   4.344   9.765  0.00  0.00    +0.000 C 
BRANCH  24  25
ATOM     25  C   UNL     1      45.061   3.523   8.937  0.00  0.00    +0.000 A 
ATOM     26  C   UNL     1      45.141   2.139   9.120  0.00  0.00    +0.000 A 
ATOM     27  C   UNL     1      46.002   1.411   8.317  0.00  0.00    +0.000 A 
ATOM     28  N   UNL     1      46.780   1.958   7.358  0.00  0.00    +0.000 NA
ATOM     29  C   UNL     1      46.693   3.296   7.202  0.00  0.00    +0.000 A 
ATOM     30  C   UNL     1      45.861   4.111   7.955  0.00  0.00    +0.000 A 
ENDBRANCH  24  25
ENDBRANCH  23  24
ENDBRANCH  20  23
ENDBRANCH  16  17
ENDBRANCH   3  16
TORSDOF 6
ENDMDL
MODEL 4
REMARK VINA RESULT:    -6.675      2.836      8.846
REMARK INTER + INTRA:         -10.032
REMARK INTER:                  -8.880
REMARK INTRA:                  -1.152
REMARK UNBOUND:                -1.015
REMARK  Name = 
REMARK  7 active torsions:
REMARK  status: ('A' for Active; 'I' for Inactive)
REMARK    1  A    between atoms: C_1  and  N_2
REMARK    2  A    between atoms: C_8  and  C_9
REMARK    3  A    between atoms: N_11  and  C_12
REMARK    4  A    between atoms: C_12  and  C_13
REMARK    5  A    between atoms: C_16  and  O_17
REMARK    6  A    between atoms: O_17  and  C_18
REMARK    7  A    between atoms: C_18  and  C_19
REMARK                            x       y       z     vdW  Elec       q    Type
REMARK                         _______ _______ _______ _____ _____    ______ ____
ROOT
ATOM      1  C   UNL     1      45.225   6.581  11.570  0.00  0.00    +0.000 C 
ATOM      2  O   UNL     1      44.489   7.563  11.541  0.00  0.00    +0.000 OA
ATOM      3  N   UNL     1      46.566   6.670  11.842  0.00  0.00    +0.000 N 
ATOM      4  H   UNL     1      47.144   5.847  11.719  0.00  0.00    +0.000 HD
ENDROOT
BRANCH   1  12
ATOM      5  C   UNL     1      46.262   3.524   6.856  0.00  0.00    +0.000 C 
ATOM      6  N   UNL     1      45.553   3.421   8.115  0.00  0.00    +0.000 N 
ATOM      7  C   UNL     1      44.862   2.272   8.441  0.00  0.00    +0.000 A 
ATOM      8  N   UNL     1      44.204   2.080   9.536  0.00  0.00    +0.000 NA
ATOM      9  C   UNL     1      44.230   3.124  10.401  0.00  0.00    +0.000 A 
ATOM     10  S   UNL     1      43.382   3.061  11.876  0.00  0.00    +0.000 S 
ATOM     11  C   UNL     1      43.871   4.640  12.292  0.00  0.00    +0.000 A 
ATOM     12  C   UNL     1      44.704   5.226  11.349  0.00  0.00    +0.000 A 
ATOM     13  C   UNL     1      44.889   4.325  10.233  0.00  0.00    +0.000 A 
ATOM     14  C   UNL     1      45.628   4.498   8.993  0.00  0.00    +0.000 A 
ATOM     15  O   UNL     1      46.296   5.503   8.756  0.00  0.00    +0.000 OA
ENDBRANCH   1  12
BRANCH   3  16
ATOM     16  C   UNL     1      47.253   7.929  11.962  0.00  0.00    +0.000 C 
BRANCH  16  17
ATOM     17  C   UNL     1      48.096   7.994  13.199  0.00  0.00    +0.000 A 
ATOM     18  C   UNL     1      47.983   9.053  14.103  0.00  0.00    +0.000 A 
ATOM     19  C   UNL     1      48.795   9.084  15.235  0.00  0.00    +0.000 A 
ATOM     20  C   UNL     1      49.708   8.061  15.415  0.00  0.00    +0.000 A 
ATOM     21  N   UNL     1      49.830   7.009  14.578  0.00  0.00    +0.000 NA
ATOM     22  C   UNL     1      49.014   6.993  13.500  0.00  0.00    +0.000 A 
BRANCH  20  23
ATOM     23  O   UNL     1      50.503   8.128  16.542  0.00  0.00    +0.000 OA
BRANCH  23  24
ATOM     24  C   UNL     1      49.727   8.178  17.740  0.00  0.00    +0.000 C 
BRANCH  24  25
ATOM     25  C   UNL     1      49.350   6.771  18.130  0.00  0.00    +0.000 A 
ATOM     26  C   UNL     1      50.336   5.789  18.263  0.00  0.00    +0.000 A 
ATOM     27  C   UNL     1      49.960   4.517  18.660  0.00  0.00    +0.000 A 
ATOM     28  N   UNL     1      48.686   4.160  18.929  0.00  0.00    +0.000 NA
ATOM     29  C   UNL     1      47.748   5.120  18.787  0.00  0.00    +0.000 A 
ATOM     30  C   UNL     1      48.024   6.421  18.396  0.00  0.00    +0.000 A 
ENDBRANCH  24  25
ENDBRANCH  23  24
ENDBRANCH  20  23
ENDBRANCH  16  17
ENDBRANCH   3  16
TORSDOF 6
ENDMDL
MODEL 5
REMARK VINA RESULT:    -6.664      4.087      8.481
REMARK INTER + INTRA:         -10.017
REMARK INTER:                  -8.953
REMARK INTRA:                  -1.064
REMARK UNBOUND:                -1.015
REMARK  Name = 
REMARK  7 active torsions:
REMARK  status: ('A' for Active; 'I' for Inactive)
REMARK    1  A    between atoms: C_1  and  N_2
REMARK    2  A    between atoms: C_8  and  C_9
REMARK    3  A    between atoms: N_11  and  C_12
REMARK    4  A    between atoms: C_12  and  C_13
REMARK    5  A    between atoms: C_16  and  O_17
REMARK    6  A    between atoms: O_17  and  C_18
REMARK    7  A    between atoms: C_18  and  C_19
REMARK                            x       y       z     vdW  Elec       q    Type
REMARK                         _______ _______ _______ _____ _____    ______ ____
ROOT
ATOM      1  C   UNL     1      46.950   4.258  14.615  0.00  0.00    +0.000 C 
ATOM      2  O   UNL     1      47.273   3.159  14.175  0.00  0.00    +0.000 OA
ATOM      3  N   UNL     1      47.040   4.575  15.946  0.00  0.00    +0.000 N 
ATOM      4  H   UNL     1      46.634   5.446  16.269  0.00  0.00    +0.000 HD
ENDROOT
BRANCH   1  12
ATOM      5  C   UNL     1      49.918   9.021  13.542  0.00  0.00    +0.000 C 
ATOM      6  N   UNL     1      48.660   8.393  13.196  0.00  0.00    +0.000 N 
ATOM      7  C   UNL     1      47.782   9.008  12.327  0.00  0.00    +0.000 A 
ATOM      8  N   UNL     1      46.641   8.530  11.954  0.00  0.00    +0.000 NA
ATOM      9  C   UNL     1      46.332   7.322  12.486  0.00  0.00    +0.000 A 
ATOM     10  S   UNL     1      44.849   6.564  12.136  0.00  0.00    +0.000 S 
ATOM     11  C   UNL     1      45.221   5.240  13.144  0.00  0.00    +0.000 A 
ATOM     12  C   UNL     1      46.475   5.330  13.731  0.00  0.00    +0.000 A 
ATOM     13  C   UNL     1      47.107   6.572  13.348  0.00  0.00    +0.000 A 
ATOM     14  C   UNL     1      48.389   7.138  13.735  0.00  0.00    +0.000 A 
ATOM     15  O   UNL     1      49.186   6.539  14.455  0.00  0.00    +0.000 OA
ENDBRANCH   1  12
BRANCH   3  16
ATOM     16  C   UNL     1      47.369   3.605  16.957  0.00  0.00    +0.000 C 
BRANCH  16  17
ATOM     17  C   UNL     1      48.844   3.541  17.216  0.00  0.00    +0.000 A 
ATOM     18  C   UNL     1      49.552   2.341  17.102  0.00  0.00    +0.000 A 
ATOM     19  C   UNL     1      50.920   2.320  17.364  0.00  0.00    +0.000 A 
ATOM     20  C   UNL     1      51.532   3.499  17.750  0.00  0.00    +0.000 A 
ATOM     21  N   UNL     1      50.887   4.681  17.847  0.00  0.00    +0.000 NA
ATOM     22  C   UNL     1      49.565   4.677  17.565  0.00  0.00    +0.000 A 
BRANCH  20  23
ATOM     23  O   UNL     1      52.886   3.440  18.011  0.00  0.00    +0.000 OA
BRANCH  23  24
ATOM     24  C   UNL     1      53.263   2.194  18.597  0.00  0.00    +0.000 C 
BRANCH  24  25
ATOM     25  C   UNL     1      54.070   1.412  17.590  0.00  0.00    +0.000 A 
ATOM     26  C   UNL     1      55.026   2.058  16.800  0.00  0.00    +0.000 A 
ATOM     27  C   UNL     1      55.775   1.304  15.913  0.00  0.00    +0.000 A 
ATOM     28  N   UNL     1      55.640  -0.031  15.760  0.00  0.00    +0.000 NA
ATOM     29  C   UNL     1      54.708  -0.635  16.527  0.00  0.00    +0.000 A 
ATOM     30  C   UNL     1      53.909   0.032  17.444  0.00  0.00    +0.000 A 
ENDBRANCH  24  25
ENDBRANCH  23  24
ENDBRANCH  20  23
ENDBRANCH  16  17
ENDBRANCH   3  16
TORSDOF 6
ENDMDL
MODEL 6
REMARK VINA RESULT:    -6.590      2.522      3.488
REMARK INTER + INTRA:          -9.916
REMARK INTER:                  -9.094
REMARK INTRA:                  -0.822
REMARK UNBOUND:                -1.015
REMARK  Name = 
REMARK  7 active torsions:
REMARK  status: ('A' for Active; 'I' for Inactive)
REMARK    1  A    between atoms: C_1  and  N_2
REMARK    2  A    between atoms: C_8  and  C_9
REMARK    3  A    between atoms: N_11  and  C_12
REMARK    4  A    between atoms: C_12  and  C_13
REMARK    5  A    between atoms: C_16  and  O_17
REMARK    6  A    between atoms: O_17  and  C_18
REMARK    7  A    between atoms: C_18  and  C_19
REMARK                            x       y       z     vdW  Elec       q    Type
REMARK                         _______ _______ _______ _____ _____    ______ ____
ROOT
ATOM      1  C   UNL     1      48.822   7.328  14.697  0.00  0.00    +0.000 C 
ATOM      2  O   UNL     1      48.273   7.681  15.737  0.00  0.00    +0.000 OA
ATOM      3  N   UNL     1      48.291   6.372  13.870  0.00  0.00    +0.000 N 
ATOM      4  H   UNL     1      48.853   6.027  13.101  0.00  0.00    +0.000 HD
ENDROOT
BRANCH   1  12
ATOM      5  C   UNL     1      53.867   6.420  17.220  0.00  0.00    +0.000 C 
ATOM      6  N   UNL     1      53.293   7.159  16.115  0.00  0.00    +0.000 N 
ATOM      7  C   UNL     1      54.090   7.938  15.301  0.00  0.00    +0.000 A 
ATOM      8  N   UNL     1      53.677   8.630  14.291  0.00  0.00    +0.000 NA
ATOM      9  C   UNL     1      52.344   8.546  14.055  0.00  0.00    +0.000 A 
ATOM     10  S   UNL     1      51.621   9.426  12.789  0.00  0.00    +0.000 S 
ATOM     11  C   UNL     1      50.073   8.832  13.184  0.00  0.00    +0.000 A 
ATOM     12  C   UNL     1      50.078   7.940  14.247  0.00  0.00    +0.000 A 
ATOM     13  C   UNL     1      51.422   7.799  14.760  0.00  0.00    +0.000 A 
ATOM     14  C   UNL     1      51.927   7.024  15.881  0.00  0.00    +0.000 A 
ATOM     15  O   UNL     1      51.210   6.282  16.549  0.00  0.00    +0.000 OA
ENDBRANCH   1  12
BRANCH   3  16
ATOM     16  C   UNL     1      47.135   5.592  14.224  0.00  0.00    +0.000 C 
BRANCH  16  17
ATOM     17  C   UNL     1      46.373   5.135  13.017  0.00  0.00    +0.000 A 
ATOM     18  C   UNL     1      46.096   6.005  11.959  0.00  0.00    +0.000 A 
ATOM     19  C   UNL     1      45.373   5.546  10.860  0.00  0.00    +0.000 A 
ATOM     20  C   UNL     1      44.934   4.234  10.865  0.00  0.00    +0.000 A 
ATOM     21  N   UNL     1      45.202   3.358  11.857  0.00  0.00    +0.000 NA
ATOM     22  C   UNL     1      45.925   3.824  12.900  0.00  0.00    +0.000 A 
BRANCH  20  23
ATOM     23  O   UNL     1      44.213   3.815   9.766  0.00  0.00    +0.000 OA
BRANCH  23  24
ATOM     24  C   UNL     1      44.487   2.453   9.435  0.00  0.00    +0.000 C 
BRANCH  24  25
ATOM     25  C   UNL     1      45.543   2.422   8.358  0.00  0.00    +0.000 A 
ATOM     26  C   UNL     1      46.305   1.267   8.154  0.00  0.00    +0.000 A 
ATOM     27  C   UNL     1      47.240   1.259   7.133  0.00  0.00    +0.000 A 
ATOM     28  N   UNL     1      47.465   2.307   6.311  0.00  0.00    +0.000 NA
ATOM     29  C   UNL     1      46.724   3.414   6.529  0.00  0.00    +0.000 A 
ATOM     30  C   UNL     1      45.765   3.521   7.525  0.00  0.00    +0.000 A 
ENDBRANCH  24  25
ENDBRANCH  23  24
ENDBRANCH  20  23
ENDBRANCH  16  17
ENDBRANCH   3  16
TORSDOF 6
ENDMDL
MODEL 7
REMARK VINA RESULT:    -6.393      4.668      7.929
REMARK INTER + INTRA:          -9.650
REMARK INTER:                  -8.707
REMARK INTRA:                  -0.943
REMARK UNBOUND:                -1.015
REMARK  Name = 
REMARK  7 active torsions:
REMARK  status: ('A' for Active; 'I' for Inactive)
REMARK    1  A    between atoms: C_1  and  N_2
REMARK    2  A    between atoms: C_8  and  C_9
REMARK    3  A    between atoms: N_11  and  C_12
REMARK    4  A    between atoms: C_12  and  C_13
REMARK    5  A    between atoms: C_16  and  O_17
REMARK    6  A    between atoms: O_17  and  C_18
REMARK    7  A    between atoms: C_18  and  C_19
REMARK                            x       y       z     vdW  Elec       q    Type
REMARK                         _______ _______ _______ _____ _____    ______ ____
ROOT
ATOM      1  C   UNL     1      44.490   6.439  11.616  0.00  0.00    +0.000 C 
ATOM      2  O   UNL     1      43.698   7.298  11.239  0.00  0.00    +0.000 OA
ATOM      3  N   UNL     1      45.604   6.736  12.358  0.00  0.00    +0.000 N 
ATOM      4  H   UNL     1      46.288   6.007  12.523  0.00  0.00    +0.000 HD
ENDROOT
BRANCH   1  12
ATOM      5  C   UNL     1      46.659   3.778   7.049  0.00  0.00    +0.000 C 
ATOM      6  N   UNL     1      45.838   3.504   8.211  0.00  0.00    +0.000 N 
ATOM      7  C   UNL     1      45.350   2.234   8.443  0.00  0.00    +0.000 A 
ATOM      8  N   UNL     1      44.616   1.888   9.448  0.00  0.00    +0.000 NA
ATOM      9  C   UNL     1      44.335   2.891  10.316  0.00  0.00    +0.000 A 
ATOM     10  S   UNL     1      43.344   2.623  11.674  0.00  0.00    +0.000 S 
ATOM     11  C   UNL     1      43.464   4.254  12.155  0.00  0.00    +0.000 A 
ATOM     12  C   UNL     1      44.273   5.016  11.325  0.00  0.00    +0.000 A 
ATOM     13  C   UNL     1      44.762   4.201  10.236  0.00  0.00    +0.000 A 
ATOM     14  C   UNL     1      45.597   4.549   9.097  0.00  0.00    +0.000 A 
ATOM     15  O   UNL     1      46.079   5.670   8.949  0.00  0.00    +0.000 OA
ENDBRANCH   1  12
BRANCH   3  16
ATOM     16  C   UNL     1      46.024   8.086  12.624  0.00  0.00    +0.000 C 
BRANCH  16  17
ATOM     17  C   UNL     1      47.436   8.333  12.187  0.00  0.00    +0.000 A 
ATOM     18  C   UNL     1      47.931   9.629  12.020  0.00  0.00    +0.000 A 
ATOM     19  C   UNL     1      49.245   9.817  11.599  0.00  0.00    +0.000 A 
ATOM     20  C   UNL     1      50.017   8.699  11.341  0.00  0.00    +0.000 A 
ATOM     21  N   UNL     1      49.582   7.432  11.513  0.00  0.00    +0.000 NA
ATOM     22  C   UNL     1      48.311   7.280  11.944  0.00  0.00    +0.000 A 
BRANCH  20  23
ATOM     23  O   UNL     1      51.311   8.921  10.916  0.00  0.00    +0.000 OA
BRANCH  23  24
ATOM     24  C   UNL     1      51.973   7.705  10.565  0.00  0.00    +0.000 C 
BRANCH  24  25
ATOM     25  C   UNL     1      52.811   7.949   9.335  0.00  0.00    +0.000 A 
ATOM     26  C   UNL     1      53.710   9.019   9.296  0.00  0.00    +0.000 A 
ATOM     27  C   UNL     1      54.491   9.192   8.166  0.00  0.00    +0.000 A 
ATOM     28  N   UNL     1      54.439   8.385   7.085  0.00  0.00    +0.000 NA
ATOM     29  C   UNL     1      53.560   7.362   7.140  0.00  0.00    +0.000 A 
ATOM     30  C   UNL     1      52.736   7.105   8.224  0.00  0.00    +0.000 A 
ENDBRANCH  24  25
ENDBRANCH  23  24
ENDBRANCH  20  23
ENDBRANCH  16  17
ENDBRANCH   3  16
TORSDOF 6
ENDMDL
MODEL 8
REMARK VINA RESULT:    -6.079      4.105      8.895
REMARK INTER + INTRA:          -9.227
REMARK INTER:                  -7.795
REMARK INTRA:                  -1.432
REMARK UNBOUND:                -1.015
REMARK  Name = 
REMARK  7 active torsions:
REMARK  status: ('A' for Active; 'I' for Inactive)
REMARK    1  A    between atoms: C_1  and  N_2
REMARK    2  A    between atoms: C_8  and  C_9
REMARK    3  A    between atoms: N_11  and  C_12
REMARK    4  A    between atoms: C_12  and  C_13
REMARK    5  A    between atoms: C_16  and  O_17
REMARK    6  A    between atoms: O_17  and  C_18
REMARK    7  A    between atoms: C_18  and  C_19
REMARK                            x       y       z     vdW  Elec       q    Type
REMARK                         _______ _______ _______ _____ _____    ______ ____
ROOT
ATOM      1  C   UNL     1      47.047   4.038  14.856  0.00  0.00    +0.000 C 
ATOM      2  O   UNL     1      47.461   2.968  14.419  0.00  0.00    +0.000 OA
ATOM      3  N   UNL     1      47.061   4.344  16.192  0.00  0.00    +0.000 N 
ATOM      4  H   UNL     1      46.584   5.181  16.506  0.00  0.00    +0.000 HD
ENDROOT
BRANCH   1  12
ATOM      5  C   UNL     1      49.808   8.931  13.817  0.00  0.00    +0.000 C 
ATOM      6  N   UNL     1      48.585   8.245  13.454  0.00  0.00    +0.000 N 
ATOM      7  C   UNL     1      47.692   8.818  12.571  0.00  0.00    +0.000 A 
ATOM      8  N   UNL     1      46.580   8.288  12.182  0.00  0.00    +0.000 NA
ATOM      9  C   UNL     1      46.320   7.067  12.712  0.00  0.00    +0.000 A 
ATOM     10  S   UNL     1      44.878   6.241  12.342  0.00  0.00    +0.000 S 
ATOM     11  C   UNL     1      45.296   4.937  13.358  0.00  0.00    +0.000 A 
ATOM     12  C   UNL     1      46.536   5.085  13.963  0.00  0.00    +0.000 A 
ATOM     13  C   UNL     1      47.116   6.355  13.586  0.00  0.00    +0.000 A 
ATOM     14  C   UNL     1      48.365   6.979  13.991  0.00  0.00    +0.000 A 
ATOM     15  O   UNL     1      49.178   6.419  14.724  0.00  0.00    +0.000 OA
ENDBRANCH   1  12
BRANCH   3  16
ATOM     16  C   UNL     1      47.415   3.386  17.207  0.00  0.00    +0.000 C 
BRANCH  16  17
ATOM     17  C   UNL     1      48.847   3.516  17.628  0.00  0.00    +0.000 A 
ATOM     18  C   UNL     1      49.827   2.635  17.162  0.00  0.00    +0.000 A 
ATOM     19  C   UNL     1      51.145   2.781  17.588  0.00  0.00    +0.000 A 
ATOM     20  C   UNL     1      51.437   3.795  18.482  0.00  0.00    +0.000 A 
ATOM     21  N   UNL     1      50.524   4.680  18.935  0.00  0.00    +0.000 NA
ATOM     22  C   UNL     1      49.257   4.529  18.489  0.00  0.00    +0.000 A 
BRANCH  20  23
ATOM     23  O   UNL     1      52.751   3.905  18.891  0.00  0.00    +0.000 OA
BRANCH  23  24
ATOM     24  C   UNL     1      53.639   4.090  17.788  0.00  0.00    +0.000 C 
BRANCH  24  25
ATOM     25  C   UNL     1      53.843   5.570  17.575  0.00  0.00    +0.000 A 
ATOM     26  C   UNL     1      54.394   6.357  18.590  0.00  0.00    +0.000 A 
ATOM     27  C   UNL     1      54.603   7.704  18.348  0.00  0.00    +0.000 A 
ATOM     28  N   UNL     1      54.303   8.314  17.181  0.00  0.00    +0.000 NA
ATOM     29  C   UNL     1      53.765   7.538  16.217  0.00  0.00    +0.000 A 
ATOM     30  C   UNL     1      53.518   6.181  16.362  0.00  0.00    +0.000 A 
ENDBRANCH  24  25
ENDBRANCH  23  24
ENDBRANCH  20  23
ENDBRANCH  16  17
ENDBRANCH   3  16
TORSDOF 6
ENDMDL
MODEL 9
REMARK VINA RESULT:    -5.602      4.766      8.850
REMARK INTER + INTRA:          -8.583
REMARK INTER:                  -7.667
REMARK INTRA:                  -0.916
REMARK UNBOUND:                -1.015
REMARK  Name = 
REMARK  7 active torsions:
REMARK  status: ('A' for Active; 'I' for Inactive)
REMARK    1  A    between atoms: C_1  and  N_2
REMARK    2  A    between atoms: C_8  and  C_9
REMARK    3  A    between atoms: N_11  and  C_12
REMARK    4  A    between atoms: C_12  and  C_13
REMARK    5  A    between atoms: C_16  and  O_17
REMARK    6  A    between atoms: O_17  and  C_18
REMARK    7  A    between atoms: C_18  and  C_19
REMARK                            x       y       z     vdW  Elec       q    Type
REMARK                         _______ _______ _______ _____ _____    ______ ____
ROOT
ATOM      1  C   UNL     1      48.613   5.857  16.414  0.00  0.00    +0.000 C 
ATOM      2  O   UNL     1      48.676   6.568  17.414  0.00  0.00    +0.000 OA
ATOM      3  N   UNL     1      48.671   4.489  16.476  0.00  0.00    +0.000 N 
ATOM      4  H   UNL     1      48.751   3.965  15.613  0.00  0.00    +0.000 HD
ENDROOT
BRANCH   1  12
ATOM      5  C   UNL     1      45.032   3.719  12.510  0.00  0.00    +0.000 C 
ATOM      6  N   UNL     1      45.980   4.802  12.675  0.00  0.00    +0.000 N 
ATOM      7  C   UNL     1      46.197   5.708  11.657  0.00  0.00    +0.000 A 
ATOM      8  N   UNL     1      47.014   6.708  11.708  0.00  0.00    +0.000 NA
ATOM      9  C   UNL     1      47.685   6.831  12.880  0.00  0.00    +0.000 A 
ATOM     10  S   UNL     1      48.834   8.067  13.105  0.00  0.00    +0.000 S 
ATOM     11  C   UNL     1      49.192   7.525  14.682  0.00  0.00    +0.000 A 
ATOM     12  C   UNL     1      48.433   6.432  15.075  0.00  0.00    +0.000 A 
ATOM     13  C   UNL     1      47.565   6.025  13.994  0.00  0.00    +0.000 A 
ATOM     14  C   UNL     1      46.626   4.919  13.903  0.00  0.00    +0.000 A 
ATOM     15  O   UNL     1      46.397   4.166  14.848  0.00  0.00    +0.000 OA
ENDBRANCH   1  12
BRANCH   3  16
ATOM     16  C   UNL     1      48.965   3.777  17.692  0.00  0.00    +0.000 C 
BRANCH  16  17
ATOM     17  C   UNL     1      50.335   3.169  17.671  0.00  0.00    +0.000 A 
ATOM     18  C   UNL     1      50.533   1.831  17.321  0.00  0.00    +0.000 A 
ATOM     19  C   UNL     1      51.821   1.300  17.327  0.00  0.00    +0.000 A 
ATOM     20  C   UNL     1      52.868   2.122  17.701  0.00  0.00    +0.000 A 
ATOM     21  N   UNL     1      52.719   3.426  18.022  0.00  0.00    +0.000 NA
ATOM     22  C   UNL     1      51.462   3.921  17.986  0.00  0.00    +0.000 A 
BRANCH  20  23
ATOM     23  O   UNL     1      54.129   1.562  17.705  0.00  0.00    +0.000 OA
BRANCH  23  24
ATOM     24  C   UNL     1      54.243   0.511  18.665  0.00  0.00    +0.000 C 
BRANCH  24  25
ATOM     25  C   UNL     1      54.557  -0.774  17.940  0.00  0.00    +0.000 A 
ATOM     26  C   UNL     1      54.466  -1.999  18.607  0.00  0.00    +0.000 A 
ATOM     27  C   UNL     1      54.725  -3.162  17.902  0.00  0.00    +0.000 A 
ATOM     28  N   UNL     1      55.064  -3.189  16.595  0.00  0.00    +0.000 NA
ATOM     29  C   UNL     1      55.153  -1.995  15.971  0.00  0.00    +0.000 A 
ATOM     30  C   UNL     1      54.913  -0.778  16.589  0.00  0.00    +0.000 A 
ENDBRANCH  24  25
ENDBRANCH  23  24
ENDBRANCH  20  23
ENDBRANCH  16  17
ENDBRANCH   3  16
TORSDOF 6
ENDMDL
