MODEL 1
REMARK VINA RESULT:    -7.744      0.000      0.000
REMARK INTER + INTRA:         -11.361
REMARK INTER:                 -10.687
REMARK INTRA:                  -0.674
REMARK UNBOUND:                -0.674
REMARK  Name = 
REMARK  7 active torsions:
REMARK  status: ('A' for Active; 'I' for Inactive)
REMARK    1  A    between atoms: N_1  and  C_2
REMARK    2  A    between atoms: C_2  and  C_3
REMARK    3  A    between atoms: C_7  and  O_8
REMARK    4  A    between atoms: O_8  and  C_9
REMARK    5  A    between atoms: C_9  and  C_10
REMARK    6  A    between atoms: C_10  and  C_11
REMARK    7  A    between atoms: C_15  and  C_16
REMARK                            x       y       z     vdW  Elec       q    Type
REMARK                         _______ _______ _______ _____ _____    ______ ____
ROOT
ATOM      1  C   UNL     1      43.507   3.891  11.024  0.00  0.00    +0.000 C 
ENDROOT
BRANCH   1   2
ATOM      2  O   UNL     1      43.892   2.786  10.196  0.00  0.00    +0.000 OA
BRANCH   2   7
ATOM      3  C   UNL     1      46.486   2.062   7.732  0.00  0.00    +0.000 A 
ATOM      4  C   UNL     1      46.814   3.343   7.274  0.00  0.00    +0.000 A 
ATOM      5  C   UNL     1      46.173   4.466   7.793  0.00  0.00    +0.000 A 
ATOM      6  C   UNL     1      45.189   4.321   8.772  0.00  0.00    +0.000 A 
ATOM      7  C   UNL     1      44.841   3.052   9.240  0.00  0.00    +0.000 A 
ATOM      8  C   UNL     1      45.494   1.929   8.718  0.00  0.00    +0.000 A 
BRANCH   3   9
ATOM      9  C   UNL     1      47.164   0.847   7.149  0.00  0.00    +0.000 C 
BRANCH   9  10
ATOM     10  N   UNL     1      46.754  -0.380   7.823  0.00  0.00    +0.000 NA
ATOM     11  H   UNL     1      46.165  -0.141   8.620  0.00  0.00    +0.000 HD
ATOM     12  H   UNL     1      47.580  -0.839   8.202  0.00  0.00    +0.000 HD
ENDBRANCH   9  10
ENDBRANCH   3   9
ENDBRANCH   2   7
ENDBRANCH   1   2
BRANCH   1  13
ATOM     13  C   UNL     1      43.916   3.635  12.472  0.00  0.00    +0.000 C 
BRANCH  13  14
ATOM     14  C   UNL     1      45.132   4.428  12.877  0.00  0.00    +0.000 A 
ATOM     15  C   UNL     1      45.594   5.463  12.084  0.00  0.00    +0.000 A 
ATOM     16  C   UNL     1      46.711   6.133  12.534  0.00  0.00    +0.000 A 
ATOM     17  N   UNL     1      47.350   5.834  13.677  0.00  0.00    +0.000 NA
ATOM     18  C   UNL     1      46.820   4.803  14.378  0.00  0.00    +0.000 A 
ATOM     19  N   UNL     1      45.735   4.082  14.031  0.00  0.00    +0.000 NA
BRANCH  18  20
ATOM     20  C   UNL     1      47.517   4.444  15.673  0.00  0.00    +0.000 C 
ATOM     21  N   UNL     1      46.810   3.623  16.522  0.00  0.00    +0.000 N 
ATOM     22  O   UNL     1      48.636   4.838  15.982  0.00  0.00    +0.000 OA
ATOM     23  H   UNL     1      45.883   3.303  16.264  0.00  0.00    +0.000 HD
ATOM     24  H   UNL     1      47.225   3.353  17.402  0.00  0.00    +0.000 HD
ENDBRANCH  18  20
ENDBRANCH  13  14
ENDBRANCH   1  13
TORSDOF 7
ENDMDL
MODEL 2
REMARK VINA RESULT:    -7.549      2.159      2.871
REMARK INTER + INTRA:         -11.092
REMARK INTER:                 -10.369
REMARK INTRA:                  -0.723
REMARK UNBOUND:                -0.674
REMARK  Name = 
REMARK  7 active torsions:
REMARK  status: ('A' for Active; 'I' for Inactive)
REMARK    1  A    between atoms: N_1  and  C_2
REMARK    2  A    between atoms: C_2  and  C_3
REMARK    3  A    between atoms: C_7  and  O_8
REMARK    4  A    between atoms: O_8  and  C_9
REMARK    5  A    between atoms: C_9  and  C_10
REMARK    6  A    between atoms: C_10  and  C_11
REMARK    7  A    between atoms: C_15  and  C_16
REMARK                            x       y       z     vdW  Elec       q    Type
REMARK                         _______ _______ _______ _____ _____    ______ ____
ROOT
ATOM      1  C   UNL     1      43.412   3.372  11.321  0.00  0.00    +0.000 C 
ENDROOT
BRANCH   1   2
ATOM      2  O   UNL     1      43.761   2.391  10.336  0.00  0.00    +0.000 OA
BRANCH   2   7
ATOM      3  C   UNL     1      46.394   2.040   7.833  0.00  0.00    +0.000 A 
ATOM      4  C   UNL     1      46.570   3.364   7.413  0.00  0.00    +0.000 A 
ATOM      5  C   UNL     1      45.812   4.390   7.971  0.00  0.00    +0.000 A 
ATOM      6  C   UNL     1      44.862   4.106   8.953  0.00  0.00    +0.000 A 
ATOM      7  C   UNL     1      44.664   2.792   9.382  0.00  0.00    +0.000 A 
ATOM      8  C   UNL     1      45.434   1.766   8.821  0.00  0.00    +0.000 A 
BRANCH   3   9
ATOM      9  C   UNL     1      47.199   0.928   7.207  0.00  0.00    +0.000 C 
BRANCH   9  10
ATOM     10  N   UNL     1      46.836  -0.376   7.749  0.00  0.00    +0.000 NA
ATOM     11  H   UNL     1      46.856  -1.066   7.000  0.00  0.00    +0.000 HD
ATOM     12  H   UNL     1      45.874  -0.338   8.081  0.00  0.00    +0.000 HD
ENDBRANCH   9  10
ENDBRANCH   3   9
ENDBRANCH   2   7
ENDBRANCH   1   2
BRANCH   1  13
ATOM     13  C   UNL     1      44.356   3.281  12.518  0.00  0.00    +0.000 C 
BRANCH  13  14
ATOM     14  C   UNL     1      45.155   4.544  12.718  0.00  0.00    +0.000 A 
ATOM     15  C   UNL     1      46.353   4.517  13.409  0.00  0.00    +0.000 A 
ATOM     16  C   UNL     1      47.014   5.718  13.543  0.00  0.00    +0.000 A 
ATOM     17  N   UNL     1      46.560   6.879  13.043  0.00  0.00    +0.000 NA
ATOM     18  C   UNL     1      45.377   6.799  12.387  0.00  0.00    +0.000 A 
ATOM     19  N   UNL     1      44.648   5.680  12.199  0.00  0.00    +0.000 NA
BRANCH  18  20
ATOM     20  C   UNL     1      44.840   8.091  11.809  0.00  0.00    +0.000 C 
ATOM     21  N   UNL     1      43.690   7.977  11.062  0.00  0.00    +0.000 N 
ATOM     22  O   UNL     1      45.366   9.186  11.974  0.00  0.00    +0.000 OA
ATOM     23  H   UNL     1      43.261   7.069  10.926  0.00  0.00    +0.000 HD
ATOM     24  H   UNL     1      43.289   8.807  10.650  0.00  0.00    +0.000 HD
ENDBRANCH  18  20
ENDBRANCH  13  14
ENDBRANCH   1  13
TORSDOF 7
ENDMDL
MODEL 3
REMARK VINA RESULT:    -7.233      2.725      6.527
REMARK INTER + INTRA:         -10.656
REMARK INTER:                  -9.848
REMARK INTRA:                  -0.808
REMARK UNBOUND:                -0.674
REMARK  Name = 
REMARK  7 active torsions:
REMARK  status: ('A' for Active; 'I' for Inactive)
REMARK    1  A    between atoms: N_1  and  C_2
REMARK    2  A    between atoms: C_2  and  C_3
REMARK    3  A    between atoms: C_7  and  O_8
REMARK    4  A    between atoms: O_8  and  C_9
REMARK    5  A    between atoms: C_9  and  C_10
REMARK    6  A    between atoms: C_10  and  C_11
REMARK    7  A    between atoms: C_15  and  C_16
REMARK                            x       y       z     vdW  Elec       q    Type
REMARK                         _______ _______ _______ _____ _____    ______ ____
ROOT
ATOM      1  C   UNL     1      43.311   3.619  11.567  0.00  0.00    +0.000 C 
ENDROOT
BRANCH   1   2
ATOM      2  O   UNL     1      43.928   3.758  12.854  0.00  0.00    +0.000 OA
BRANCH   2   7
ATOM      3  C   UNL     1      45.700   6.921  12.436  0.00  0.00    +0.000 A 
ATOM      4  C   UNL     1      46.959   6.617  12.967  0.00  0.00    +0.000 A 
ATOM      5  C   UNL     1      47.230   5.345  13.466  0.00  0.00    +0.000 A 
ATOM      6  C   UNL     1      46.241   4.360  13.446  0.00  0.00    +0.000 A 
ATOM      7  C   UNL     1      44.976   4.641  12.926  0.00  0.00    +0.000 A 
ATOM      8  C   UNL     1      44.714   5.921  12.421  0.00  0.00    +0.000 A 
BRANCH   3   9
ATOM      9  C   UNL     1      45.404   8.307  11.920  0.00  0.00    +0.000 C 
BRANCH   9  10
ATOM     10  N   UNL     1      45.047   9.222  12.999  0.00  0.00    +0.000 NA
ATOM     11  H   UNL     1      44.619  10.056  12.600  0.00  0.00    +0.000 HD
ATOM     12  H   UNL     1      45.899   9.530  13.464  0.00  0.00    +0.000 HD
ENDBRANCH   9  10
ENDBRANCH   3   9
ENDBRANCH   2   7
ENDBRANCH   1   2
BRANCH   1  13
ATOM     13  C   UNL     1      43.867   2.396  10.842  0.00  0.00    +0.000 C 
BRANCH  13  14
ATOM     14  C   UNL     1      44.722   2.768   9.657  0.00  0.00    +0.000 A 
ATOM     15  C   UNL     1      44.725   4.062   9.169  0.00  0.00    +0.000 A 
ATOM     16  C   UNL     1      45.537   4.309   8.084  0.00  0.00    +0.000 A 
ATOM     17  N   UNL     1      46.306   3.376   7.500  0.00  0.00    +0.000 NA
ATOM     18  C   UNL     1      46.229   2.140   8.051  0.00  0.00    +0.000 A 
ATOM     19  N   UNL     1      45.469   1.789   9.109  0.00  0.00    +0.000 NA
BRANCH  18  20
ATOM     20  C   UNL     1      47.086   1.067   7.416  0.00  0.00    +0.000 C 
ATOM     21  N   UNL     1      46.718  -0.230   7.693  0.00  0.00    +0.000 N 
ATOM     22  O   UNL     1      48.052   1.297   6.697  0.00  0.00    +0.000 OA
ATOM     23  H   UNL     1      45.922  -0.416   8.291  0.00  0.00    +0.000 HD
ATOM     24  H   UNL     1      47.257  -0.988   7.297  0.00  0.00    +0.000 HD
ENDBRANCH  18  20
ENDBRANCH  13  14
ENDBRANCH   1  13
TORSDOF 7
ENDMDL
MODEL 4
REMARK VINA RESULT:    -7.153      1.482      2.005
REMARK INTER + INTRA:         -10.545
REMARK INTER:                 -10.010
REMARK INTRA:                  -0.534
REMARK UNBOUND:                -0.674
REMARK  Name = 
REMARK  7 active torsions:
REMARK  status: ('A' for Active; 'I' for Inactive)
REMARK    1  A    between atoms: N_1  and  C_2
REMARK    2  A    between atoms: C_2  and  C_3
REMARK    3  A    between atoms: C_7  and  O_8
REMARK    4  A    between atoms: O_8  and  C_9
REMARK    5  A    between atoms: C_9  and  C_10
REMARK    6  A    between atoms: C_10  and  C_11
REMARK    7  A    between atoms: C_15  and  C_16
REMARK                            x       y       z     vdW  Elec       q    Type
REMARK                         _______ _______ _______ _____ _____    ______ ____
ROOT
ATOM      1  C   UNL     1      44.273   4.995  10.752  0.00  0.00    +0.000 C 
ENDROOT
BRANCH   1   2
ATOM      2  O   UNL     1      44.781   5.037   9.412  0.00  0.00    +0.000 OA
BRANCH   2   7
ATOM      3  C   UNL     1      46.658   2.807   7.216  0.00  0.00    +0.000 A 
ATOM      4  C   UNL     1      46.277   1.547   7.691  0.00  0.00    +0.000 A 
ATOM      5  C   UNL     1      45.379   1.432   8.750  0.00  0.00    +0.000 A 
ATOM      6  C   UNL     1      44.856   2.576   9.353  0.00  0.00    +0.000 A 
ATOM      7  C   UNL     1      45.227   3.844   8.900  0.00  0.00    +0.000 A 
ATOM      8  C   UNL     1      46.124   3.952   7.830  0.00  0.00    +0.000 A 
BRANCH   3   9
ATOM      9  C   UNL     1      47.651   2.928   6.085  0.00  0.00    +0.000 C 
BRANCH   9  10
ATOM     10  N   UNL     1      48.486   1.738   5.968  0.00  0.00    +0.000 NA
ATOM     11  H   UNL     1      48.149   1.029   6.616  0.00  0.00    +0.000 HD
ATOM     12  H   UNL     1      49.433   1.972   6.261  0.00  0.00    +0.000 HD
ENDBRANCH   9  10
ENDBRANCH   3   9
ENDBRANCH   2   7
ENDBRANCH   1   2
BRANCH   1  13
ATOM     13  C   UNL     1      44.584   6.301  11.478  0.00  0.00    +0.000 C 
BRANCH  13  14
ATOM     14  C   UNL     1      45.845   6.218  12.300  0.00  0.00    +0.000 A 
ATOM     15  C   UNL     1      46.857   7.147  12.133  0.00  0.00    +0.000 A 
ATOM     16  C   UNL     1      47.972   6.992  12.927  0.00  0.00    +0.000 A 
ATOM     17  N   UNL     1      48.113   6.010  13.832  0.00  0.00    +0.000 NA
ATOM     18  C   UNL     1      47.068   5.151  13.916  0.00  0.00    +0.000 A 
ATOM     19  N   UNL     1      45.934   5.209  13.188  0.00  0.00    +0.000 NA
BRANCH  18  20
ATOM     20  C   UNL     1      47.196   4.034  14.929  0.00  0.00    +0.000 C 
ATOM     21  N   UNL     1      46.804   4.346  16.211  0.00  0.00    +0.000 N 
ATOM     22  O   UNL     1      47.616   2.913  14.665  0.00  0.00    +0.000 OA
ATOM     23  H   UNL     1      46.461   5.275  16.425  0.00  0.00    +0.000 HD
ATOM     24  H   UNL     1      46.870   3.639  16.929  0.00  0.00    +0.000 HD
ENDBRANCH  18  20
ENDBRANCH  13  14
ENDBRANCH   1  13
TORSDOF 7
ENDMDL
MODEL 5
REMARK VINA RESULT:    -6.895      1.705      2.581
REMARK INTER + INTRA:         -10.189
REMARK INTER:                  -9.519
REMARK INTRA:                  -0.670
REMARK UNBOUND:                -0.674
REMARK  Name = 
REMARK  7 active torsions:
REMARK  status: ('A' for Active; 'I' for Inactive)
REMARK    1  A    between atoms: N_1  and  C_2
REMARK    2  A    between atoms: C_2  and  C_3
REMARK    3  A    between atoms: C_7  and  O_8
REMARK    4  A    between atoms: O_8  and  C_9
REMARK    5  A    between atoms: C_9  and  C_10
REMARK    6  A    between atoms: C_10  and  C_11
REMARK    7  A    between atoms: C_15  and  C_16
REMARK                            x       y       z     vdW  Elec       q    Type
REMARK                         _______ _______ _______ _____ _____    ______ ____
ROOT
ATOM      1  C   UNL     1      43.951   4.783  10.307  0.00  0.00    +0.000 C 
ENDROOT
BRANCH   1   2
ATOM      2  O   UNL     1      44.349   4.712   8.931  0.00  0.00    +0.000 OA
BRANCH   2   7
ATOM      3  C   UNL     1      46.595   2.621   6.956  0.00  0.00    +0.000 A 
ATOM      4  C   UNL     1      46.485   1.386   7.606  0.00  0.00    +0.000 A 
ATOM      5  C   UNL     1      45.650   1.240   8.711  0.00  0.00    +0.000 A 
ATOM      6  C   UNL     1      44.918   2.329   9.186  0.00  0.00    +0.000 A 
ATOM      7  C   UNL     1      45.016   3.572   8.557  0.00  0.00    +0.000 A 
ATOM      8  C   UNL     1      45.853   3.710   7.442  0.00  0.00    +0.000 A 
BRANCH   3   9
ATOM      9  C   UNL     1      47.520   2.781   5.774  0.00  0.00    +0.000 C 
BRANCH   9  10
ATOM     10  N   UNL     1      48.567   1.766   5.764  0.00  0.00    +0.000 NA
ATOM     11  H   UNL     1      48.655   1.369   6.698  0.00  0.00    +0.000 HD
ATOM     12  H   UNL     1      49.458   2.215   5.556  0.00  0.00    +0.000 HD
ENDBRANCH   9  10
ENDBRANCH   3   9
ENDBRANCH   2   7
ENDBRANCH   1   2
BRANCH   1  13
ATOM     13  C   UNL     1      44.670   5.934  11.007  0.00  0.00    +0.000 C 
BRANCH  13  14
ATOM     14  C   UNL     1      45.670   5.453  12.028  0.00  0.00    +0.000 A 
ATOM     15  C   UNL     1      45.595   4.168  12.535  0.00  0.00    +0.000 A 
ATOM     16  C   UNL     1      46.551   3.816  13.463  0.00  0.00    +0.000 A 
ATOM     17  N   UNL     1      47.525   4.641  13.881  0.00  0.00    +0.000 NA
ATOM     18  C   UNL     1      47.508   5.877  13.326  0.00  0.00    +0.000 A 
ATOM     19  N   UNL     1      46.622   6.325  12.413  0.00  0.00    +0.000 NA
BRANCH  18  20
ATOM     20  C   UNL     1      48.595   6.829  13.775  0.00  0.00    +0.000 C 
ATOM     21  N   UNL     1      49.628   7.016  12.885  0.00  0.00    +0.000 N 
ATOM     22  O   UNL     1      48.592   7.416  14.852  0.00  0.00    +0.000 OA
ATOM     23  H   UNL     1      49.628   6.526  11.997  0.00  0.00    +0.000 HD
ATOM     24  H   UNL     1      50.383   7.639  13.133  0.00  0.00    +0.000 HD
ENDBRANCH  18  20
ENDBRANCH  13  14
ENDBRANCH   1  13
TORSDOF 7
ENDMDL
MODEL 6
REMARK VINA RESULT:    -6.415      2.079      3.128
REMARK INTER + INTRA:          -9.527
REMARK INTER:                  -8.984
REMARK INTRA:                  -0.543
REMARK UNBOUND:                -0.674
REMARK  Name = 
REMARK  7 active torsions:
REMARK  status: ('A' for Active; 'I' for Inactive)
REMARK    1  A    between atoms: N_1  and  C_2
REMARK    2  A    between atoms: C_2  and  C_3
REMARK    3  A    between atoms: C_7  and  O_8
REMARK    4  A    between atoms: O_8  and  C_9
REMARK    5  A    between atoms: C_9  and  C_10
REMARK    6  A    between atoms: C_10  and  C_11
REMARK    7  A    between atoms: C_15  and  C_16
REMARK                            x       y       z     vdW  Elec       q    Type
REMARK                         _______ _______ _______ _____ _____    ______ ____
ROOT
ATOM      1  C   UNL     1      45.437   6.284  12.592  0.00  0.00    +0.000 C 
ENDROOT
BRANCH   1   2
ATOM      2  O   UNL     1      44.831   6.238  11.294  0.00  0.00    +0.000 OA
BRANCH   2   7
ATOM      3  C   UNL     1      45.141   3.645   8.744  0.00  0.00    +0.000 A 
ATOM      4  C   UNL     1      44.562   2.543   9.383  0.00  0.00    +0.000 A 
ATOM      5  C   UNL     1      44.054   2.659  10.675  0.00  0.00    +0.000 A 
ATOM      6  C   UNL     1      44.125   3.880  11.348  0.00  0.00    +0.000 A 
ATOM      7  C   UNL     1      44.704   4.991  10.734  0.00  0.00    +0.000 A 
ATOM      8  C   UNL     1      45.207   4.868   9.432  0.00  0.00    +0.000 A 
BRANCH   3   9
ATOM      9  C   UNL     1      45.713   3.508   7.355  0.00  0.00    +0.000 C 
BRANCH   9  10
ATOM     10  N   UNL     1      46.924   4.304   7.185  0.00  0.00    +0.000 NA
ATOM     11  H   UNL     1      46.998   4.593   6.211  0.00  0.00    +0.000 HD
ATOM     12  H   UNL     1      47.733   3.717   7.376  0.00  0.00    +0.000 HD
ENDBRANCH   9  10
ENDBRANCH   3   9
ENDBRANCH   2   7
ENDBRANCH   1   2
BRANCH   1  13
ATOM     13  C   UNL     1      46.930   5.981  12.491  0.00  0.00    +0.000 C 
BRANCH  13  14
ATOM     14  C   UNL     1      47.594   5.895  13.842  0.00  0.00    +0.000 A 
ATOM     15  C   UNL     1      48.450   6.893  14.271  0.00  0.00    +0.000 A 
ATOM     16  C   UNL     1      49.010   6.730  15.519  0.00  0.00    +0.000 A 
ATOM     17  N   UNL     1      48.764   5.677  16.315  0.00  0.00    +0.000 NA
ATOM     18  C   UNL     1      47.915   4.754  15.801  0.00  0.00    +0.000 A 
ATOM     19  N   UNL     1      47.314   4.813  14.596  0.00  0.00    +0.000 NA
BRANCH  18  20
ATOM     20  C   UNL     1      47.616   3.556  16.676  0.00  0.00    +0.000 C 
ATOM     21  N   UNL     1      48.705   2.794  17.035  0.00  0.00    +0.000 N 
ATOM     22  O   UNL     1      46.493   3.251  17.062  0.00  0.00    +0.000 OA
ATOM     23  H   UNL     1      49.631   3.048  16.711  0.00  0.00    +0.000 HD
ATOM     24  H   UNL     1      48.564   1.981  17.617  0.00  0.00    +0.000 HD
ENDBRANCH  18  20
ENDBRANCH  13  14
ENDBRANCH   1  13
TORSDOF 7
ENDMDL
MODEL 7
REMARK VINA RESULT:    -6.056      3.615      5.652
REMARK INTER + INTRA:          -9.031
REMARK INTER:                  -8.640
REMARK INTRA:                  -0.391
REMARK UNBOUND:                -0.674
REMARK  Name = 
REMARK  7 active torsions:
REMARK  status: ('A' for Active; 'I' for Inactive)
REMARK    1  A    between atoms: N_1  and  C_2
REMARK    2  A    between atoms: C_2  and  C_3
REMARK    3  A    between atoms: C_7  and  O_8
REMARK    4  A    between atoms: O_8  and  C_9
REMARK    5  A    between atoms: C_9  and  C_10
REMARK    6  A    between atoms: C_10  and  C_11
REMARK    7  A    between atoms: C_15  and  C_16
REMARK                            x       y       z     vdW  Elec       q    Type
REMARK                         _______ _______ _______ _____ _____    ______ ____
ROOT
ATOM      1  C   UNL     1      47.203   4.242  15.664  0.00  0.00    +0.000 C 
ENDROOT
BRANCH   1   2
ATOM      2  O   UNL     1      47.131   3.642  14.365  0.00  0.00    +0.000 OA
BRANCH   2   7
ATOM      3  C   UNL     1      44.991   4.641  11.582  0.00  0.00    +0.000 A 
ATOM      4  C   UNL     1      45.511   5.899  11.256  0.00  0.00    +0.000 A 
ATOM      5  C   UNL     1      46.592   6.423  11.962  0.00  0.00    +0.000 A 
ATOM      6  C   UNL     1      47.162   5.698  13.009  0.00  0.00    +0.000 A 
ATOM      7  C   UNL     1      46.656   4.444  13.357  0.00  0.00    +0.000 A 
ATOM      8  C   UNL     1      45.574   3.921  12.638  0.00  0.00    +0.000 A 
BRANCH   3   9
ATOM      9  C   UNL     1      43.804   4.089  10.831  0.00  0.00    +0.000 C 
BRANCH   9  10
ATOM     10  N   UNL     1      43.726   4.619   9.475  0.00  0.00    +0.000 NA
ATOM     11  H   UNL     1      43.184   5.482   9.486  0.00  0.00    +0.000 HD
ATOM     12  H   UNL     1      43.210   3.961   8.894  0.00  0.00    +0.000 HD
ENDBRANCH   9  10
ENDBRANCH   3   9
ENDBRANCH   2   7
ENDBRANCH   1   2
BRANCH   1  13
ATOM     13  C   UNL     1      47.702   3.227  16.690  0.00  0.00    +0.000 C 
BRANCH  13  14
ATOM     14  C   UNL     1      49.138   3.463  17.084  0.00  0.00    +0.000 A 
ATOM     15  C   UNL     1      49.592   4.741  17.359  0.00  0.00    +0.000 A 
ATOM     16  C   UNL     1      50.919   4.860  17.711  0.00  0.00    +0.000 A 
ATOM     17  N   UNL     1      51.764   3.820  17.799  0.00  0.00    +0.000 NA
ATOM     18  C   UNL     1      51.222   2.613  17.507  0.00  0.00    +0.000 A 
ATOM     19  N   UNL     1      49.941   2.383  17.152  0.00  0.00    +0.000 NA
BRANCH  18  20
ATOM     20  C   UNL     1      52.148   1.421  17.601  0.00  0.00    +0.000 C 
ATOM     21  N   UNL     1      51.584   0.264  18.089  0.00  0.00    +0.000 N 
ATOM     22  O   UNL     1      53.330   1.442  17.273  0.00  0.00    +0.000 OA
ATOM     23  H   UNL     1      50.608   0.252  18.363  0.00  0.00    +0.000 HD
ATOM     24  H   UNL     1      52.157  -0.563  18.176  0.00  0.00    +0.000 HD
ENDBRANCH  18  20
ENDBRANCH  13  14
ENDBRANCH   1  13
TORSDOF 7
ENDMDL
MODEL 8
REMARK VINA RESULT:    -6.031      2.544      3.987
REMARK INTER + INTRA:          -8.997
REMARK INTER:                  -8.609
REMARK INTRA:                  -0.389
REMARK UNBOUND:                -0.674
REMARK  Name = 
REMARK  7 active torsions:
REMARK  status: ('A' for Active; 'I' for Inactive)
REMARK    1  A    between atoms: N_1  and  C_2
REMARK    2  A    between atoms: C_2  and  C_3
REMARK    3  A    between atoms: C_7  and  O_8
REMARK    4  A    between atoms: O_8  and  C_9
REMARK    5  A    between atoms: C_9  and  C_10
REMARK    6  A    between atoms: C_10  and  C_11
REMARK    7  A    between atoms: C_15  and  C_16
REMARK                            x       y       z     vdW  Elec       q    Type
REMARK                         _______ _______ _______ _____ _____    ______ ____
ROOT
ATOM      1  C   UNL     1      46.252   7.179  12.493  0.00  0.00    +0.000 C 
ENDROOT
BRANCH   1   2
ATOM      2  O   UNL     1      44.972   6.712  12.941  0.00  0.00    +0.000 OA
BRANCH   2   7
ATOM      3  C   UNL     1      44.347   4.258  10.313  0.00  0.00    +0.000 A 
ATOM      4  C   UNL     1      43.723   3.227  11.024  0.00  0.00    +0.000 A 
ATOM      5  C   UNL     1      43.497   3.348  12.393  0.00  0.00    +0.000 A 
ATOM      6  C   UNL     1      43.901   4.499  13.072  0.00  0.00    +0.000 A 
ATOM      7  C   UNL     1      44.532   5.537  12.384  0.00  0.00    +0.000 A 
ATOM      8  C   UNL     1      44.748   5.412  11.006  0.00  0.00    +0.000 A 
BRANCH   3   9
ATOM      9  C   UNL     1      44.612   4.113   8.834  0.00  0.00    +0.000 C 
BRANCH   9  10
ATOM     10  N   UNL     1      45.649   5.031   8.376  0.00  0.00    +0.000 NA
ATOM     11  H   UNL     1      45.584   5.898   8.907  0.00  0.00    +0.000 HD
ATOM     12  H   UNL     1      45.467   5.273   7.404  0.00  0.00    +0.000 HD
ENDBRANCH   9  10
ENDBRANCH   3   9
ENDBRANCH   2   7
ENDBRANCH   1   2
BRANCH   1  13
ATOM     13  C   UNL     1      47.310   6.097  12.695  0.00  0.00    +0.000 C 
BRANCH  13  14
ATOM     14  C   UNL     1      47.796   6.024  14.120  0.00  0.00    +0.000 A 
ATOM     15  C   UNL     1      48.515   7.069  14.673  0.00  0.00    +0.000 A 
ATOM     16  C   UNL     1      48.917   6.915  15.982  0.00  0.00    +0.000 A 
ATOM     17  N   UNL     1      48.646   5.828  16.722  0.00  0.00    +0.000 NA
ATOM     18  C   UNL     1      47.940   4.861  16.087  0.00  0.00    +0.000 A 
ATOM     19  N   UNL     1      47.499   4.908  14.813  0.00  0.00    +0.000 NA
BRANCH  18  20
ATOM     20  C   UNL     1      47.617   3.624  16.897  0.00  0.00    +0.000 C 
ATOM     21  N   UNL     1      48.693   2.834  17.233  0.00  0.00    +0.000 N 
ATOM     22  O   UNL     1      46.485   3.312  17.250  0.00  0.00    +0.000 OA
ATOM     23  H   UNL     1      49.626   3.094  16.935  0.00  0.00    +0.000 HD
ATOM     24  H   UNL     1      48.535   1.994  17.771  0.00  0.00    +0.000 HD
ENDBRANCH  18  20
ENDBRANCH  13  14
ENDBRANCH   1  13
TORSDOF 7
ENDMDL
MODEL 9
REMARK VINA RESULT:    -5.989      2.803      6.568
REMARK INTER + INTRA:          -8.939
REMARK INTER:                  -8.205
REMARK INTRA:                  -0.734
REMARK UNBOUND:                -0.674
REMARK  Name = 
REMARK  7 active torsions:
REMARK  status: ('A' for Active; 'I' for Inactive)
REMARK    1  A    between atoms: N_1  and  C_2
REMARK    2  A    between atoms: C_2  and  C_3
REMARK    3  A    between atoms: C_7  and  O_8
REMARK    4  A    between atoms: O_8  and  C_9
REMARK    5  A    between atoms: C_9  and  C_10
REMARK    6  A    between atoms: C_10  and  C_11
REMARK    7  A    between atoms: C_15  and  C_16
REMARK                            x       y       z     vdW  Elec       q    Type
REMARK                         _______ _______ _______ _____ _____    ______ ____
ROOT
ATOM      1  C   UNL     1      46.819   5.329  14.062  0.00  0.00    +0.000 C 
ENDROOT
BRANCH   1   2
ATOM      2  O   UNL     1      48.076   5.517  13.401  0.00  0.00    +0.000 OA
BRANCH   2   7
ATOM      3  C   UNL     1      47.196   8.835  12.161  0.00  0.00    +0.000 A 
ATOM      4  C   UNL     1      48.426   9.299  11.681  0.00  0.00    +0.000 A 
ATOM      5  C   UNL     1      49.564   8.500  11.761  0.00  0.00    +0.000 A 
ATOM      6  C   UNL     1      49.488   7.228  12.330  0.00  0.00    +0.000 A 
ATOM      7  C   UNL     1      48.273   6.746  12.821  0.00  0.00    +0.000 A 
ATOM      8  C   UNL     1      47.132   7.553  12.731  0.00  0.00    +0.000 A 
BRANCH   3   9
ATOM      9  C   UNL     1      45.971   9.714  12.094  0.00  0.00    +0.000 C 
BRANCH   9  10
ATOM     10  N   UNL     1      44.894   9.209  12.939  0.00  0.00    +0.000 NA
ATOM     11  H   UNL     1      44.003   9.552  12.583  0.00  0.00    +0.000 HD
ATOM     12  H   UNL     1      45.001   9.597  13.874  0.00  0.00    +0.000 HD
ENDBRANCH   9  10
ENDBRANCH   3   9
ENDBRANCH   2   7
ENDBRANCH   1   2
BRANCH   1  13
ATOM     13  C   UNL     1      46.111   4.093  13.513  0.00  0.00    +0.000 C 
BRANCH  13  14
ATOM     14  C   UNL     1      45.100   4.432  12.448  0.00  0.00    +0.000 A 
ATOM     15  C   UNL     1      43.868   4.961  12.789  0.00  0.00    +0.000 A 
ATOM     16  C   UNL     1      43.009   5.241  11.750  0.00  0.00    +0.000 A 
ATOM     17  N   UNL     1      43.307   5.032  10.457  0.00  0.00    +0.000 NA
ATOM     18  C   UNL     1      44.536   4.507  10.229  0.00  0.00    +0.000 A 
ATOM     19  N   UNL     1      45.453   4.196  11.169  0.00  0.00    +0.000 NA
BRANCH  18  20
ATOM     20  C   UNL     1      44.904   4.262   8.782  0.00  0.00    +0.000 C 
ATOM     21  N   UNL     1      44.209   3.254   8.154  0.00  0.00    +0.000 N 
ATOM     22  O   UNL     1      45.758   4.898   8.174  0.00  0.00    +0.000 OA
ATOM     23  H   UNL     1      43.506   2.728   8.662  0.00  0.00    +0.000 HD
ATOM     24  H   UNL     1      44.414   3.045   7.187  0.00  0.00    +0.000 HD
ENDBRANCH  18  20
ENDBRANCH  13  14
ENDBRANCH   1  13
TORSDOF 7
ENDMDL
