MODEL 1
REMARK VINA RESULT:    -8.238      0.000      0.000
REMARK INTER + INTRA:         -12.673
REMARK INTER:                 -11.609
REMARK INTRA:                  -1.064
REMARK UNBOUND:                -1.064
REMARK  Name = 
REMARK  11 active torsions:
REMARK  status: ('A' for Active; 'I' for Inactive)
REMARK    1  A    between atoms: C_1  and  O_2
REMARK    2  A    between atoms: O_2  and  C_3
REMARK    3  A    between atoms: C_6  and  C_7
REMARK    4  A    between atoms: C_7  and  C_8
REMARK    5  A    between atoms: C_7  and  C_9
REMARK    6  A    between atoms: C_7  and  C_10
REMARK    7  A    between atoms: C_10  and  N_11
REMARK    8  A    between atoms: C_15  and  C_16
REMARK    9  A    between atoms: C_22  and  O_23
REMARK   10  A    between atoms: O_23  and  C_24
REMARK   11  A    between atoms: N_26  and  C_27
REMARK                            x       y       z     vdW  Elec       q    Type
REMARK                         _______ _______ _______ _____ _____    ______ ____
ROOT
ATOM      1  C   UNL     1      43.801   4.732  11.960  0.00  0.00    +0.000 C 
ATOM      2  C   UNL     1      43.389   3.535  12.844  0.00  0.00    +0.000 C 
ATOM      3  C   UNL     1      42.808   5.894  12.225  0.00  0.00    +0.000 C 
ENDROOT
BRANCH   1   7
ATOM      4  C   UNL     1      47.839   6.100  13.038  0.00  0.00    +0.000 A 
ATOM      5  C   UNL     1      47.134   6.668  11.972  0.00  0.00    +0.000 A 
ATOM      6  C   UNL     1      45.851   6.244  11.637  0.00  0.00    +0.000 A 
ATOM      7  C   UNL     1      45.218   5.209  12.325  0.00  0.00    +0.000 A 
ATOM      8  C   UNL     1      45.935   4.631  13.386  0.00  0.00    +0.000 A 
ATOM      9  C   UNL     1      47.233   5.053  13.742  0.00  0.00    +0.000 A 
BRANCH   4  11
ATOM     10  C   UNL     1      49.112   7.767  14.142  0.00  0.00    +0.000 C 
ATOM     11  O   UNL     1      49.085   6.545  13.397  0.00  0.00    +0.000 OA
ENDBRANCH   4  11
BRANCH   9  12
ATOM     12  O   UNL     1      47.705   4.383  14.848  0.00  0.00    +0.000 OA
BRANCH  12  13
ATOM     13  C   UNL     1      47.704   4.991  16.156  0.00  0.00    +0.000 C 
ATOM     14  C   UNL     1      49.037   5.111  16.925  0.00  0.00    +0.000 C 
ATOM     15  N   UNL     1      48.470   4.380  18.077  0.00  0.00    +0.000 NA
ATOM     16  C   UNL     1      48.109   5.296  19.156  0.00  0.00    +0.000 C 
ATOM     17  C   UNL     1      47.277   4.025  17.291  0.00  0.00    +0.000 C 
ENDBRANCH  12  13
ENDBRANCH   9  12
ENDBRANCH   1   7
BRANCH   1  18
ATOM     18  C   UNL     1      43.624   4.328  10.458  0.00  0.00    +0.000 C 
BRANCH  18  19
ATOM     19  N   UNL     1      43.994   2.924  10.177  0.00  0.00    +0.000 N 
ATOM     20  C   UNL     1      44.922   2.783   9.139  0.00  0.00    +0.000 A 
ATOM     21  C   UNL     1      45.418   1.519   8.784  0.00  0.00    +0.000 A 
ATOM     22  N   UNL     1      46.307   1.301   7.772  0.00  0.00    +0.000 NA
ATOM     23  C   UNL     1      46.703   2.430   7.123  0.00  0.00    +0.000 A 
ATOM     24  C   UNL     1      46.251   3.687   7.486  0.00  0.00    +0.000 A 
ATOM     25  N   UNL     1      45.366   3.882   8.495  0.00  0.00    +0.000 NA
ATOM     26  H   UNL     1      43.191   2.324  10.015  0.00  0.00    +0.000 HD
BRANCH  23  27
ATOM     27  C   UNL     1      47.632   2.318   5.977  0.00  0.00    +0.000 C 
ATOM     28  N   UNL     1      47.460   3.238   4.970  0.00  0.00    +0.000 N 
ATOM     29  O   UNL     1      48.508   1.473   5.920  0.00  0.00    +0.000 OA
ATOM     30  H   UNL     1      46.736   3.940   5.033  0.00  0.00    +0.000 HD
ATOM     31  H   UNL     1      48.079   3.215   4.174  0.00  0.00    +0.000 HD
ENDBRANCH  23  27
ENDBRANCH  18  19
ENDBRANCH   1  18
TORSDOF 7
ENDMDL
MODEL 2
REMARK VINA RESULT:    -7.315      2.761      3.675
REMARK INTER + INTRA:         -11.372
REMARK INTER:                 -10.572
REMARK INTRA:                  -0.801
REMARK UNBOUND:                -1.064
REMARK  Name = 
REMARK  11 active torsions:
REMARK  status: ('A' for Active; 'I' for Inactive)
REMARK    1  A    between atoms: C_1  and  O_2
REMARK    2  A    between atoms: O_2  and  C_3
REMARK    3  A    between atoms: C_6  and  C_7
REMARK    4  A    between atoms: C_7  and  C_8
REMARK    5  A    between atoms: C_7  and  C_9
REMARK    6  A    between atoms: C_7  and  C_10
REMARK    7  A    between atoms: C_10  and  N_11
REMARK    8  A    between atoms: C_15  and  C_16
REMARK    9  A    between atoms: C_22  and  O_23
REMARK   10  A    between atoms: O_23  and  C_24
REMARK   11  A    between atoms: N_26  and  C_27
REMARK                            x       y       z     vdW  Elec       q    Type
REMARK                         _______ _______ _______ _____ _____    ______ ____
ROOT
ATOM      1  C   UNL     1      44.224   5.287  12.028  0.00  0.00    +0.000 C 
ATOM      2  C   UNL     1      45.348   4.350  12.524  0.00  0.00    +0.000 C 
ATOM      3  C   UNL     1      43.016   5.145  12.991  0.00  0.00    +0.000 C 
ENDROOT
BRANCH   1   7
ATOM      4  C   UNL     1      45.568   9.473  12.128  0.00  0.00    +0.000 A 
ATOM      5  C   UNL     1      44.474   9.074  11.353  0.00  0.00    +0.000 A 
ATOM      6  C   UNL     1      44.040   7.750  11.330  0.00  0.00    +0.000 A 
ATOM      7  C   UNL     1      44.695   6.752  12.050  0.00  0.00    +0.000 A 
ATOM      8  C   UNL     1      45.803   7.154  12.816  0.00  0.00    +0.000 A 
ATOM      9  C   UNL     1      46.251   8.490  12.855  0.00  0.00    +0.000 A 
BRANCH   4  11
ATOM     10  C   UNL     1      45.864  11.516  10.963  0.00  0.00    +0.000 C 
ATOM     11  O   UNL     1      45.971  10.782  12.187  0.00  0.00    +0.000 OA
ENDBRANCH   4  11
BRANCH   9  12
ATOM     12  O   UNL     1      47.311   8.651  13.718  0.00  0.00    +0.000 OA
BRANCH  12  13
ATOM     13  C   UNL     1      48.666   8.770  13.237  0.00  0.00    +0.000 C 
ATOM     14  C   UNL     1      48.907   8.970  11.725  0.00  0.00    +0.000 C 
ATOM     15  N   UNL     1      49.780   7.779  11.679  0.00  0.00    +0.000 NA
ATOM     16  C   UNL     1      51.190   8.160  11.652  0.00  0.00    +0.000 C 
ATOM     17  C   UNL     1      49.380   7.407  13.047  0.00  0.00    +0.000 C 
ENDBRANCH  12  13
ENDBRANCH   9  12
ENDBRANCH   1   7
BRANCH   1  18
ATOM     18  C   UNL     1      43.738   4.787  10.627  0.00  0.00    +0.000 C 
BRANCH  18  19
ATOM     19  N   UNL     1      43.989   3.348  10.395  0.00  0.00    +0.000 N 
ATOM     20  C   UNL     1      44.895   3.094   9.358  0.00  0.00    +0.000 A 
ATOM     21  C   UNL     1      45.282   1.782   9.046  0.00  0.00    +0.000 A 
ATOM     22  N   UNL     1      46.142   1.456   8.038  0.00  0.00    +0.000 NA
ATOM     23  C   UNL     1      46.624   2.525   7.346  0.00  0.00    +0.000 A 
ATOM     24  C   UNL     1      46.279   3.827   7.666  0.00  0.00    +0.000 A 
ATOM     25  N   UNL     1      45.422   4.130   8.673  0.00  0.00    +0.000 NA
ATOM     26  H   UNL     1      43.139   2.810  10.258  0.00  0.00    +0.000 HD
BRANCH  23  27
ATOM     27  C   UNL     1      47.531   2.296   6.200  0.00  0.00    +0.000 C 
ATOM     28  N   UNL     1      47.275   3.038   5.072  0.00  0.00    +0.000 N 
ATOM     29  O   UNL     1      48.460   1.508   6.242  0.00  0.00    +0.000 OA
ATOM     30  H   UNL     1      46.507   3.695   5.052  0.00  0.00    +0.000 HD
ATOM     31  H   UNL     1      47.875   2.932   4.268  0.00  0.00    +0.000 HD
ENDBRANCH  23  27
ENDBRANCH  18  19
ENDBRANCH   1  18
TORSDOF 7
ENDMDL
MODEL 3
REMARK VINA RESULT:    -6.465      2.512      8.896
REMARK INTER + INTRA:         -10.175
REMARK INTER:                  -9.212
REMARK INTRA:                  -0.962
REMARK UNBOUND:                -1.064
REMARK  Name = 
REMARK  11 active torsions:
REMARK  status: ('A' for Active; 'I' for Inactive)
REMARK    1  A    between atoms: C_1  and  O_2
REMARK    2  A    between atoms: O_2  and  C_3
REMARK    3  A    between atoms: C_6  and  C_7
REMARK    4  A    between atoms: C_7  and  C_8
REMARK    5  A    between atoms: C_7  and  C_9
REMARK    6  A    between atoms: C_7  and  C_10
REMARK    7  A    between atoms: C_10  and  N_11
REMARK    8  A    between atoms: C_15  and  C_16
REMARK    9  A    between atoms: C_22  and  O_23
REMARK   10  A    between atoms: O_23  and  C_24
REMARK   11  A    between atoms: N_26  and  C_27
REMARK                            x       y       z     vdW  Elec       q    Type
REMARK                         _______ _______ _______ _____ _____    ______ ____
ROOT
ATOM      1  C   UNL     1      47.636   7.406  12.541  0.00  0.00    +0.000 C 
ATOM      2  C   UNL     1      48.471   7.670  11.270  0.00  0.00    +0.000 C 
ATOM      3  C   UNL     1      47.092   8.765  13.055  0.00  0.00    +0.000 C 
ENDROOT
BRANCH   1   7
ATOM      4  C   UNL     1      44.208   4.818  11.597  0.00  0.00    +0.000 A 
ATOM      5  C   UNL     1      44.406   5.330  12.884  0.00  0.00    +0.000 A 
ATOM      6  C   UNL     1      45.485   6.158  13.181  0.00  0.00    +0.000 A 
ATOM      7  C   UNL     1      46.439   6.493  12.221  0.00  0.00    +0.000 A 
ATOM      8  C   UNL     1      46.245   5.965  10.933  0.00  0.00    +0.000 A 
ATOM      9  C   UNL     1      45.154   5.130  10.613  0.00  0.00    +0.000 A 
BRANCH   4  11
ATOM     10  C   UNL     1      43.251   2.650  11.612  0.00  0.00    +0.000 C 
ATOM     11  O   UNL     1      43.123   4.038  11.290  0.00  0.00    +0.000 OA
ENDBRANCH   4  11
BRANCH   9  12
ATOM     12  O   UNL     1      45.142   4.789   9.280  0.00  0.00    +0.000 OA
BRANCH  12  13
ATOM     13  C   UNL     1      46.100   3.862   8.728  0.00  0.00    +0.000 C 
ATOM     14  C   UNL     1      46.148   3.659   7.199  0.00  0.00    +0.000 C 
ATOM     15  N   UNL     1      45.943   2.205   7.359  0.00  0.00    +0.000 NA
ATOM     16  C   UNL     1      47.198   1.475   7.196  0.00  0.00    +0.000 C 
ATOM     17  C   UNL     1      45.641   2.383   8.789  0.00  0.00    +0.000 C 
ENDBRANCH  12  13
ENDBRANCH   9  12
ENDBRANCH   1   7
BRANCH   1  18
ATOM     18  C   UNL     1      48.586   6.855  13.657  0.00  0.00    +0.000 C 
BRANCH  18  19
ATOM     19  N   UNL     1      48.519   7.623  14.919  0.00  0.00    +0.000 N 
ATOM     20  C   UNL     1      48.659   6.833  16.067  0.00  0.00    +0.000 A 
ATOM     21  C   UNL     1      48.672   7.417  17.344  0.00  0.00    +0.000 A 
ATOM     22  N   UNL     1      48.783   6.711  18.507  0.00  0.00    +0.000 NA
ATOM     23  C   UNL     1      48.899   5.365  18.336  0.00  0.00    +0.000 A 
ATOM     24  C   UNL     1      48.924   4.781  17.082  0.00  0.00    +0.000 A 
ATOM     25  N   UNL     1      48.812   5.500  15.937  0.00  0.00    +0.000 NA
ATOM     26  H   UNL     1      47.690   8.204  14.991  0.00  0.00    +0.000 HD
BRANCH  23  27
ATOM     27  C   UNL     1      48.982   4.490  19.525  0.00  0.00    +0.000 C 
ATOM     28  N   UNL     1      48.330   3.283  19.431  0.00  0.00    +0.000 N 
ATOM     29  O   UNL     1      49.594   4.801  20.532  0.00  0.00    +0.000 OA
ATOM     30  H   UNL     1      47.833   3.032  18.587  0.00  0.00    +0.000 HD
ATOM     31  H   UNL     1      48.370   2.642  20.208  0.00  0.00    +0.000 HD
ENDBRANCH  23  27
ENDBRANCH  18  19
ENDBRANCH   1  18
TORSDOF 7
ENDMDL
MODEL 4
REMARK VINA RESULT:    -6.381      3.125      4.885
REMARK INTER + INTRA:         -10.056
REMARK INTER:                  -9.206
REMARK INTRA:                  -0.851
REMARK UNBOUND:                -1.064
REMARK  Name = 
REMARK  11 active torsions:
REMARK  status: ('A' for Active; 'I' for Inactive)
REMARK    1  A    between atoms: C_1  and  O_2
REMARK    2  A    between atoms: O_2  and  C_3
REMARK    3  A    between atoms: C_6  and  C_7
REMARK    4  A    between atoms: C_7  and  C_8
REMARK    5  A    between atoms: C_7  and  C_9
REMARK    6  A    between atoms: C_7  and  C_10
REMARK    7  A    between atoms: C_10  and  N_11
REMARK    8  A    between atoms: C_15  and  C_16
REMARK    9  A    between atoms: C_22  and  O_23
REMARK   10  A    between atoms: O_23  and  C_24
REMARK   11  A    between atoms: N_26  and  C_27
REMARK                            x       y       z     vdW  Elec       q    Type
REMARK                         _______ _______ _______ _____ _____    ______ ____
ROOT
ATOM      1  C   UNL     1      44.379   4.680  12.172  0.00  0.00    +0.000 C 
ATOM      2  C   UNL     1      45.232   3.452  12.560  0.00  0.00    +0.000 C 
ATOM      3  C   UNL     1      43.187   4.773  13.161  0.00  0.00    +0.000 C 
ENDROOT
BRANCH   1   7
ATOM      4  C   UNL     1      46.729   8.385  12.471  0.00  0.00    +0.000 A 
ATOM      5  C   UNL     1      47.344   7.139  12.314  0.00  0.00    +0.000 A 
ATOM      6  C   UNL     1      46.601   5.966  12.208  0.00  0.00    +0.000 A 
ATOM      7  C   UNL     1      45.208   5.971  12.286  0.00  0.00    +0.000 A 
ATOM      8  C   UNL     1      44.594   7.223  12.459  0.00  0.00    +0.000 A 
ATOM      9  C   UNL     1      45.332   8.421  12.562  0.00  0.00    +0.000 A 
BRANCH   4  11
ATOM     10  C   UNL     1      47.574  10.265  11.302  0.00  0.00    +0.000 C 
ATOM     11  O   UNL     1      47.456   9.546  12.533  0.00  0.00    +0.000 OA
ENDBRANCH   4  11
BRANCH   9  12
ATOM     12  O   UNL     1      44.513   9.521  12.664  0.00  0.00    +0.000 OA
BRANCH  12  13
ATOM     13  C   UNL     1      43.744   9.998  11.540  0.00  0.00    +0.000 C 
ATOM     14  C   UNL     1      44.268   9.735  10.112  0.00  0.00    +0.000 C 
ATOM     15  N   UNL     1      44.232  11.179   9.803  0.00  0.00    +0.000 NA
ATOM     16  C   UNL     1      43.064  11.516   8.992  0.00  0.00    +0.000 C 
ATOM     17  C   UNL     1      43.977  11.497  11.218  0.00  0.00    +0.000 C 
ENDBRANCH  12  13
ENDBRANCH   9  12
ENDBRANCH   1   7
BRANCH   1  18
ATOM     18  C   UNL     1      43.763   4.433  10.754  0.00  0.00    +0.000 C 
BRANCH  18  19
ATOM     19  N   UNL     1      43.898   3.036  10.288  0.00  0.00    +0.000 N 
ATOM     20  C   UNL     1      44.845   2.871   9.270  0.00  0.00    +0.000 A 
ATOM     21  C   UNL     1      45.131   1.597   8.754  0.00  0.00    +0.000 A 
ATOM     22  N   UNL     1      46.025   1.361   7.750  0.00  0.00    +0.000 NA
ATOM     23  C   UNL     1      46.647   2.477   7.280  0.00  0.00    +0.000 A 
ATOM     24  C   UNL     1      46.401   3.734   7.804  0.00  0.00    +0.000 A 
ATOM     25  N   UNL     1      45.508   3.948   8.803  0.00  0.00    +0.000 NA
ATOM     26  H   UNL     1      43.014   2.617  10.017  0.00  0.00    +0.000 HD
BRANCH  23  27
ATOM     27  C   UNL     1      47.605   2.354   6.160  0.00  0.00    +0.000 C 
ATOM     28  N   UNL     1      47.481   3.286   5.157  0.00  0.00    +0.000 N 
ATOM     29  O   UNL     1      48.463   1.490   6.118  0.00  0.00    +0.000 OA
ATOM     30  H   UNL     1      46.771   4.004   5.207  0.00  0.00    +0.000 HD
ATOM     31  H   UNL     1      48.121   3.257   4.379  0.00  0.00    +0.000 HD
ENDBRANCH  23  27
ENDBRANCH  18  19
ENDBRANCH   1  18
TORSDOF 7
ENDMDL
MODEL 5
REMARK VINA RESULT:    -6.331      3.040      5.104
REMARK INTER + INTRA:          -9.986
REMARK INTER:                  -9.050
REMARK INTRA:                  -0.936
REMARK UNBOUND:                -1.064
REMARK  Name = 
REMARK  11 active torsions:
REMARK  status: ('A' for Active; 'I' for Inactive)
REMARK    1  A    between atoms: C_1  and  O_2
REMARK    2  A    between atoms: O_2  and  C_3
REMARK    3  A    between atoms: C_6  and  C_7
REMARK    4  A    between atoms: C_7  and  C_8
REMARK    5  A    between atoms: C_7  and  C_9
REMARK    6  A    between atoms: C_7  and  C_10
REMARK    7  A    between atoms: C_10  and  N_11
REMARK    8  A    between atoms: C_15  and  C_16
REMARK    9  A    between atoms: C_22  and  O_23
REMARK   10  A    between atoms: O_23  and  C_24
REMARK   11  A    between atoms: N_26  and  C_27
REMARK                            x       y       z     vdW  Elec       q    Type
REMARK                         _______ _______ _______ _____ _____    ______ ____
ROOT
ATOM      1  C   UNL     1      48.328   8.706  12.460  0.00  0.00    +0.000 C 
ATOM      2  C   UNL     1      48.550  10.122  11.885  0.00  0.00    +0.000 C 
ATOM      3  C   UNL     1      49.183   7.709  11.634  0.00  0.00    +0.000 C 
ENDROOT
BRANCH   1   7
ATOM      4  C   UNL     1      49.613   8.492  16.660  0.00  0.00    +0.000 A 
ATOM      5  C   UNL     1      49.187   9.694  16.085  0.00  0.00    +0.000 A 
ATOM      6  C   UNL     1      48.769   9.761  14.758  0.00  0.00    +0.000 A 
ATOM      7  C   UNL     1      48.785   8.641  13.927  0.00  0.00    +0.000 A 
ATOM      8  C   UNL     1      49.228   7.438  14.504  0.00  0.00    +0.000 A 
ATOM      9  C   UNL     1      49.649   7.352  15.847  0.00  0.00    +0.000 A 
BRANCH   4  11
ATOM     10  C   UNL     1      48.908   8.379  18.920  0.00  0.00    +0.000 C 
ATOM     11  O   UNL     1      49.984   8.414  17.977  0.00  0.00    +0.000 OA
ENDBRANCH   4  11
BRANCH   9  12
ATOM     12  O   UNL     1      49.977   6.064  16.201  0.00  0.00    +0.000 OA
BRANCH  12  13
ATOM     13  C   UNL     1      49.067   5.230  16.949  0.00  0.00    +0.000 C 
ATOM     14  C   UNL     1      49.501   3.796  17.320  0.00  0.00    +0.000 C 
ATOM     15  N   UNL     1      48.304   3.235  16.661  0.00  0.00    +0.000 NA
ATOM     16  C   UNL     1      47.288   2.862  17.643  0.00  0.00    +0.000 C 
ATOM     17  C   UNL     1      47.986   4.547  16.074  0.00  0.00    +0.000 C 
ENDBRANCH  12  13
ENDBRANCH   9  12
ENDBRANCH   1   7
BRANCH   1  18
ATOM     18  C   UNL     1      46.832   8.304  12.232  0.00  0.00    +0.000 C 
BRANCH  18  19
ATOM     19  N   UNL     1      46.317   7.354  13.242  0.00  0.00    +0.000 N 
ATOM     20  C   UNL     1      45.744   6.201  12.691  0.00  0.00    +0.000 A 
ATOM     21  C   UNL     1      45.256   5.176  13.516  0.00  0.00    +0.000 A 
ATOM     22  N   UNL     1      44.668   4.035  13.053  0.00  0.00    +0.000 NA
ATOM     23  C   UNL     1      44.599   3.952  11.696  0.00  0.00    +0.000 A 
ATOM     24  C   UNL     1      45.108   4.939  10.870  0.00  0.00    +0.000 A 
ATOM     25  N   UNL     1      45.690   6.067  11.350  0.00  0.00    +0.000 NA
ATOM     26  H   UNL     1      45.677   7.782  13.905  0.00  0.00    +0.000 HD
BRANCH  23  27
ATOM     27  C   UNL     1      43.942   2.781  11.075  0.00  0.00    +0.000 C 
ATOM     28  N   UNL     1      44.540   2.286   9.941  0.00  0.00    +0.000 N 
ATOM     29  O   UNL     1      42.936   2.270  11.534  0.00  0.00    +0.000 OA
ATOM     30  H   UNL     1      45.380   2.714   9.574  0.00  0.00    +0.000 HD
ATOM     31  H   UNL     1      44.141   1.478   9.488  0.00  0.00    +0.000 HD
ENDBRANCH  23  27
ENDBRANCH  18  19
ENDBRANCH   1  18
TORSDOF 7
ENDMDL
MODEL 6
REMARK VINA RESULT:    -6.317      3.739      7.869
REMARK INTER + INTRA:          -9.966
REMARK INTER:                  -9.255
REMARK INTRA:                  -0.710
REMARK UNBOUND:                -1.064
REMARK  Name = 
REMARK  11 active torsions:
REMARK  status: ('A' for Active; 'I' for Inactive)
REMARK    1  A    between atoms: C_1  and  O_2
REMARK    2  A    between atoms: O_2  and  C_3
REMARK    3  A    between atoms: C_6  and  C_7
REMARK    4  A    between atoms: C_7  and  C_8
REMARK    5  A    between atoms: C_7  and  C_9
REMARK    6  A    between atoms: C_7  and  C_10
REMARK    7  A    between atoms: C_10  and  N_11
REMARK    8  A    between atoms: C_15  and  C_16
REMARK    9  A    between atoms: C_22  and  O_23
REMARK   10  A    between atoms: O_23  and  C_24
REMARK   11  A    between atoms: N_26  and  C_27
REMARK                            x       y       z     vdW  Elec       q    Type
REMARK                         _______ _______ _______ _____ _____    ______ ____
ROOT
ATOM      1  C   UNL     1      47.816   8.603  12.616  0.00  0.00    +0.000 C 
ATOM      2  C   UNL     1      48.571   7.735  11.586  0.00  0.00    +0.000 C 
ATOM      3  C   UNL     1      48.635   9.899  12.851  0.00  0.00    +0.000 C 
ENDROOT
BRANCH   1   7
ATOM      4  C   UNL     1      43.856   9.700  11.050  0.00  0.00    +0.000 A 
ATOM      5  C   UNL     1      44.818  10.669  11.349  0.00  0.00    +0.000 A 
ATOM      6  C   UNL     1      46.077  10.322  11.834  0.00  0.00    +0.000 A 
ATOM      7  C   UNL     1      46.429   8.995  12.078  0.00  0.00    +0.000 A 
ATOM      8  C   UNL     1      45.453   8.024  11.790  0.00  0.00    +0.000 A 
ATOM      9  C   UNL     1      44.177   8.358  11.292  0.00  0.00    +0.000 A 
BRANCH   4  11
ATOM     10  C   UNL     1      42.663  10.822   9.337  0.00  0.00    +0.000 C 
ATOM     11  O   UNL     1      42.632  10.035  10.531  0.00  0.00    +0.000 OA
ENDBRANCH   4  11
BRANCH   9  12
ATOM     12  O   UNL     1      43.420   7.240  11.030  0.00  0.00    +0.000 OA
BRANCH  12  13
ATOM     13  C   UNL     1      43.795   5.939  11.530  0.00  0.00    +0.000 C 
ATOM     14  C   UNL     1      43.923   4.765  10.537  0.00  0.00    +0.000 C 
ATOM     15  N   UNL     1      42.953   3.967  11.314  0.00  0.00    +0.000 NA
ATOM     16  C   UNL     1      43.631   2.961  12.128  0.00  0.00    +0.000 C 
ATOM     17  C   UNL     1      42.612   5.140  12.135  0.00  0.00    +0.000 C 
ENDBRANCH  12  13
ENDBRANCH   9  12
ENDBRANCH   1   7
BRANCH   1  18
ATOM     18  C   UNL     1      47.785   7.841  13.984  0.00  0.00    +0.000 C 
BRANCH  18  19
ATOM     19  N   UNL     1      47.218   6.479  13.887  0.00  0.00    +0.000 N 
ATOM     20  C   UNL     1      47.657   5.613  14.897  0.00  0.00    +0.000 A 
ATOM     21  C   UNL     1      47.171   4.299  14.979  0.00  0.00    +0.000 A 
ATOM     22  N   UNL     1      47.567   3.394  15.920  0.00  0.00    +0.000 NA
ATOM     23  C   UNL     1      48.480   3.873  16.808  0.00  0.00    +0.000 A 
ATOM     24  C   UNL     1      48.941   5.177  16.761  0.00  0.00    +0.000 A 
ATOM     25  N   UNL     1      48.535   6.063  15.817  0.00  0.00    +0.000 NA
ATOM     26  H   UNL     1      47.353   6.053  12.976  0.00  0.00    +0.000 HD
BRANCH  23  27
ATOM     27  C   UNL     1      49.019   2.971  17.849  0.00  0.00    +0.000 C 
ATOM     28  N   UNL     1      48.402   3.031  19.076  0.00  0.00    +0.000 N 
ATOM     29  O   UNL     1      49.947   2.208  17.644  0.00  0.00    +0.000 OA
ATOM     30  H   UNL     1      47.628   3.662  19.232  0.00  0.00    +0.000 HD
ATOM     31  H   UNL     1      48.721   2.424  19.816  0.00  0.00    +0.000 HD
ENDBRANCH  23  27
ENDBRANCH  18  19
ENDBRANCH   1  18
TORSDOF 7
ENDMDL
MODEL 7
REMARK VINA RESULT:    -6.187      3.497      5.839
REMARK INTER + INTRA:          -9.783
REMARK INTER:                  -8.591
REMARK INTRA:                  -1.192
REMARK UNBOUND:                -1.064
REMARK  Name = 
REMARK  11 active torsions:
REMARK  status: ('A' for Active; 'I' for Inactive)
REMARK    1  A    between atoms: C_1  and  O_2
REMARK    2  A    between atoms: O_2  and  C_3
REMARK    3  A    between atoms: C_6  and  C_7
REMARK    4  A    between atoms: C_7  and  C_8
REMARK    5  A    between atoms: C_7  and  C_9
REMARK    6  A    between atoms: C_7  and  C_10
REMARK    7  A    between atoms: C_10  and  N_11
REMARK    8  A    between atoms: C_15  and  C_16
REMARK    9  A    between atoms: C_22  and  O_23
REMARK   10  A    between atoms: O_23  and  C_24
REMARK   11  A    between atoms: N_26  and  C_27
REMARK                            x       y       z     vdW  Elec       q    Type
REMARK                         _______ _______ _______ _____ _____    ______ ____
ROOT
ATOM      1  C   UNL     1      49.135   7.910  14.708  0.00  0.00    +0.000 C 
ATOM      2  C   UNL     1      48.359   9.215  14.430  0.00  0.00    +0.000 C 
ATOM      3  C   UNL     1      50.651   8.239  14.710  0.00  0.00    +0.000 C 
ENDROOT
BRANCH   1   7
ATOM      4  C   UNL     1      48.030   6.273  18.637  0.00  0.00    +0.000 A 
ATOM      5  C   UNL     1      48.313   7.632  18.464  0.00  0.00    +0.000 A 
ATOM      6  C   UNL     1      48.652   8.153  17.218  0.00  0.00    +0.000 A 
ATOM      7  C   UNL     1      48.759   7.343  16.088  0.00  0.00    +0.000 A 
ATOM      8  C   UNL     1      48.488   5.975  16.269  0.00  0.00    +0.000 A 
ATOM      9  C   UNL     1      48.137   5.432  17.523  0.00  0.00    +0.000 A 
BRANCH   4  11
ATOM     10  C   UNL     1      48.725   5.391  20.724  0.00  0.00    +0.000 C 
ATOM     11  O   UNL     1      47.653   5.765  19.854  0.00  0.00    +0.000 OA
ENDBRANCH   4  11
BRANCH   9  12
ATOM     12  O   UNL     1      47.860   4.087  17.440  0.00  0.00    +0.000 OA
BRANCH  12  13
ATOM     13  C   UNL     1      48.843   3.091  17.790  0.00  0.00    +0.000 C 
ATOM     14  C   UNL     1      50.339   3.472  17.757  0.00  0.00    +0.000 C 
ATOM     15  N   UNL     1      50.628   2.364  16.824  0.00  0.00    +0.000 NA
ATOM     16  C   UNL     1      51.239   1.234  17.523  0.00  0.00    +0.000 C 
ATOM     17  C   UNL     1      49.189   2.123  16.629  0.00  0.00    +0.000 C 
ENDBRANCH  12  13
ENDBRANCH   9  12
ENDBRANCH   1   7
BRANCH   1  18
ATOM     18  C   UNL     1      48.895   6.922  13.518  0.00  0.00    +0.000 C 
BRANCH  18  19
ATOM     19  N   UNL     1      47.804   7.344  12.613  0.00  0.00    +0.000 N 
ATOM     20  C   UNL     1      46.836   6.355  12.398  0.00  0.00    +0.000 A 
ATOM     21  C   UNL     1      45.707   6.614  11.606  0.00  0.00    +0.000 A 
ATOM     22  N   UNL     1      44.734   5.696  11.336  0.00  0.00    +0.000 NA
ATOM     23  C   UNL     1      44.934   4.482  11.917  0.00  0.00    +0.000 A 
ATOM     24  C   UNL     1      46.024   4.223  12.730  0.00  0.00    +0.000 A 
ATOM     25  N   UNL     1      46.981   5.150  12.986  0.00  0.00    +0.000 NA
ATOM     26  H   UNL     1      48.138   7.707  11.725  0.00  0.00    +0.000 HD
BRANCH  23  27
ATOM     27  C   UNL     1      43.969   3.390  11.661  0.00  0.00    +0.000 C 
ATOM     28  N   UNL     1      43.783   2.497  12.691  0.00  0.00    +0.000 N 
ATOM     29  O   UNL     1      43.362   3.280  10.611  0.00  0.00    +0.000 OA
ATOM     30  H   UNL     1      44.286   2.604  13.561  0.00  0.00    +0.000 HD
ATOM     31  H   UNL     1      43.123   1.744  12.573  0.00  0.00    +0.000 HD
ENDBRANCH  23  27
ENDBRANCH  18  19
ENDBRANCH   1  18
TORSDOF 7
ENDMDL
MODEL 8
REMARK VINA RESULT:    -6.025      4.683      7.756
REMARK INTER + INTRA:          -9.554
REMARK INTER:                  -8.264
REMARK INTRA:                  -1.290
REMARK UNBOUND:                -1.064
REMARK  Name = 
REMARK  11 active torsions:
REMARK  status: ('A' for Active; 'I' for Inactive)
REMARK    1  A    between atoms: C_1  and  O_2
REMARK    2  A    between atoms: O_2  and  C_3
REMARK    3  A    between atoms: C_6  and  C_7
REMARK    4  A    between atoms: C_7  and  C_8
REMARK    5  A    between atoms: C_7  and  C_9
REMARK    6  A    between atoms: C_7  and  C_10
REMARK    7  A    between atoms: C_10  and  N_11
REMARK    8  A    between atoms: C_15  and  C_16
REMARK    9  A    between atoms: C_22  and  O_23
REMARK   10  A    between atoms: O_23  and  C_24
REMARK   11  A    between atoms: N_26  and  C_27
REMARK                            x       y       z     vdW  Elec       q    Type
REMARK                         _______ _______ _______ _____ _____    ______ ____
ROOT
ATOM      1  C   UNL     1      48.364   7.756  13.018  0.00  0.00    +0.000 C 
ATOM      2  C   UNL     1      49.584   7.551  12.093  0.00  0.00    +0.000 C 
ATOM      3  C   UNL     1      47.602   9.021  12.542  0.00  0.00    +0.000 C 
ENDROOT
BRANCH   1   7
ATOM      4  C   UNL     1      45.669   4.290  12.764  0.00  0.00    +0.000 A 
ATOM      5  C   UNL     1      45.587   5.349  11.855  0.00  0.00    +0.000 A 
ATOM      6  C   UNL     1      46.447   6.442  11.927  0.00  0.00    +0.000 A 
ATOM      7  C   UNL     1      47.411   6.551  12.929  0.00  0.00    +0.000 A 
ATOM      8  C   UNL     1      47.481   5.492  13.850  0.00  0.00    +0.000 A 
ATOM      9  C   UNL     1      46.622   4.375  13.787  0.00  0.00    +0.000 A 
BRANCH   4  11
ATOM     10  C   UNL     1      43.886   3.233  11.616  0.00  0.00    +0.000 C 
ATOM     11  O   UNL     1      44.853   3.192  12.669  0.00  0.00    +0.000 OA
ENDBRANCH   4  11
BRANCH   9  12
ATOM     12  O   UNL     1      46.920   3.443  14.754  0.00  0.00    +0.000 OA
BRANCH  12  13
ATOM     13  C   UNL     1      47.679   3.791  15.931  0.00  0.00    +0.000 C 
ATOM     14  C   UNL     1      48.460   2.685  16.671  0.00  0.00    +0.000 C 
ATOM     15  N   UNL     1      47.759   2.998  17.933  0.00  0.00    +0.000 NA
ATOM     16  C   UNL     1      48.610   3.781  18.827  0.00  0.00    +0.000 C 
ATOM     17  C   UNL     1      46.823   3.881  17.219  0.00  0.00    +0.000 C 
ENDBRANCH  12  13
ENDBRANCH   9  12
ENDBRANCH   1   7
BRANCH   1  18
ATOM     18  C   UNL     1      48.879   8.065  14.464  0.00  0.00    +0.000 C 
BRANCH  18  19
ATOM     19  N   UNL     1      50.347   8.229  14.543  0.00  0.00    +0.000 N 
ATOM     20  C   UNL     1      50.968   7.328  15.417  0.00  0.00    +0.000 A 
ATOM     21  C   UNL     1      52.364   7.318  15.566  0.00  0.00    +0.000 A 
ATOM     22  N   UNL     1      53.037   6.484  16.411  0.00  0.00    +0.000 NA
ATOM     23  C   UNL     1      52.239   5.630  17.108  0.00  0.00    +0.000 A 
ATOM     24  C   UNL     1      50.865   5.604  16.944  0.00  0.00    +0.000 A 
ATOM     25  N   UNL     1      50.214   6.442  16.098  0.00  0.00    +0.000 NA
ATOM     26  H   UNL     1      50.632   9.180  14.758  0.00  0.00    +0.000 HD
BRANCH  23  27
ATOM     27  C   UNL     1      52.850   4.707  18.090  0.00  0.00    +0.000 C 
ATOM     28  N   UNL     1      52.222   3.495  18.249  0.00  0.00    +0.000 N 
ATOM     29  O   UNL     1      53.854   4.987  18.721  0.00  0.00    +0.000 OA
ATOM     30  H   UNL     1      51.394   3.270  17.714  0.00  0.00    +0.000 HD
ATOM     31  H   UNL     1      52.608   2.823  18.894  0.00  0.00    +0.000 HD
ENDBRANCH  23  27
ENDBRANCH  18  19
ENDBRANCH   1  18
TORSDOF 7
ENDMDL
MODEL 9
REMARK VINA RESULT:    -5.971      4.777      8.503
REMARK INTER + INTRA:          -9.479
REMARK INTER:                  -8.166
REMARK INTRA:                  -1.313
REMARK UNBOUND:                -1.064
REMARK  Name = 
REMARK  11 active torsions:
REMARK  status: ('A' for Active; 'I' for Inactive)
REMARK    1  A    between atoms: C_1  and  O_2
REMARK    2  A    between atoms: O_2  and  C_3
REMARK    3  A    between atoms: C_6  and  C_7
REMARK    4  A    between atoms: C_7  and  C_8
REMARK    5  A    between atoms: C_7  and  C_9
REMARK    6  A    between atoms: C_7  and  C_10
REMARK    7  A    between atoms: C_10  and  N_11
REMARK    8  A    between atoms: C_15  and  C_16
REMARK    9  A    between atoms: C_22  and  O_23
REMARK   10  A    between atoms: O_23  and  C_24
REMARK   11  A    between atoms: N_26  and  C_27
REMARK                            x       y       z     vdW  Elec       q    Type
REMARK                         _______ _______ _______ _____ _____    ______ ____
ROOT
ATOM      1  C   UNL     1      48.485   7.673  12.763  0.00  0.00    +0.000 C 
ATOM      2  C   UNL     1      49.549   7.351  11.692  0.00  0.00    +0.000 C 
ATOM      3  C   UNL     1      47.800   9.011  12.378  0.00  0.00    +0.000 C 
ENDROOT
BRANCH   1   7
ATOM      4  C   UNL     1      45.444   4.499  12.894  0.00  0.00    +0.000 A 
ATOM      5  C   UNL     1      45.511   5.405  11.830  0.00  0.00    +0.000 A 
ATOM      6  C   UNL     1      46.481   6.403  11.782  0.00  0.00    +0.000 A 
ATOM      7  C   UNL     1      47.412   6.571  12.807  0.00  0.00    +0.000 A 
ATOM      8  C   UNL     1      47.332   5.669  13.881  0.00  0.00    +0.000 A 
ATOM      9  C   UNL     1      46.360   4.648  13.942  0.00  0.00    +0.000 A 
BRANCH   4  11
ATOM     10  C   UNL     1      43.726   3.343  11.740  0.00  0.00    +0.000 C 
ATOM     11  O   UNL     1      44.519   3.488  12.923  0.00  0.00    +0.000 OA
ENDBRANCH   4  11
BRANCH   9  12
ATOM     12  O   UNL     1      46.519   3.855  15.055  0.00  0.00    +0.000 OA
BRANCH  12  13
ATOM     13  C   UNL     1      47.590   4.078  15.996  0.00  0.00    +0.000 C 
ATOM     14  C   UNL     1      48.335   2.861  16.583  0.00  0.00    +0.000 C 
ATOM     15  N   UNL     1      48.027   3.302  17.959  0.00  0.00    +0.000 NA
ATOM     16  C   UNL     1      49.188   3.935  18.581  0.00  0.00    +0.000 C 
ATOM     17  C   UNL     1      47.103   4.327  17.446  0.00  0.00    +0.000 C 
ENDBRANCH  12  13
ENDBRANCH   9  12
ENDBRANCH   1   7
BRANCH   1  18
ATOM     18  C   UNL     1      49.210   7.921  14.129  0.00  0.00    +0.000 C 
BRANCH  18  19
ATOM     19  N   UNL     1      48.709   9.108  14.855  0.00  0.00    +0.000 N 
ATOM     20  C   UNL     1      48.556   8.902  16.232  0.00  0.00    +0.000 A 
ATOM     21  C   UNL     1      48.140   9.946  17.073  0.00  0.00    +0.000 A 
ATOM     22  N   UNL     1      47.950   9.815  18.418  0.00  0.00    +0.000 NA
ATOM     23  C   UNL     1      48.214   8.571  18.903  0.00  0.00    +0.000 A 
ATOM     24  C   UNL     1      48.659   7.543  18.091  0.00  0.00    +0.000 A 
ATOM     25  N   UNL     1      48.843   7.692  16.755  0.00  0.00    +0.000 NA
ATOM     26  H   UNL     1      47.854   9.488  14.460  0.00  0.00    +0.000 HD
BRANCH  23  27
ATOM     27  C   UNL     1      48.001   8.294  20.340  0.00  0.00    +0.000 C 
ATOM     28  N   UNL     1      48.959   7.521  20.953  0.00  0.00    +0.000 N 
ATOM     29  O   UNL     1      47.045   8.726  20.960  0.00  0.00    +0.000 OA
ATOM     30  H   UNL     1      49.752   7.176  20.430  0.00  0.00    +0.000 HD
ATOM     31  H   UNL     1      48.869   7.317  21.936  0.00  0.00    +0.000 HD
ENDBRANCH  23  27
ENDBRANCH  18  19
ENDBRANCH   1  18
TORSDOF 7
ENDMDL
