MODEL 1
REMARK VINA RESULT:    -8.060      0.000      0.000
REMARK INTER + INTRA:          -9.859
REMARK INTER:                  -9.473
REMARK INTRA:                  -0.385
REMARK UNBOUND:                -0.385
REMARK  Name = 
REMARK  3 active torsions:
REMARK  status: ('A' for Active; 'I' for Inactive)
REMARK    1  A    between atoms: C_2  and  C_4
REMARK    2  A    between atoms: N_8  and  C_9
REMARK    3  A    between atoms: C_9  and  C_10
REMARK                            x       y       z     vdW  Elec       q    Type
REMARK                         _______ _______ _______ _____ _____    ______ ____
ROOT
ATOM      1  C   UNL     1      46.251   2.094   7.918  0.00  0.00    +0.000 A 
ATOM      2  C   UNL     1      46.404   3.431   7.573  0.00  0.00    +0.000 A 
ATOM      3  C   UNL     1      45.573   4.376   8.170  0.00  0.00    +0.000 A 
ATOM      4  C   UNL     1      44.637   3.977   9.125  0.00  0.00    +0.000 A 
ATOM      5  N   UNL     1      43.910   4.986   9.753  0.00  0.00    +0.000 N 
ATOM      6  N   UNL     1      44.469   2.683   9.456  0.00  0.00    +0.000 NA
ATOM      7  C   UNL     1      45.258   1.767   8.831  0.00  0.00    +0.000 A 
ATOM      8  H   UNL     1      43.338   5.487   9.080  0.00  0.00    +0.000 HD
ENDROOT
BRANCH   1  10
ATOM      9  N   UNL     1      46.778  -0.263   7.683  0.00  0.00    +0.000 N 
ATOM     10  C   UNL     1      47.095   1.023   7.350  0.00  0.00    +0.000 C 
ATOM     11  O   UNL     1      48.012   1.274   6.579  0.00  0.00    +0.000 OA
ATOM     12  H   UNL     1      47.291  -0.992   7.201  0.00  0.00    +0.000 HD
ATOM     13  H   UNL     1      45.890  -0.516   8.094  0.00  0.00    +0.000 HD
ENDBRANCH   1  10
BRANCH   5  14
ATOM     14  C   UNL     1      43.215   4.656  10.989  0.00  0.00    +0.000 C 
BRANCH  14  15
ATOM     15  C   UNL     1      44.082   5.141  12.166  0.00  0.00    +0.000 C 
ATOM     16  C   UNL     1      45.077   6.231  11.729  0.00  0.00    +0.000 C 
ATOM     17  C   UNL     1      46.013   6.606  12.871  0.00  0.00    +0.000 C 
ATOM     18  C   UNL     1      46.656   5.360  13.459  0.00  0.00    +0.000 C 
ATOM     19  O   UNL     1      45.656   4.438  13.893  0.00  0.00    +0.000 OA
ATOM     20  C   UNL     1      44.838   3.978  12.813  0.00  0.00    +0.000 C 
ENDBRANCH  14  15
ENDBRANCH   5  14
TORSDOF 3
ENDMDL
MODEL 2
REMARK VINA RESULT:    -7.176      1.426      1.784
REMARK INTER + INTRA:          -8.819
REMARK INTER:                  -8.540
REMARK INTRA:                  -0.279
REMARK UNBOUND:                -0.385
REMARK  Name = 
REMARK  3 active torsions:
REMARK  status: ('A' for Active; 'I' for Inactive)
REMARK    1  A    between atoms: C_2  and  C_4
REMARK    2  A    between atoms: N_8  and  C_9
REMARK    3  A    between atoms: C_9  and  C_10
REMARK                            x       y       z     vdW  Elec       q    Type
REMARK                         _______ _______ _______ _____ _____    ______ ____
ROOT
ATOM      1  C   UNL     1      46.660   2.565   7.257  0.00  0.00    +0.000 A 
ATOM      2  C   UNL     1      46.121   1.532   8.014  0.00  0.00    +0.000 A 
ATOM      3  C   UNL     1      45.301   1.851   9.094  0.00  0.00    +0.000 A 
ATOM      4  C   UNL     1      45.003   3.185   9.373  0.00  0.00    +0.000 A 
ATOM      5  N   UNL     1      44.098   3.425  10.404  0.00  0.00    +0.000 N 
ATOM      6  N   UNL     1      45.533   4.195   8.657  0.00  0.00    +0.000 NA
ATOM      7  C   UNL     1      46.367   3.869   7.632  0.00  0.00    +0.000 A 
ATOM      8  H   UNL     1      44.468   3.092  11.289  0.00  0.00    +0.000 HD
ENDROOT
BRANCH   1  10
ATOM      9  N   UNL     1      47.398   3.181   5.028  0.00  0.00    +0.000 N 
ATOM     10  C   UNL     1      47.528   2.325   6.085  0.00  0.00    +0.000 C 
ATOM     11  O   UNL     1      48.356   1.425   6.078  0.00  0.00    +0.000 OA
ATOM     12  H   UNL     1      48.072   3.077   4.279  0.00  0.00    +0.000 HD
ATOM     13  H   UNL     1      46.923   4.071   5.103  0.00  0.00    +0.000 HD
ENDBRANCH   1  10
BRANCH   5  14
ATOM     14  C   UNL     1      43.485   4.743  10.479  0.00  0.00    +0.000 C 
BRANCH  14  15
ATOM     15  C   UNL     1      44.078   5.476  11.696  0.00  0.00    +0.000 C 
ATOM     16  C   UNL     1      44.909   6.701  11.273  0.00  0.00    +0.000 C 
ATOM     17  C   UNL     1      45.596   7.338  12.474  0.00  0.00    +0.000 C 
ATOM     18  C   UNL     1      46.367   6.290  13.260  0.00  0.00    +0.000 C 
ATOM     19  O   UNL     1      45.502   5.228  13.662  0.00  0.00    +0.000 OA
ATOM     20  C   UNL     1      44.938   4.536  12.544  0.00  0.00    +0.000 C 
ENDBRANCH  14  15
ENDBRANCH   5  14
TORSDOF 3
ENDMDL
MODEL 3
REMARK VINA RESULT:    -6.961      1.971      6.261
REMARK INTER + INTRA:          -8.568
REMARK INTER:                  -8.286
REMARK INTRA:                  -0.282
REMARK UNBOUND:                -0.385
REMARK  Name = 
REMARK  3 active torsions:
REMARK  status: ('A' for Active; 'I' for Inactive)
REMARK    1  A    between atoms: C_2  and  C_4
REMARK    2  A    between atoms: N_8  and  C_9
REMARK    3  A    between atoms: C_9  and  C_10
REMARK                            x       y       z     vdW  Elec       q    Type
REMARK                         _______ _______ _______ _____ _____    ______ ____
ROOT
ATOM      1  C   UNL     1      45.595   6.076  12.369  0.00  0.00    +0.000 A 
ATOM      2  C   UNL     1      45.848   4.895  13.054  0.00  0.00    +0.000 A 
ATOM      3  C   UNL     1      45.506   3.686  12.454  0.00  0.00    +0.000 A 
ATOM      4  C   UNL     1      44.958   3.675  11.171  0.00  0.00    +0.000 A 
ATOM      5  N   UNL     1      44.733   2.428  10.592  0.00  0.00    +0.000 N 
ATOM      6  N   UNL     1      44.693   4.814  10.503  0.00  0.00    +0.000 NA
ATOM      7  C   UNL     1      44.992   5.988  11.122  0.00  0.00    +0.000 A 
ATOM      8  H   UNL     1      44.049   1.902  11.128  0.00  0.00    +0.000 HD
ENDROOT
BRANCH   1  10
ATOM      9  N   UNL     1      47.011   7.475  13.757  0.00  0.00    +0.000 N 
ATOM     10  C   UNL     1      45.936   7.405  12.918  0.00  0.00    +0.000 C 
ATOM     11  O   UNL     1      45.309   8.406  12.600  0.00  0.00    +0.000 OA
ATOM     12  H   UNL     1      47.303   8.404  14.038  0.00  0.00    +0.000 HD
ATOM     13  H   UNL     1      47.694   6.733  13.831  0.00  0.00    +0.000 HD
ENDBRANCH   1  10
BRANCH   5  14
ATOM     14  C   UNL     1      44.524   2.372   9.152  0.00  0.00    +0.000 C 
BRANCH  14  15
ATOM     15  C   UNL     1      45.904   2.412   8.470  0.00  0.00    +0.000 C 
ATOM     16  C   UNL     1      45.932   3.415   7.302  0.00  0.00    +0.000 C 
ATOM     17  C   UNL     1      47.259   3.348   6.556  0.00  0.00    +0.000 C 
ATOM     18  C   UNL     1      47.575   1.914   6.167  0.00  0.00    +0.000 C 
ATOM     19  O   UNL     1      47.588   1.073   7.320  0.00  0.00    +0.000 OA
ATOM     20  C   UNL     1      46.315   1.024   7.971  0.00  0.00    +0.000 C 
ENDBRANCH  14  15
ENDBRANCH   5  14
TORSDOF 3
ENDMDL
MODEL 4
REMARK VINA RESULT:    -5.850      2.603      6.337
REMARK INTER + INTRA:          -7.261
REMARK INTER:                  -6.851
REMARK INTRA:                  -0.411
REMARK UNBOUND:                -0.385
REMARK  Name = 
REMARK  3 active torsions:
REMARK  status: ('A' for Active; 'I' for Inactive)
REMARK    1  A    between atoms: C_2  and  C_4
REMARK    2  A    between atoms: N_8  and  C_9
REMARK    3  A    between atoms: C_9  and  C_10
REMARK                            x       y       z     vdW  Elec       q    Type
REMARK                         _______ _______ _______ _____ _____    ______ ____
ROOT
ATOM      1  C   UNL     1      47.512   6.162  13.796  0.00  0.00    +0.000 A 
ATOM      2  C   UNL     1      47.121   4.863  14.096  0.00  0.00    +0.000 A 
ATOM      3  C   UNL     1      46.033   4.318  13.418  0.00  0.00    +0.000 A 
ATOM      4  C   UNL     1      45.384   5.059  12.430  0.00  0.00    +0.000 A 
ATOM      5  N   UNL     1      44.370   4.416  11.724  0.00  0.00    +0.000 N 
ATOM      6  N   UNL     1      45.744   6.325  12.142  0.00  0.00    +0.000 NA
ATOM      7  C   UNL     1      46.780   6.858  12.844  0.00  0.00    +0.000 A 
ATOM      8  H   UNL     1      43.608   4.161  12.345  0.00  0.00    +0.000 HD
ENDROOT
BRANCH   1  10
ATOM      9  N   UNL     1      48.991   8.073  14.020  0.00  0.00    +0.000 N 
ATOM     10  C   UNL     1      48.662   6.820  14.451  0.00  0.00    +0.000 C 
ATOM     11  O   UNL     1      49.266   6.282  15.368  0.00  0.00    +0.000 OA
ATOM     12  H   UNL     1      49.706   8.557  14.550  0.00  0.00    +0.000 HD
ATOM     13  H   UNL     1      48.366   8.639  13.461  0.00  0.00    +0.000 HD
ENDBRANCH   1  10
BRANCH   5  14
ATOM     14  C   UNL     1      43.934   5.006  10.467  0.00  0.00    +0.000 C 
BRANCH  14  15
ATOM     15  C   UNL     1      44.296   4.030   9.333  0.00  0.00    +0.000 C 
ATOM     16  C   UNL     1      44.552   2.608   9.865  0.00  0.00    +0.000 C 
ATOM     17  C   UNL     1      45.035   1.687   8.753  0.00  0.00    +0.000 C 
ATOM     18  C   UNL     1      46.212   2.311   8.022  0.00  0.00    +0.000 C 
ATOM     19  O   UNL     1      45.860   3.596   7.511  0.00  0.00    +0.000 OA
ATOM     20  C   UNL     1      45.518   4.518   8.550  0.00  0.00    +0.000 C 
ENDBRANCH  14  15
ENDBRANCH   5  14
TORSDOF 3
ENDMDL
MODEL 5
REMARK VINA RESULT:    -5.838      3.993      5.651
REMARK INTER + INTRA:          -7.247
REMARK INTER:                  -7.043
REMARK INTRA:                  -0.204
REMARK UNBOUND:                -0.385
REMARK  Name = 
REMARK  3 active torsions:
REMARK  status: ('A' for Active; 'I' for Inactive)
REMARK    1  A    between atoms: C_2  and  C_4
REMARK    2  A    between atoms: N_8  and  C_9
REMARK    3  A    between atoms: C_9  and  C_10
REMARK                            x       y       z     vdW  Elec       q    Type
REMARK                         _______ _______ _______ _____ _____    ______ ____
ROOT
ATOM      1  C   UNL     1      45.093   4.281  11.279  0.00  0.00    +0.000 A 
ATOM      2  C   UNL     1      45.624   5.549  11.485  0.00  0.00    +0.000 A 
ATOM      3  C   UNL     1      46.224   5.832  12.710  0.00  0.00    +0.000 A 
ATOM      4  C   UNL     1      46.320   4.839  13.685  0.00  0.00    +0.000 A 
ATOM      5  N   UNL     1      47.020   5.162  14.846  0.00  0.00    +0.000 N 
ATOM      6  N   UNL     1      45.795   3.613  13.503  0.00  0.00    +0.000 NA
ATOM      7  C   UNL     1      45.173   3.365  12.319  0.00  0.00    +0.000 A 
ATOM      8  H   UNL     1      46.559   5.917  15.344  0.00  0.00    +0.000 HD
ENDROOT
BRANCH   1  10
ATOM      9  N   UNL     1      44.678   4.676   8.921  0.00  0.00    +0.000 N 
ATOM     10  C   UNL     1      44.451   3.883  10.009  0.00  0.00    +0.000 C 
ATOM     11  O   UNL     1      43.780   2.863   9.926  0.00  0.00    +0.000 OA
ATOM     12  H   UNL     1      44.327   4.335   8.034  0.00  0.00    +0.000 HD
ATOM     13  H   UNL     1      45.421   5.362   8.891  0.00  0.00    +0.000 HD
ENDBRANCH   1  10
BRANCH   5  14
ATOM     14  C   UNL     1      47.459   4.071  15.703  0.00  0.00    +0.000 C 
BRANCH  14  15
ATOM     15  C   UNL     1      48.172   4.681  16.924  0.00  0.00    +0.000 C 
ATOM     16  C   UNL     1      49.348   3.806  17.393  0.00  0.00    +0.000 C 
ATOM     17  C   UNL     1      49.960   4.354  18.676  0.00  0.00    +0.000 C 
ATOM     18  C   UNL     1      48.880   4.579  19.722  0.00  0.00    +0.000 C 
ATOM     19  O   UNL     1      47.869   5.451  19.219  0.00  0.00    +0.000 OA
ATOM     20  C   UNL     1      47.196   4.902  18.082  0.00  0.00    +0.000 C 
ENDBRANCH  14  15
ENDBRANCH   5  14
TORSDOF 3
ENDMDL
MODEL 6
REMARK VINA RESULT:    -5.438      5.210      8.252
REMARK INTER + INTRA:          -6.777
REMARK INTER:                  -6.545
REMARK INTRA:                  -0.232
REMARK UNBOUND:                -0.385
REMARK  Name = 
REMARK  3 active torsions:
REMARK  status: ('A' for Active; 'I' for Inactive)
REMARK    1  A    between atoms: C_2  and  C_4
REMARK    2  A    between atoms: N_8  and  C_9
REMARK    3  A    between atoms: C_9  and  C_10
REMARK                            x       y       z     vdW  Elec       q    Type
REMARK                         _______ _______ _______ _____ _____    ______ ____
ROOT
ATOM      1  C   UNL     1      49.327   4.382  17.945  0.00  0.00    +0.000 A 
ATOM      2  C   UNL     1      48.467   3.292  17.889  0.00  0.00    +0.000 A 
ATOM      3  C   UNL     1      47.528   3.232  16.863  0.00  0.00    +0.000 A 
ATOM      4  C   UNL     1      47.490   4.235  15.893  0.00  0.00    +0.000 A 
ATOM      5  N   UNL     1      46.593   4.060  14.842  0.00  0.00    +0.000 N 
ATOM      6  N   UNL     1      48.307   5.304  15.946  0.00  0.00    +0.000 NA
ATOM      7  C   UNL     1      49.189   5.370  16.980  0.00  0.00    +0.000 A 
ATOM      8  H   UNL     1      45.637   4.048  15.185  0.00  0.00    +0.000 HD
ENDROOT
BRANCH   1  10
ATOM      9  N   UNL     1      49.960   4.432  20.288  0.00  0.00    +0.000 N 
ATOM     10  C   UNL     1      50.365   4.526  18.987  0.00  0.00    +0.000 C 
ATOM     11  O   UNL     1      51.544   4.678  18.695  0.00  0.00    +0.000 OA
ATOM     12  H   UNL     1      50.693   4.420  20.987  0.00  0.00    +0.000 HD
ATOM     13  H   UNL     1      49.061   4.053  20.552  0.00  0.00    +0.000 HD
ENDBRANCH   1  10
BRANCH   5  14
ATOM     14  C   UNL     1      46.781   4.866  13.644  0.00  0.00    +0.000 C 
BRANCH  14  15
ATOM     15  C   UNL     1      45.498   4.770  12.799  0.00  0.00    +0.000 C 
ATOM     16  C   UNL     1      45.124   3.307  12.496  0.00  0.00    +0.000 C 
ATOM     17  C   UNL     1      43.931   3.232  11.552  0.00  0.00    +0.000 C 
ATOM     18  C   UNL     1      44.173   4.092  10.323  0.00  0.00    +0.000 C 
ATOM     19  O   UNL     1      44.448   5.440  10.701  0.00  0.00    +0.000 OA
ATOM     20  C   UNL     1      45.637   5.551  11.490  0.00  0.00    +0.000 C 
ENDBRANCH  14  15
ENDBRANCH   5  14
TORSDOF 3
ENDMDL
MODEL 7
REMARK VINA RESULT:    -5.317      3.492      5.251
REMARK INTER + INTRA:          -6.635
REMARK INTER:                  -6.292
REMARK INTRA:                  -0.343
REMARK UNBOUND:                -0.385
REMARK  Name = 
REMARK  3 active torsions:
REMARK  status: ('A' for Active; 'I' for Inactive)
REMARK    1  A    between atoms: C_2  and  C_4
REMARK    2  A    between atoms: N_8  and  C_9
REMARK    3  A    between atoms: C_9  and  C_10
REMARK                            x       y       z     vdW  Elec       q    Type
REMARK                         _______ _______ _______ _____ _____    ______ ____
ROOT
ATOM      1  C   UNL     1      44.977   4.579  11.006  0.00  0.00    +0.000 A 
ATOM      2  C   UNL     1      45.264   4.112  12.283  0.00  0.00    +0.000 A 
ATOM      3  C   UNL     1      45.960   4.941  13.158  0.00  0.00    +0.000 A 
ATOM      4  C   UNL     1      46.320   6.230  12.761  0.00  0.00    +0.000 A 
ATOM      5  N   UNL     1      46.925   7.039  13.720  0.00  0.00    +0.000 N 
ATOM      6  N   UNL     1      46.062   6.687  11.521  0.00  0.00    +0.000 NA
ATOM      7  C   UNL     1      45.420   5.849  10.663  0.00  0.00    +0.000 A 
ATOM      8  H   UNL     1      47.812   6.643  14.014  0.00  0.00    +0.000 HD
ENDROOT
BRANCH   1  10
ATOM      9  N   UNL     1      44.108   4.300   8.757  0.00  0.00    +0.000 N 
ATOM     10  C   UNL     1      44.231   3.778  10.013  0.00  0.00    +0.000 C 
ATOM     11  O   UNL     1      43.780   2.676  10.293  0.00  0.00    +0.000 OA
ATOM     12  H   UNL     1      43.693   3.696   8.058  0.00  0.00    +0.000 HD
ATOM     13  H   UNL     1      44.679   5.067   8.427  0.00  0.00    +0.000 HD
ENDBRANCH   1  10
BRANCH   5  14
ATOM     14  C   UNL     1      46.971   8.473  13.472  0.00  0.00    +0.000 C 
BRANCH  14  15
ATOM     15  C   UNL     1      48.439   8.866  13.225  0.00  0.00    +0.000 C 
ATOM     16  C   UNL     1      48.707   9.163  11.738  0.00  0.00    +0.000 C 
ATOM     17  C   UNL     1      50.187   9.422  11.491  0.00  0.00    +0.000 C 
ATOM     18  C   UNL     1      51.026   8.296  12.072  0.00  0.00    +0.000 C 
ATOM     19  O   UNL     1      50.756   8.138  13.465  0.00  0.00    +0.000 OA
ATOM     20  C   UNL     1      49.395   7.775  13.715  0.00  0.00    +0.000 C 
ENDBRANCH  14  15
ENDBRANCH   5  14
TORSDOF 3
ENDMDL
