MODEL 1
REMARK VINA RESULT:    -5.626      0.000      0.000
REMARK INTER + INTRA:          -7.467
REMARK INTER:                  -7.271
REMARK INTRA:                  -0.196
REMARK UNBOUND:                -0.196
REMARK  Name = 
REMARK  7 active torsions:
REMARK  status: ('A' for Active; 'I' for Inactive)
REMARK    1  A    between atoms: C_1  and  C_2
REMARK    2  A    between atoms: C_2  and  C_3
REMARK    3  A    between atoms: C_5  and  N_6
REMARK    4  A    between atoms: C_5  and  C_12
REMARK    5  A    between atoms: N_6  and  C_7
REMARK    6  A    between atoms: C_7  and  C_8
REMARK    7  A    between atoms: C_16  and  C_17
REMARK                            x       y       z     vdW  Elec       q    Type
REMARK                         _______ _______ _______ _____ _____    ______ ____
ROOT
ATOM      1  C   UNL     1      44.426   3.649   7.644  0.00  0.00    +0.000 C 
ATOM      2  C   UNL     1      45.733   3.972   8.370  0.00  0.00    +0.000 C 
ATOM      3  C   UNL     1      46.931   3.571   7.506  0.00  0.00    +0.000 C 
ATOM      4  C   UNL     1      45.765   3.445   9.827  0.00  0.00    +0.000 C 
ATOM      5  C   UNL     1      45.504   4.877  10.385  0.00  0.00    +0.000 C 
ATOM      6  C   UNL     1      45.890   5.408   8.955  0.00  0.00    +0.000 C 
ENDROOT
BRANCH   5   7
ATOM      7  C   UNL     1      46.356   5.384  11.622  0.00  0.00    +0.000 A 
ATOM      8  C   UNL     1      46.972   6.642  11.658  0.00  0.00    +0.000 A 
ATOM      9  N   UNL     1      47.686   7.153  12.694  0.00  0.00    +0.000 NA
ATOM     10  C   UNL     1      47.804   6.377  13.793  0.00  0.00    +0.000 A 
ATOM     11  C   UNL     1      47.244   5.117  13.904  0.00  0.00    +0.000 A 
ATOM     12  C   UNL     1      46.521   4.632  12.802  0.00  0.00    +0.000 A 
BRANCH  11  13
ATOM     13  C   UNL     1      47.359   4.269  15.116  0.00  0.00    +0.000 C 
ATOM     14  N   UNL     1      47.174   4.830  16.348  0.00  0.00    +0.000 N 
ATOM     15  O   UNL     1      47.621   3.075  15.022  0.00  0.00    +0.000 OA
ATOM     16  H   UNL     1      46.960   5.797  16.539  0.00  0.00    +0.000 HD
ATOM     17  H   UNL     1      47.270   4.211  17.143  0.00  0.00    +0.000 HD
ENDBRANCH  11  13
ENDBRANCH   5   7
BRANCH   5  18
ATOM     18  N   UNL     1      44.077   5.239  10.493  0.00  0.00    +0.000 NA
ATOM     19  H   UNL     1      43.898   6.228  10.331  0.00  0.00    +0.000 HD
BRANCH  18  20
ATOM     20  C   UNL     1      43.222   4.722  11.590  0.00  0.00    +0.000 C 
ATOM     21  C   UNL     1      42.976   5.506  12.858  0.00  0.00    +0.000 C 
ATOM     22  C   UNL     1      41.930   5.523  11.793  0.00  0.00    +0.000 C 
BRANCH  20  23
ATOM     23  C   UNL     1      43.068   3.284  11.691  0.00  0.00    +0.000 C 
ATOM     24  N   UNL     1      42.941   2.134  11.750  0.00  0.00    +0.000 NA
ENDBRANCH  20  23
ENDBRANCH  18  20
ENDBRANCH   5  18
TORSDOF 5
ENDMDL
MODEL 2
REMARK VINA RESULT:    -5.439      3.436      5.330
REMARK INTER + INTRA:          -7.225
REMARK INTER:                  -7.901
REMARK INTRA:                   0.676
REMARK UNBOUND:                -0.196
REMARK  Name = 
REMARK  7 active torsions:
REMARK  status: ('A' for Active; 'I' for Inactive)
REMARK    1  A    between atoms: C_1  and  C_2
REMARK    2  A    between atoms: C_2  and  C_3
REMARK    3  A    between atoms: C_5  and  N_6
REMARK    4  A    between atoms: C_5  and  C_12
REMARK    5  A    between atoms: N_6  and  C_7
REMARK    6  A    between atoms: C_7  and  C_8
REMARK    7  A    between atoms: C_16  and  C_17
REMARK                            x       y       z     vdW  Elec       q    Type
REMARK                         _______ _______ _______ _____ _____    ______ ____
ROOT
ATOM      1  C   UNL     1      46.561   3.286  13.181  0.00  0.00    +0.000 C 
ATOM      2  C   UNL     1      46.516   4.747  13.632  0.00  0.00    +0.000 C 
ATOM      3  C   UNL     1      47.017   4.872  15.072  0.00  0.00    +0.000 C 
ATOM      4  C   UNL     1      45.154   5.429  13.346  0.00  0.00    +0.000 C 
ATOM      5  C   UNL     1      45.753   6.186  12.121  0.00  0.00    +0.000 C 
ATOM      6  C   UNL     1      47.169   5.805  12.692  0.00  0.00    +0.000 C 
ENDROOT
BRANCH   5   7
ATOM      7  C   UNL     1      45.416   7.723  11.930  0.00  0.00    +0.000 A 
ATOM      8  C   UNL     1      46.281   8.749  12.334  0.00  0.00    +0.000 A 
ATOM      9  N   UNL     1      46.073  10.080  12.173  0.00  0.00    +0.000 NA
ATOM     10  C   UNL     1      44.927  10.446  11.558  0.00  0.00    +0.000 A 
ATOM     11  C   UNL     1      43.983   9.545  11.099  0.00  0.00    +0.000 A 
ATOM     12  C   UNL     1      44.243   8.181  11.297  0.00  0.00    +0.000 A 
BRANCH  11  13
ATOM     13  C   UNL     1      42.731   9.945  10.410  0.00  0.00    +0.000 C 
ATOM     14  N   UNL     1      41.525   9.626  10.969  0.00  0.00    +0.000 N 
ATOM     15  O   UNL     1      42.769  10.553   9.346  0.00  0.00    +0.000 OA
ATOM     16  H   UNL     1      41.380   9.128  11.833  0.00  0.00    +0.000 HD
ATOM     17  H   UNL     1      40.702   9.916  10.457  0.00  0.00    +0.000 HD
ENDBRANCH  11  13
ENDBRANCH   5   7
BRANCH   5  18
ATOM     18  N   UNL     1      45.699   5.432  10.853  0.00  0.00    +0.000 NA
ATOM     19  H   UNL     1      46.115   5.931  10.069  0.00  0.00    +0.000 HD
BRANCH  18  20
ATOM     20  C   UNL     1      44.476   4.708  10.428  0.00  0.00    +0.000 C 
ATOM     21  C   UNL     1      44.334   4.105   9.049  0.00  0.00    +0.000 C 
ATOM     22  C   UNL     1      44.700   3.210  10.186  0.00  0.00    +0.000 C 
BRANCH  20  23
ATOM     23  C   UNL     1      43.239   5.034  11.110  0.00  0.00    +0.000 C 
ATOM     24  N   UNL     1      42.260   5.315  11.661  0.00  0.00    +0.000 NA
ENDBRANCH  20  23
ENDBRANCH  18  20
ENDBRANCH   5  18
TORSDOF 5
ENDMDL
MODEL 3
REMARK VINA RESULT:    -5.432      3.701      5.659
REMARK INTER + INTRA:          -7.216
REMARK INTER:                  -7.523
REMARK INTRA:                   0.308
REMARK UNBOUND:                -0.196
REMARK  Name = 
REMARK  7 active torsions:
REMARK  status: ('A' for Active; 'I' for Inactive)
REMARK    1  A    between atoms: C_1  and  C_2
REMARK    2  A    between atoms: C_2  and  C_3
REMARK    3  A    between atoms: C_5  and  N_6
REMARK    4  A    between atoms: C_5  and  C_12
REMARK    5  A    between atoms: N_6  and  C_7
REMARK    6  A    between atoms: C_7  and  C_8
REMARK    7  A    between atoms: C_16  and  C_17
REMARK                            x       y       z     vdW  Elec       q    Type
REMARK                         _______ _______ _______ _____ _____    ______ ____
ROOT
ATOM      1  C   UNL     1      45.052   3.257  11.970  0.00  0.00    +0.000 C 
ATOM      2  C   UNL     1      44.564   4.489  11.203  0.00  0.00    +0.000 C 
ATOM      3  C   UNL     1      43.777   4.062   9.962  0.00  0.00    +0.000 C 
ATOM      4  C   UNL     1      45.685   5.528  10.947  0.00  0.00    +0.000 C 
ATOM      5  C   UNL     1      45.138   6.446  12.083  0.00  0.00    +0.000 C 
ATOM      6  C   UNL     1      43.820   5.589  12.017  0.00  0.00    +0.000 C 
ENDROOT
BRANCH   5   7
ATOM      7  C   UNL     1      45.026   8.005  11.820  0.00  0.00    +0.000 A 
ATOM      8  C   UNL     1      45.899   8.939  12.395  0.00  0.00    +0.000 A 
ATOM      9  N   UNL     1      45.882  10.281  12.189  0.00  0.00    +0.000 NA
ATOM     10  C   UNL     1      44.941  10.755  11.344  0.00  0.00    +0.000 A 
ATOM     11  C   UNL     1      44.018   9.952  10.698  0.00  0.00    +0.000 A 
ATOM     12  C   UNL     1      44.074   8.572  10.951  0.00  0.00    +0.000 A 
BRANCH  11  13
ATOM     13  C   UNL     1      42.994  10.469   9.758  0.00  0.00    +0.000 C 
ATOM     14  N   UNL     1      43.311  10.622   8.437  0.00  0.00    +0.000 N 
ATOM     15  O   UNL     1      41.871  10.762  10.154  0.00  0.00    +0.000 OA
ATOM     16  H   UNL     1      44.200  10.417   8.008  0.00  0.00    +0.000 HD
ATOM     17  H   UNL     1      42.579  10.984   7.838  0.00  0.00    +0.000 HD
ENDBRANCH  11  13
ENDBRANCH   5   7
BRANCH   5  18
ATOM     18  N   UNL     1      45.663   6.134  13.426  0.00  0.00    +0.000 NA
ATOM     19  H   UNL     1      45.392   6.814  14.134  0.00  0.00    +0.000 HD
BRANCH  18  20
ATOM     20  C   UNL     1      47.064   5.690  13.632  0.00  0.00    +0.000 C 
ATOM     21  C   UNL     1      48.221   6.290  12.868  0.00  0.00    +0.000 C 
ATOM     22  C   UNL     1      47.963   6.761  14.261  0.00  0.00    +0.000 C 
BRANCH  20  23
ATOM     23  C   UNL     1      47.267   4.349  14.145  0.00  0.00    +0.000 C 
ATOM     24  N   UNL     1      47.448   3.276  14.543  0.00  0.00    +0.000 NA
ENDBRANCH  20  23
ENDBRANCH  18  20
ENDBRANCH   5  18
TORSDOF 5
ENDMDL
MODEL 4
REMARK VINA RESULT:    -5.286      2.368      5.750
REMARK INTER + INTRA:          -7.028
REMARK INTER:                  -6.851
REMARK INTRA:                  -0.177
REMARK UNBOUND:                -0.196
REMARK  Name = 
REMARK  7 active torsions:
REMARK  status: ('A' for Active; 'I' for Inactive)
REMARK    1  A    between atoms: C_1  and  C_2
REMARK    2  A    between atoms: C_2  and  C_3
REMARK    3  A    between atoms: C_5  and  N_6
REMARK    4  A    between atoms: C_5  and  C_12
REMARK    5  A    between atoms: N_6  and  C_7
REMARK    6  A    between atoms: C_7  and  C_8
REMARK    7  A    between atoms: C_16  and  C_17
REMARK                            x       y       z     vdW  Elec       q    Type
REMARK                         _______ _______ _______ _____ _____    ______ ____
ROOT
ATOM      1  C   UNL     1      49.455   8.689  13.319  0.00  0.00    +0.000 C 
ATOM      2  C   UNL     1      48.221   8.709  12.414  0.00  0.00    +0.000 C 
ATOM      3  C   UNL     1      48.084  10.075  11.738  0.00  0.00    +0.000 C 
ATOM      4  C   UNL     1      46.942   8.192  13.120  0.00  0.00    +0.000 C 
ATOM      5  C   UNL     1      47.041   6.827  12.372  0.00  0.00    +0.000 C 
ATOM      6  C   UNL     1      48.058   7.536  11.402  0.00  0.00    +0.000 C 
ENDROOT
BRANCH   5   7
ATOM      7  C   UNL     1      45.727   6.200  11.744  0.00  0.00    +0.000 A 
ATOM      8  C   UNL     1      44.449   6.731  11.966  0.00  0.00    +0.000 A 
ATOM      9  N   UNL     1      43.289   6.267  11.436  0.00  0.00    +0.000 NA
ATOM     10  C   UNL     1      43.379   5.199  10.613  0.00  0.00    +0.000 A 
ATOM     11  C   UNL     1      44.573   4.576  10.297  0.00  0.00    +0.000 A 
ATOM     12  C   UNL     1      45.743   5.091  10.877  0.00  0.00    +0.000 A 
BRANCH  11  13
ATOM     13  C   UNL     1      44.677   3.413   9.382  0.00  0.00    +0.000 C 
ATOM     14  N   UNL     1      44.506   2.151   9.878  0.00  0.00    +0.000 N 
ATOM     15  O   UNL     1      44.917   3.573   8.190  0.00  0.00    +0.000 OA
ATOM     16  H   UNL     1      44.310   1.906  10.836  0.00  0.00    +0.000 HD
ATOM     17  H   UNL     1      44.592   1.392   9.213  0.00  0.00    +0.000 HD
ENDBRANCH  11  13
ENDBRANCH   5   7
BRANCH   5  18
ATOM     18  N   UNL     1      47.883   5.821  13.047  0.00  0.00    +0.000 NA
ATOM     19  H   UNL     1      48.328   5.169  12.404  0.00  0.00    +0.000 HD
BRANCH  18  20
ATOM     20  C   UNL     1      47.429   5.122  14.275  0.00  0.00    +0.000 C 
ATOM     21  C   UNL     1      46.046   4.526  14.400  0.00  0.00    +0.000 C 
ATOM     22  C   UNL     1      47.188   3.621  14.075  0.00  0.00    +0.000 C 
BRANCH  20  23
ATOM     23  C   UNL     1      48.086   5.471  15.520  0.00  0.00    +0.000 C 
ATOM     24  N   UNL     1      48.631   5.747  16.504  0.00  0.00    +0.000 NA
ENDBRANCH  20  23
ENDBRANCH  18  20
ENDBRANCH   5  18
TORSDOF 5
ENDMDL
MODEL 5
REMARK VINA RESULT:    -5.199      3.327      5.127
REMARK INTER + INTRA:          -6.915
REMARK INTER:                  -7.164
REMARK INTRA:                   0.249
REMARK UNBOUND:                -0.196
REMARK  Name = 
REMARK  7 active torsions:
REMARK  status: ('A' for Active; 'I' for Inactive)
REMARK    1  A    between atoms: C_1  and  C_2
REMARK    2  A    between atoms: C_2  and  C_3
REMARK    3  A    between atoms: C_5  and  N_6
REMARK    4  A    between atoms: C_5  and  C_12
REMARK    5  A    between atoms: N_6  and  C_7
REMARK    6  A    between atoms: C_7  and  C_8
REMARK    7  A    between atoms: C_16  and  C_17
REMARK                            x       y       z     vdW  Elec       q    Type
REMARK                         _______ _______ _______ _____ _____    ______ ____
ROOT
ATOM      1  C   UNL     1      44.908   3.474  11.945  0.00  0.00    +0.000 C 
ATOM      2  C   UNL     1      44.581   4.764  11.189  0.00  0.00    +0.000 C 
ATOM      3  C   UNL     1      43.774   4.448   9.928  0.00  0.00    +0.000 C 
ATOM      4  C   UNL     1      45.819   5.669  10.969  0.00  0.00    +0.000 C 
ATOM      5  C   UNL     1      45.360   6.630  12.109  0.00  0.00    +0.000 C 
ATOM      6  C   UNL     1      43.953   5.932  12.007  0.00  0.00    +0.000 C 
ENDROOT
BRANCH   5   7
ATOM      7  C   UNL     1      45.435   8.195  11.869  0.00  0.00    +0.000 A 
ATOM      8  C   UNL     1      44.350   8.945  11.396  0.00  0.00    +0.000 A 
ATOM      9  N   UNL     1      44.332  10.288  11.199  0.00  0.00    +0.000 NA
ATOM     10  C   UNL     1      45.466  10.961  11.495  0.00  0.00    +0.000 A 
ATOM     11  C   UNL     1      46.613  10.355  11.976  0.00  0.00    +0.000 A 
ATOM     12  C   UNL     1      46.580   8.963  12.155  0.00  0.00    +0.000 A 
BRANCH  11  13
ATOM     13  C   UNL     1      47.853  11.094  12.316  0.00  0.00    +0.000 C 
ATOM     14  N   UNL     1      48.145  11.350  13.627  0.00  0.00    +0.000 N 
ATOM     15  O   UNL     1      48.615  11.478  11.435  0.00  0.00    +0.000 OA
ATOM     16  H   UNL     1      47.590  11.085  14.425  0.00  0.00    +0.000 HD
ATOM     17  H   UNL     1      48.999  11.863  13.805  0.00  0.00    +0.000 HD
ENDBRANCH  11  13
ENDBRANCH   5   7
BRANCH   5  18
ATOM     18  N   UNL     1      45.820   6.240  13.456  0.00  0.00    +0.000 NA
ATOM     19  H   UNL     1      45.562   6.909  14.180  0.00  0.00    +0.000 HD
BRANCH  18  20
ATOM     20  C   UNL     1      47.186   5.711  13.692  0.00  0.00    +0.000 C 
ATOM     21  C   UNL     1      48.402   6.277  12.996  0.00  0.00    +0.000 C 
ATOM     22  C   UNL     1      48.117   6.704  14.398  0.00  0.00    +0.000 C 
BRANCH  20  23
ATOM     23  C   UNL     1      47.297   4.340  14.153  0.00  0.00    +0.000 C 
ATOM     24  N   UNL     1      47.403   3.244  14.508  0.00  0.00    +0.000 NA
ENDBRANCH  20  23
ENDBRANCH  18  20
ENDBRANCH   5  18
TORSDOF 5
ENDMDL
MODEL 6
REMARK VINA RESULT:    -5.121      2.957      6.470
REMARK INTER + INTRA:          -6.814
REMARK INTER:                  -6.642
REMARK INTRA:                  -0.172
REMARK UNBOUND:                -0.196
REMARK  Name = 
REMARK  7 active torsions:
REMARK  status: ('A' for Active; 'I' for Inactive)
REMARK    1  A    between atoms: C_1  and  C_2
REMARK    2  A    between atoms: C_2  and  C_3
REMARK    3  A    between atoms: C_5  and  N_6
REMARK    4  A    between atoms: C_5  and  C_12
REMARK    5  A    between atoms: N_6  and  C_7
REMARK    6  A    between atoms: C_7  and  C_8
REMARK    7  A    between atoms: C_16  and  C_17
REMARK                            x       y       z     vdW  Elec       q    Type
REMARK                         _______ _______ _______ _____ _____    ______ ____
ROOT
ATOM      1  C   UNL     1      49.933   8.947  14.496  0.00  0.00    +0.000 C 
ATOM      2  C   UNL     1      48.867   8.454  13.515  0.00  0.00    +0.000 C 
ATOM      3  C   UNL     1      48.634   9.497  12.420  0.00  0.00    +0.000 C 
ATOM      4  C   UNL     1      47.586   7.940  14.219  0.00  0.00    +0.000 C 
ATOM      5  C   UNL     1      48.005   6.458  13.971  0.00  0.00    +0.000 C 
ATOM      6  C   UNL     1      49.043   7.021  12.930  0.00  0.00    +0.000 C 
ENDROOT
BRANCH   5   7
ATOM      7  C   UNL     1      46.915   5.430  13.454  0.00  0.00    +0.000 A 
ATOM      8  C   UNL     1      47.052   4.042  13.589  0.00  0.00    +0.000 A 
ATOM      9  N   UNL     1      46.147   3.108  13.202  0.00  0.00    +0.000 NA
ATOM     10  C   UNL     1      45.005   3.563  12.639  0.00  0.00    +0.000 A 
ATOM     11  C   UNL     1      44.729   4.905  12.448  0.00  0.00    +0.000 A 
ATOM     12  C   UNL     1      45.701   5.830  12.861  0.00  0.00    +0.000 A 
BRANCH  11  13
ATOM     13  C   UNL     1      43.470   5.407  11.845  0.00  0.00    +0.000 C 
ATOM     14  N   UNL     1      43.480   5.877  10.562  0.00  0.00    +0.000 N 
ATOM     15  O   UNL     1      42.425   5.408  12.487  0.00  0.00    +0.000 OA
ATOM     16  H   UNL     1      44.279   5.926   9.949  0.00  0.00    +0.000 HD
ATOM     17  H   UNL     1      42.597   6.214  10.199  0.00  0.00    +0.000 HD
ENDBRANCH  11  13
ENDBRANCH   5   7
BRANCH   5  18
ATOM     18  N   UNL     1      48.872   5.886  15.018  0.00  0.00    +0.000 NA
ATOM     19  H   UNL     1      49.356   5.040  14.724  0.00  0.00    +0.000 HD
BRANCH  18  20
ATOM     20  C   UNL     1      48.420   5.771  16.427  0.00  0.00    +0.000 C 
ATOM     21  C   UNL     1      47.350   4.794  16.854  0.00  0.00    +0.000 C 
ATOM     22  C   UNL     1      48.780   4.431  17.081  0.00  0.00    +0.000 C 
BRANCH  20  23
ATOM     23  C   UNL     1      48.600   6.930  17.280  0.00  0.00    +0.000 C 
ATOM     24  N   UNL     1      48.758   7.844  17.972  0.00  0.00    +0.000 NA
ENDBRANCH  20  23
ENDBRANCH  18  20
ENDBRANCH   5  18
TORSDOF 5
ENDMDL
MODEL 7
REMARK VINA RESULT:    -5.086      2.627      5.790
REMARK INTER + INTRA:          -6.769
REMARK INTER:                  -6.849
REMARK INTRA:                   0.080
REMARK UNBOUND:                -0.196
REMARK  Name = 
REMARK  7 active torsions:
REMARK  status: ('A' for Active; 'I' for Inactive)
REMARK    1  A    between atoms: C_1  and  C_2
REMARK    2  A    between atoms: C_2  and  C_3
REMARK    3  A    between atoms: C_5  and  N_6
REMARK    4  A    between atoms: C_5  and  C_12
REMARK    5  A    between atoms: N_6  and  C_7
REMARK    6  A    between atoms: C_7  and  C_8
REMARK    7  A    between atoms: C_16  and  C_17
REMARK                            x       y       z     vdW  Elec       q    Type
REMARK                         _______ _______ _______ _____ _____    ______ ____
ROOT
ATOM      1  C   UNL     1      46.615  10.406  12.107  0.00  0.00    +0.000 C 
ATOM      2  C   UNL     1      45.348   9.565  11.938  0.00  0.00    +0.000 C 
ATOM      3  C   UNL     1      44.117  10.471  11.874  0.00  0.00    +0.000 C 
ATOM      4  C   UNL     1      45.255   8.397  12.952  0.00  0.00    +0.000 C 
ATOM      5  C   UNL     1      45.669   7.368  11.856  0.00  0.00    +0.000 C 
ATOM      6  C   UNL     1      45.347   8.495  10.805  0.00  0.00    +0.000 C 
ENDROOT
BRANCH   5   7
ATOM      7  C   UNL     1      44.874   6.001  11.748  0.00  0.00    +0.000 A 
ATOM      8  C   UNL     1      43.955   5.576  12.718  0.00  0.00    +0.000 A 
ATOM      9  N   UNL     1      43.217   4.438  12.675  0.00  0.00    +0.000 NA
ATOM     10  C   UNL     1      43.380   3.648  11.591  0.00  0.00    +0.000 A 
ATOM     11  C   UNL     1      44.245   3.942  10.552  0.00  0.00    +0.000 A 
ATOM     12  C   UNL     1      44.990   5.128  10.649  0.00  0.00    +0.000 A 
BRANCH  11  13
ATOM     13  C   UNL     1      44.414   3.084   9.355  0.00  0.00    +0.000 C 
ATOM     14  N   UNL     1      44.331   3.643   8.110  0.00  0.00    +0.000 N 
ATOM     15  O   UNL     1      44.624   1.881   9.470  0.00  0.00    +0.000 OA
ATOM     16  H   UNL     1      44.159   4.614   7.901  0.00  0.00    +0.000 HD
ATOM     17  H   UNL     1      44.447   3.014   7.326  0.00  0.00    +0.000 HD
ENDBRANCH  11  13
ENDBRANCH   5   7
BRANCH   5  18
ATOM     18  N   UNL     1      47.126   7.190  11.705  0.00  0.00    +0.000 NA
ATOM     19  H   UNL     1      47.390   6.741  10.830  0.00  0.00    +0.000 HD
BRANCH  18  20
ATOM     20  C   UNL     1      47.971   6.701  12.822  0.00  0.00    +0.000 C 
ATOM     21  C   UNL     1      49.424   7.092  12.967  0.00  0.00    +0.000 C 
ATOM     22  C   UNL     1      48.406   7.804  13.795  0.00  0.00    +0.000 C 
BRANCH  20  23
ATOM     23  C   UNL     1      47.583   5.454  13.453  0.00  0.00    +0.000 C 
ATOM     24  N   UNL     1      47.267   4.450  13.936  0.00  0.00    +0.000 NA
ENDBRANCH  20  23
ENDBRANCH  18  20
ENDBRANCH   5  18
TORSDOF 5
ENDMDL
MODEL 8
REMARK VINA RESULT:    -4.876      2.865      5.028
REMARK INTER + INTRA:          -6.497
REMARK INTER:                  -6.547
REMARK INTRA:                   0.050
REMARK UNBOUND:                -0.196
REMARK  Name = 
REMARK  7 active torsions:
REMARK  status: ('A' for Active; 'I' for Inactive)
REMARK    1  A    between atoms: C_1  and  C_2
REMARK    2  A    between atoms: C_2  and  C_3
REMARK    3  A    between atoms: C_5  and  N_6
REMARK    4  A    between atoms: C_5  and  C_12
REMARK    5  A    between atoms: N_6  and  C_7
REMARK    6  A    between atoms: C_7  and  C_8
REMARK    7  A    between atoms: C_16  and  C_17
REMARK                            x       y       z     vdW  Elec       q    Type
REMARK                         _______ _______ _______ _____ _____    ______ ____
ROOT
ATOM      1  C   UNL     1      47.236   9.221  11.771  0.00  0.00    +0.000 C 
ATOM      2  C   UNL     1      48.298   8.965  12.843  0.00  0.00    +0.000 C 
ATOM      3  C   UNL     1      49.382  10.043  12.781  0.00  0.00    +0.000 C 
ATOM      4  C   UNL     1      48.819   7.506  12.844  0.00  0.00    +0.000 C 
ATOM      5  C   UNL     1      47.964   7.167  14.103  0.00  0.00    +0.000 C 
ATOM      6  C   UNL     1      47.800   8.720  14.299  0.00  0.00    +0.000 C 
ENDROOT
BRANCH   5   7
ATOM      7  C   UNL     1      48.627   6.335  15.279  0.00  0.00    +0.000 A 
ATOM      8  C   UNL     1      49.935   6.560  15.727  0.00  0.00    +0.000 A 
ATOM      9  N   UNL     1      50.553   5.910  16.746  0.00  0.00    +0.000 NA
ATOM     10  C   UNL     1      49.834   4.965  17.391  0.00  0.00    +0.000 A 
ATOM     11  C   UNL     1      48.529   4.641  17.063  0.00  0.00    +0.000 A 
ATOM     12  C   UNL     1      47.939   5.338  15.997  0.00  0.00    +0.000 A 
BRANCH  11  13
ATOM     13  C   UNL     1      47.732   3.615  17.779  0.00  0.00    +0.000 C 
ATOM     14  N   UNL     1      48.192   3.115  18.966  0.00  0.00    +0.000 N 
ATOM     15  O   UNL     1      46.671   3.210  17.317  0.00  0.00    +0.000 OA
ATOM     16  H   UNL     1      49.048   3.372  19.431  0.00  0.00    +0.000 HD
ATOM     17  H   UNL     1      47.614   2.413  19.411  0.00  0.00    +0.000 HD
ENDBRANCH  11  13
ENDBRANCH   5   7
BRANCH   5  18
ATOM     18  N   UNL     1      46.587   6.730  13.805  0.00  0.00    +0.000 NA
ATOM     19  H   UNL     1      45.979   6.722  14.623  0.00  0.00    +0.000 HD
BRANCH  18  20
ATOM     20  C   UNL     1      46.311   5.560  12.934  0.00  0.00    +0.000 C 
ATOM     21  C   UNL     1      46.714   4.155  13.318  0.00  0.00    +0.000 C 
ATOM     22  C   UNL     1      45.297   4.576  13.528  0.00  0.00    +0.000 C 
BRANCH  20  23
ATOM     23  C   UNL     1      46.154   5.812  11.514  0.00  0.00    +0.000 C 
ATOM     24  N   UNL     1      46.007   6.014  10.384  0.00  0.00    +0.000 NA
ENDBRANCH  20  23
ENDBRANCH  18  20
ENDBRANCH   5  18
TORSDOF 5
ENDMDL
MODEL 9
REMARK VINA RESULT:    -4.814      2.724      6.092
REMARK INTER + INTRA:          -6.417
REMARK INTER:                  -6.688
REMARK INTRA:                   0.271
REMARK UNBOUND:                -0.196
REMARK  Name = 
REMARK  7 active torsions:
REMARK  status: ('A' for Active; 'I' for Inactive)
REMARK    1  A    between atoms: C_1  and  C_2
REMARK    2  A    between atoms: C_2  and  C_3
REMARK    3  A    between atoms: C_5  and  N_6
REMARK    4  A    between atoms: C_5  and  C_12
REMARK    5  A    between atoms: N_6  and  C_7
REMARK    6  A    between atoms: C_7  and  C_8
REMARK    7  A    between atoms: C_16  and  C_17
REMARK                            x       y       z     vdW  Elec       q    Type
REMARK                         _______ _______ _______ _____ _____    ______ ____
ROOT
ATOM      1  C   UNL     1      48.947  10.495  13.396  0.00  0.00    +0.000 C 
ATOM      2  C   UNL     1      48.233   9.770  12.253  0.00  0.00    +0.000 C 
ATOM      3  C   UNL     1      48.596  10.411  10.912  0.00  0.00    +0.000 C 
ATOM      4  C   UNL     1      46.715   9.586  12.506  0.00  0.00    +0.000 C 
ATOM      5  C   UNL     1      46.924   8.084  12.866  0.00  0.00    +0.000 C 
ATOM      6  C   UNL     1      48.348   8.217  12.209  0.00  0.00    +0.000 C 
ENDROOT
BRANCH   5   7
ATOM      7  C   UNL     1      45.926   7.006  12.269  0.00  0.00    +0.000 A 
ATOM      8  C   UNL     1      44.715   6.664  12.888  0.00  0.00    +0.000 A 
ATOM      9  N   UNL     1      43.801   5.779  12.417  0.00  0.00    +0.000 NA
ATOM     10  C   UNL     1      44.083   5.179  11.240  0.00  0.00    +0.000 A 
ATOM     11  C   UNL     1      45.235   5.423  10.514  0.00  0.00    +0.000 A 
ATOM     12  C   UNL     1      46.152   6.343  11.047  0.00  0.00    +0.000 A 
BRANCH  11  13
ATOM     13  C   UNL     1      45.540   4.778   9.214  0.00  0.00    +0.000 C 
ATOM     14  N   UNL     1      44.975   3.570   8.914  0.00  0.00    +0.000 N 
ATOM     15  O   UNL     1      46.294   5.315   8.409  0.00  0.00    +0.000 OA
ATOM     16  H   UNL     1      44.348   3.042   9.501  0.00  0.00    +0.000 HD
ATOM     17  H   UNL     1      45.220   3.169   8.018  0.00  0.00    +0.000 HD
ENDBRANCH  11  13
ENDBRANCH   5   7
BRANCH   5  18
ATOM     18  N   UNL     1      47.243   7.836  14.286  0.00  0.00    +0.000 NA
ATOM     19  H   UNL     1      47.425   8.688  14.814  0.00  0.00    +0.000 HD
BRANCH  18  20
ATOM     20  C   UNL     1      48.169   6.753  14.700  0.00  0.00    +0.000 C 
ATOM     21  C   UNL     1      49.661   6.966  14.811  0.00  0.00    +0.000 C 
ATOM     22  C   UNL     1      48.839   7.001  16.057  0.00  0.00    +0.000 C 
BRANCH  20  23
ATOM     23  C   UNL     1      47.736   5.387  14.477  0.00  0.00    +0.000 C 
ATOM     24  N   UNL     1      47.386   4.295  14.320  0.00  0.00    +0.000 NA
ENDBRANCH  20  23
ENDBRANCH  18  20
ENDBRANCH   5  18
TORSDOF 5
ENDMDL
