MODEL 1
REMARK VINA RESULT:    -7.584      0.000      0.000
REMARK INTER + INTRA:         -11.306
REMARK INTER:                 -10.244
REMARK INTRA:                  -1.062
REMARK UNBOUND:                -1.062
REMARK  Name = 
REMARK  7 active torsions:
REMARK  status: ('A' for Active; 'I' for Inactive)
REMARK    1  A    between atoms: C_1  and  C_2
REMARK    2  A    between atoms: C_2  and  N_3
REMARK    3  A    between atoms: C_2  and  C_12
REMARK    4  A    between atoms: C_4  and  C_6
REMARK    5  A    between atoms: C_15  and  C_16
REMARK    6  A    between atoms: C_16  and  N_17
REMARK    7  A    between atoms: C_18  and  C_20
REMARK                            x       y       z     vdW  Elec       q    Type
REMARK                         _______ _______ _______ _____ _____    ______ ____
ROOT
ATOM      1  C   UNL     1      47.615   5.852  14.243  0.00  0.00    +0.000 A 
ATOM      2  C   UNL     1      47.012   4.585  14.253  0.00  0.00    +0.000 A 
ATOM      3  C   UNL     1      47.116   3.752  15.370  0.00  0.00    +0.000 A 
ATOM      4  C   UNL     1      47.820   4.173  16.506  0.00  0.00    +0.000 A 
ATOM      5  C   UNL     1      48.427   5.436  16.496  0.00  0.00    +0.000 A 
ATOM      6  C   UNL     1      48.319   6.270  15.382  0.00  0.00    +0.000 A 
ENDROOT
BRANCH   1   8
ATOM      7  C   UNL     1      48.895   7.099  12.454  0.00  0.00    +0.000 C 
ATOM      8  C   UNL     1      47.519   6.721  13.005  0.00  0.00    +0.000 C 
BRANCH   8   9
ATOM      9  N   UNL     1      46.710   6.062  11.990  0.00  0.00    +0.000 N 
ATOM     10  C   UNL     1      45.401   6.437  11.770  0.00  0.00    +0.000 C 
ATOM     11  O   UNL     1      44.846   7.297  12.448  0.00  0.00    +0.000 OA
ATOM     12  H   UNL     1      47.093   5.267  11.497  0.00  0.00    +0.000 HD
BRANCH  10  13
ATOM     13  C   UNL     1      44.701   5.673  10.618  0.00  0.00    +0.000 C 
ATOM     14  C   UNL     1      45.181   4.220  10.514  0.00  0.00    +0.000 C 
ATOM     15  C   UNL     1      44.685   3.361  11.677  0.00  0.00    +0.000 C 
ATOM     16  C   UNL     1      43.178   3.502  11.853  0.00  0.00    +0.000 C 
ATOM     17  C   UNL     1      42.741   4.965  11.896  0.00  0.00    +0.000 C 
ATOM     18  N   UNL     1      43.225   5.729  10.743  0.00  0.00    +0.000 NA
ATOM     19  H   UNL     1      42.917   6.694  10.832  0.00  0.00    +0.000 HD
ENDBRANCH  10  13
ENDBRANCH   8   9
ENDBRANCH   1   8
BRANCH   4  20
ATOM     20  C   UNL     1      47.982   3.265  17.695  0.00  0.00    +0.000 C 
BRANCH  20  21
ATOM     21  N   UNL     1      49.377   3.030  17.968  0.00  0.00    +0.000 N 
ATOM     22  C   UNL     1      50.136   2.223  17.162  0.00  0.00    +0.000 C 
ATOM     23  O   UNL     1      49.673   1.676  16.164  0.00  0.00    +0.000 OA
ATOM     24  H   UNL     1      49.718   3.281  18.890  0.00  0.00    +0.000 HD
BRANCH  22  25
ATOM     25  C   UNL     1      51.557   2.103  17.514  0.00  0.00    +0.000 A 
ATOM     26  C   UNL     1      52.117   0.844  17.686  0.00  0.00    +0.000 A 
ATOM     27  S   UNL     1      53.789   0.880  18.019  0.00  0.00    +0.000 S 
ATOM     28  C   UNL     1      53.811   2.582  18.004  0.00  0.00    +0.000 A 
ATOM     29  N   UNL     1      54.961   3.267  18.244  0.00  0.00    +0.000 NA
ATOM     30  C   UNL     1      54.826   4.551  18.238  0.00  0.00    +0.000 A 
ATOM     31  N   UNL     1      53.648   5.212  18.010  0.00  0.00    +0.000 N 
ATOM     32  C   UNL     1      52.469   4.563  17.724  0.00  0.00    +0.000 A 
ATOM     33  O   UNL     1      51.447   5.188  17.471  0.00  0.00    +0.000 OA
ATOM     34  C   UNL     1      52.563   3.115  17.732  0.00  0.00    +0.000 A 
ATOM     35  H   UNL     1      53.613   6.221  18.012  0.00  0.00    +0.000 HD
ENDBRANCH  22  25
ENDBRANCH  20  21
ENDBRANCH   4  20
TORSDOF 6
ENDMDL
MODEL 2
REMARK VINA RESULT:    -7.370      3.383      8.881
REMARK INTER + INTRA:         -11.017
REMARK INTER:                  -9.832
REMARK INTRA:                  -1.185
REMARK UNBOUND:                -1.062
REMARK  Name = 
REMARK  7 active torsions:
REMARK  status: ('A' for Active; 'I' for Inactive)
REMARK    1  A    between atoms: C_1  and  C_2
REMARK    2  A    between atoms: C_2  and  N_3
REMARK    3  A    between atoms: C_2  and  C_12
REMARK    4  A    between atoms: C_4  and  C_6
REMARK    5  A    between atoms: C_15  and  C_16
REMARK    6  A    between atoms: C_16  and  N_17
REMARK    7  A    between atoms: C_18  and  C_20
REMARK                            x       y       z     vdW  Elec       q    Type
REMARK                         _______ _______ _______ _____ _____    ______ ____
ROOT
ATOM      1  C   UNL     1      49.549   7.988  15.507  0.00  0.00    +0.000 A 
ATOM      2  C   UNL     1      50.053   7.388  14.342  0.00  0.00    +0.000 A 
ATOM      3  C   UNL     1      49.317   7.402  13.154  0.00  0.00    +0.000 A 
ATOM      4  C   UNL     1      48.064   8.026  13.104  0.00  0.00    +0.000 A 
ATOM      5  C   UNL     1      47.558   8.621  14.267  0.00  0.00    +0.000 A 
ATOM      6  C   UNL     1      48.294   8.611  15.452  0.00  0.00    +0.000 A 
ENDROOT
BRANCH   1   8
ATOM      7  C   UNL     1      50.474   9.295  17.465  0.00  0.00    +0.000 C 
ATOM      8  C   UNL     1      50.350   7.926  16.792  0.00  0.00    +0.000 C 
BRANCH   8   9
ATOM      9  N   UNL     1      49.769   6.947  17.698  0.00  0.00    +0.000 N 
ATOM     10  C   UNL     1      50.190   5.633  17.690  0.00  0.00    +0.000 C 
ATOM     11  O   UNL     1      51.025   5.221  16.890  0.00  0.00    +0.000 OA
ATOM     12  H   UNL     1      48.994   7.220  18.285  0.00  0.00    +0.000 HD
BRANCH  10  13
ATOM     13  C   UNL     1      49.510   4.736  18.755  0.00  0.00    +0.000 C 
ATOM     14  C   UNL     1      48.013   5.042  18.895  0.00  0.00    +0.000 C 
ATOM     15  C   UNL     1      47.210   4.581  17.679  0.00  0.00    +0.000 C 
ATOM     16  C   UNL     1      47.515   3.126  17.345  0.00  0.00    +0.000 C 
ATOM     17  C   UNL     1      49.016   2.857  17.270  0.00  0.00    +0.000 C 
ATOM     18  N   UNL     1      49.726   3.296  18.474  0.00  0.00    +0.000 NA
ATOM     19  H   UNL     1      50.718   3.107  18.362  0.00  0.00    +0.000 HD
ENDBRANCH  10  13
ENDBRANCH   8   9
ENDBRANCH   1   8
BRANCH   4  20
ATOM     20  C   UNL     1      47.241   8.004  11.844  0.00  0.00    +0.000 C 
BRANCH  20  21
ATOM     21  N   UNL     1      46.617   6.717  11.667  0.00  0.00    +0.000 N 
ATOM     22  C   UNL     1      45.254   6.583  11.638  0.00  0.00    +0.000 C 
ATOM     23  O   UNL     1      44.500   7.548  11.744  0.00  0.00    +0.000 OA
ATOM     24  H   UNL     1      47.199   5.898  11.801  0.00  0.00    +0.000 HD
BRANCH  22  25
ATOM     25  C   UNL     1      44.739   5.229  11.399  0.00  0.00    +0.000 A 
ATOM     26  C   UNL     1      43.993   4.594  12.384  0.00  0.00    +0.000 A 
ATOM     27  S   UNL     1      43.411   3.061  11.919  0.00  0.00    +0.000 S 
ATOM     28  C   UNL     1      44.185   3.165  10.407  0.00  0.00    +0.000 A 
ATOM     29  N   UNL     1      44.100   2.147   9.508  0.00  0.00    +0.000 NA
ATOM     30  C   UNL     1      44.764   2.344   8.418  0.00  0.00    +0.000 A 
ATOM     31  N   UNL     1      45.499   3.467   8.142  0.00  0.00    +0.000 N 
ATOM     32  C   UNL     1      45.581   4.537   9.003  0.00  0.00    +0.000 A 
ATOM     33  O   UNL     1      46.204   5.547   8.701  0.00  0.00    +0.000 OA
ATOM     34  C   UNL     1      44.863   4.361  10.252  0.00  0.00    +0.000 A 
ATOM     35  H   UNL     1      45.990   3.560   7.265  0.00  0.00    +0.000 HD
ENDBRANCH  22  25
ENDBRANCH  20  21
ENDBRANCH   4  20
TORSDOF 6
ENDMDL
MODEL 3
REMARK VINA RESULT:    -7.155      1.406      2.228
REMARK INTER + INTRA:         -10.726
REMARK INTER:                  -9.613
REMARK INTRA:                  -1.114
REMARK UNBOUND:                -1.062
REMARK  Name = 
REMARK  7 active torsions:
REMARK  status: ('A' for Active; 'I' for Inactive)
REMARK    1  A    between atoms: C_1  and  C_2
REMARK    2  A    between atoms: C_2  and  N_3
REMARK    3  A    between atoms: C_2  and  C_12
REMARK    4  A    between atoms: C_4  and  C_6
REMARK    5  A    between atoms: C_15  and  C_16
REMARK    6  A    between atoms: C_16  and  N_17
REMARK    7  A    between atoms: C_18  and  C_20
REMARK                            x       y       z     vdW  Elec       q    Type
REMARK                         _______ _______ _______ _____ _____    ______ ____
ROOT
ATOM      1  C   UNL     1      47.744   6.601  13.625  0.00  0.00    +0.000 A 
ATOM      2  C   UNL     1      47.141   5.392  14.006  0.00  0.00    +0.000 A 
ATOM      3  C   UNL     1      47.431   4.805  15.241  0.00  0.00    +0.000 A 
ATOM      4  C   UNL     1      48.326   5.420  16.125  0.00  0.00    +0.000 A 
ATOM      5  C   UNL     1      48.933   6.624  15.745  0.00  0.00    +0.000 A 
ATOM      6  C   UNL     1      48.640   7.213  14.514  0.00  0.00    +0.000 A 
ENDROOT
BRANCH   1   8
ATOM      7  C   UNL     1      48.712   7.596  11.511  0.00  0.00    +0.000 C 
ATOM      8  C   UNL     1      47.441   7.198  12.265  0.00  0.00    +0.000 C 
BRANCH   8   9
ATOM      9  N   UNL     1      46.633   6.276  11.482  0.00  0.00    +0.000 N 
ATOM     10  C   UNL     1      45.292   6.517  11.260  0.00  0.00    +0.000 C 
ATOM     11  O   UNL     1      44.714   7.481  11.752  0.00  0.00    +0.000 OA
ATOM     12  H   UNL     1      47.044   5.410  11.164  0.00  0.00    +0.000 HD
BRANCH  10  13
ATOM     13  C   UNL     1      44.593   5.468  10.359  0.00  0.00    +0.000 C 
ATOM     14  C   UNL     1      45.199   4.068  10.528  0.00  0.00    +0.000 C 
ATOM     15  C   UNL     1      44.861   3.450  11.885  0.00  0.00    +0.000 C 
ATOM     16  C   UNL     1      43.363   3.511  12.152  0.00  0.00    +0.000 C 
ATOM     17  C   UNL     1      42.795   4.910  11.919  0.00  0.00    +0.000 C 
ATOM     18  N   UNL     1      43.130   5.436  10.593  0.00  0.00    +0.000 NA
ATOM     19  H   UNL     1      42.740   6.371  10.499  0.00  0.00    +0.000 HD
ENDBRANCH  10  13
ENDBRANCH   8   9
ENDBRANCH   1   8
BRANCH   4  20
ATOM     20  C   UNL     1      48.685   4.772  17.435  0.00  0.00    +0.000 C 
BRANCH  20  21
ATOM     21  N   UNL     1      50.044   4.294  17.410  0.00  0.00    +0.000 N 
ATOM     22  C   UNL     1      50.829   4.317  18.533  0.00  0.00    +0.000 C 
ATOM     23  O   UNL     1      50.413   4.729  19.613  0.00  0.00    +0.000 OA
ATOM     24  H   UNL     1      50.472   4.164  16.501  0.00  0.00    +0.000 HD
BRANCH  22  25
ATOM     25  C   UNL     1      52.179   3.754  18.394  0.00  0.00    +0.000 A 
ATOM     26  C   UNL     1      53.281   4.519  18.753  0.00  0.00    +0.000 A 
ATOM     27  S   UNL     1      54.765   3.692  18.600  0.00  0.00    +0.000 S 
ATOM     28  C   UNL     1      53.990   2.304  17.992  0.00  0.00    +0.000 A 
ATOM     29  N   UNL     1      54.709   1.205  17.634  0.00  0.00    +0.000 NA
ATOM     30  C   UNL     1      53.999   0.239  17.155  0.00  0.00    +0.000 A 
ATOM     31  N   UNL     1      52.637   0.269  17.006  0.00  0.00    +0.000 N 
ATOM     32  C   UNL     1      51.866   1.342  17.390  0.00  0.00    +0.000 A 
ATOM     33  O   UNL     1      50.646   1.313  17.291  0.00  0.00    +0.000 OA
ATOM     34  C   UNL     1      52.618   2.463  17.922  0.00  0.00    +0.000 A 
ATOM     35  H   UNL     1      52.141  -0.526  16.630  0.00  0.00    +0.000 HD
ENDBRANCH  22  25
ENDBRANCH  20  21
ENDBRANCH   4  20
TORSDOF 6
ENDMDL
MODEL 4
REMARK VINA RESULT:    -7.071      3.340      8.697
REMARK INTER + INTRA:         -10.613
REMARK INTER:                  -9.377
REMARK INTRA:                  -1.236
REMARK UNBOUND:                -1.062
REMARK  Name = 
REMARK  7 active torsions:
REMARK  status: ('A' for Active; 'I' for Inactive)
REMARK    1  A    between atoms: C_1  and  C_2
REMARK    2  A    between atoms: C_2  and  N_3
REMARK    3  A    between atoms: C_2  and  C_12
REMARK    4  A    between atoms: C_4  and  C_6
REMARK    5  A    between atoms: C_15  and  C_16
REMARK    6  A    between atoms: C_16  and  N_17
REMARK    7  A    between atoms: C_18  and  C_20
REMARK                            x       y       z     vdW  Elec       q    Type
REMARK                         _______ _______ _______ _____ _____    ______ ____
ROOT
ATOM      1  C   UNL     1      50.269   7.390  15.510  0.00  0.00    +0.000 A 
ATOM      2  C   UNL     1      50.900   8.062  14.452  0.00  0.00    +0.000 A 
ATOM      3  C   UNL     1      50.202   8.367  13.281  0.00  0.00    +0.000 A 
ATOM      4  C   UNL     1      48.854   8.011  13.146  0.00  0.00    +0.000 A 
ATOM      5  C   UNL     1      48.224   7.336  14.199  0.00  0.00    +0.000 A 
ATOM      6  C   UNL     1      48.919   7.036  15.371  0.00  0.00    +0.000 A 
ENDROOT
BRANCH   1   8
ATOM      7  C   UNL     1      51.561   8.281  17.494  0.00  0.00    +0.000 C 
ATOM      8  C   UNL     1      51.059   7.038  16.756  0.00  0.00    +0.000 C 
BRANCH   8   9
ATOM      9  N   UNL     1      50.262   6.193  17.633  0.00  0.00    +0.000 N 
ATOM     10  C   UNL     1      50.505   4.838  17.728  0.00  0.00    +0.000 C 
ATOM     11  O   UNL     1      51.359   4.280  17.045  0.00  0.00    +0.000 OA
ATOM     12  H   UNL     1      49.472   6.594  18.117  0.00  0.00    +0.000 HD
BRANCH  10  13
ATOM     13  C   UNL     1      49.605   4.095  18.748  0.00  0.00    +0.000 C 
ATOM     14  C   UNL     1      48.326   4.881  19.066  0.00  0.00    +0.000 C 
ATOM     15  C   UNL     1      47.350   4.901  17.889  0.00  0.00    +0.000 C 
ATOM     16  C   UNL     1      47.097   3.492  17.369  0.00  0.00    +0.000 C 
ATOM     17  C   UNL     1      48.397   2.730  17.119  0.00  0.00    +0.000 C 
ATOM     18  N   UNL     1      49.278   2.724  18.290  0.00  0.00    +0.000 NA
ATOM     19  H   UNL     1      50.129   2.219  18.062  0.00  0.00    +0.000 HD
ENDBRANCH  10  13
ENDBRANCH   8   9
ENDBRANCH   1   8
BRANCH   4  20
ATOM     20  C   UNL     1      48.106   8.289  11.870  0.00  0.00    +0.000 C 
BRANCH  20  21
ATOM     21  N   UNL     1      47.451   7.097  11.395  0.00  0.00    +0.000 N 
ATOM     22  C   UNL     1      46.086   7.018  11.307  0.00  0.00    +0.000 C 
ATOM     23  O   UNL     1      45.357   7.959  11.613  0.00  0.00    +0.000 OA
ATOM     24  H   UNL     1      48.006   6.249  11.353  0.00  0.00    +0.000 HD
BRANCH  22  25
ATOM     25  C   UNL     1      45.541   5.770  10.759  0.00  0.00    +0.000 A 
ATOM     26  C   UNL     1      45.744   5.462   9.420  0.00  0.00    +0.000 A 
ATOM     27  S   UNL     1      45.111   3.946   8.964  0.00  0.00    +0.000 S 
ATOM     28  C   UNL     1      44.490   3.675  10.525  0.00  0.00    +0.000 A 
ATOM     29  N   UNL     1      43.800   2.538  10.813  0.00  0.00    +0.000 NA
ATOM     30  C   UNL     1      43.356   2.478  12.024  0.00  0.00    +0.000 A 
ATOM     31  N   UNL     1      43.543   3.448  12.974  0.00  0.00    +0.000 N 
ATOM     32  C   UNL     1      44.267   4.595  12.740  0.00  0.00    +0.000 A 
ATOM     33  O   UNL     1      44.460   5.415  13.628  0.00  0.00    +0.000 OA
ATOM     34  C   UNL     1      44.777   4.718  11.387  0.00  0.00    +0.000 A 
ATOM     35  H   UNL     1      43.175   3.336  13.907  0.00  0.00    +0.000 HD
ENDBRANCH  22  25
ENDBRANCH  20  21
ENDBRANCH   4  20
TORSDOF 6
ENDMDL
MODEL 5
REMARK VINA RESULT:    -6.920      4.006      9.001
REMARK INTER + INTRA:         -10.409
REMARK INTER:                  -9.603
REMARK INTRA:                  -0.806
REMARK UNBOUND:                -1.062
REMARK  Name = 
REMARK  7 active torsions:
REMARK  status: ('A' for Active; 'I' for Inactive)
REMARK    1  A    between atoms: C_1  and  C_2
REMARK    2  A    between atoms: C_2  and  N_3
REMARK    3  A    between atoms: C_2  and  C_12
REMARK    4  A    between atoms: C_4  and  C_6
REMARK    5  A    between atoms: C_15  and  C_16
REMARK    6  A    between atoms: C_16  and  N_17
REMARK    7  A    between atoms: C_18  and  C_20
REMARK                            x       y       z     vdW  Elec       q    Type
REMARK                         _______ _______ _______ _____ _____    ______ ____
ROOT
ATOM      1  C   UNL     1      47.481   6.515  13.792  0.00  0.00    +0.000 A 
ATOM      2  C   UNL     1      46.989   7.358  12.783  0.00  0.00    +0.000 A 
ATOM      3  C   UNL     1      46.080   6.884  11.834  0.00  0.00    +0.000 A 
ATOM      4  C   UNL     1      45.637   5.555  11.879  0.00  0.00    +0.000 A 
ATOM      5  C   UNL     1      46.130   4.711  12.882  0.00  0.00    +0.000 A 
ATOM      6  C   UNL     1      47.035   5.186  13.833  0.00  0.00    +0.000 A 
ENDROOT
BRANCH   1   8
ATOM      7  C   UNL     1      48.412   8.563  14.947  0.00  0.00    +0.000 C 
ATOM      8  C   UNL     1      48.496   7.043  14.786  0.00  0.00    +0.000 C 
BRANCH   8   9
ATOM      9  N   UNL     1      48.340   6.371  16.067  0.00  0.00    +0.000 N 
ATOM     10  C   UNL     1      49.435   5.894  16.758  0.00  0.00    +0.000 C 
ATOM     11  O   UNL     1      50.574   5.967  16.304  0.00  0.00    +0.000 OA
ATOM     12  H   UNL     1      47.410   6.184  16.414  0.00  0.00    +0.000 HD
BRANCH  10  13
ATOM     13  C   UNL     1      49.100   5.256  18.130  0.00  0.00    +0.000 C 
ATOM     14  C   UNL     1      47.593   5.024  18.304  0.00  0.00    +0.000 C 
ATOM     15  C   UNL     1      47.072   3.900  17.408  0.00  0.00    +0.000 C 
ATOM     16  C   UNL     1      47.914   2.641  17.570  0.00  0.00    +0.000 C 
ATOM     17  C   UNL     1      49.408   2.930  17.443  0.00  0.00    +0.000 C 
ATOM     18  N   UNL     1      49.852   3.997  18.345  0.00  0.00    +0.000 NA
ATOM     19  H   UNL     1      50.846   4.156  18.207  0.00  0.00    +0.000 HD
ENDBRANCH  10  13
ENDBRANCH   8   9
ENDBRANCH   1   8
BRANCH   4  20
ATOM     20  C   UNL     1      44.696   5.019  10.833  0.00  0.00    +0.000 C 
BRANCH  20  21
ATOM     21  N   UNL     1      45.382   4.106   9.954  0.00  0.00    +0.000 N 
ATOM     22  C   UNL     1      44.836   2.896   9.616  0.00  0.00    +0.000 C 
ATOM     23  O   UNL     1      43.736   2.538  10.029  0.00  0.00    +0.000 OA
ATOM     24  H   UNL     1      46.367   4.277   9.785  0.00  0.00    +0.000 HD
BRANCH  22  25
ATOM     25  C   UNL     1      45.606   2.077   8.671  0.00  0.00    +0.000 A 
ATOM     26  C   UNL     1      45.550   0.692   8.760  0.00  0.00    +0.000 A 
ATOM     27  S   UNL     1      46.441  -0.107   7.545  0.00  0.00    +0.000 S 
ATOM     28  C   UNL     1      46.981   1.370   6.894  0.00  0.00    +0.000 A 
ATOM     29  N   UNL     1      47.816   1.395   5.820  0.00  0.00    +0.000 NA
ATOM     30  C   UNL     1      48.175   2.580   5.453  0.00  0.00    +0.000 A 
ATOM     31  N   UNL     1      47.772   3.741   6.059  0.00  0.00    +0.000 N 
ATOM     32  C   UNL     1      46.899   3.767   7.121  0.00  0.00    +0.000 A 
ATOM     33  O   UNL     1      46.518   4.826   7.604  0.00  0.00    +0.000 OA
ATOM     34  C   UNL     1      46.475   2.458   7.583  0.00  0.00    +0.000 A 
ATOM     35  H   UNL     1      48.085   4.638   5.716  0.00  0.00    +0.000 HD
ENDBRANCH  22  25
ENDBRANCH  20  21
ENDBRANCH   4  20
TORSDOF 6
ENDMDL
MODEL 6
REMARK VINA RESULT:    -6.536      3.063      9.529
REMARK INTER + INTRA:          -9.890
REMARK INTER:                  -8.912
REMARK INTRA:                  -0.978
REMARK UNBOUND:                -1.062
REMARK  Name = 
REMARK  7 active torsions:
REMARK  status: ('A' for Active; 'I' for Inactive)
REMARK    1  A    between atoms: C_1  and  C_2
REMARK    2  A    between atoms: C_2  and  N_3
REMARK    3  A    between atoms: C_2  and  C_12
REMARK    4  A    between atoms: C_4  and  C_6
REMARK    5  A    between atoms: C_15  and  C_16
REMARK    6  A    between atoms: C_16  and  N_17
REMARK    7  A    between atoms: C_18  and  C_20
REMARK                            x       y       z     vdW  Elec       q    Type
REMARK                         _______ _______ _______ _____ _____    ______ ____
ROOT
ATOM      1  C   UNL     1      50.786   4.345  17.438  0.00  0.00    +0.000 A 
ATOM      2  C   UNL     1      51.600   5.387  16.968  0.00  0.00    +0.000 A 
ATOM      3  C   UNL     1      51.039   6.526  16.384  0.00  0.00    +0.000 A 
ATOM      4  C   UNL     1      49.649   6.650  16.266  0.00  0.00    +0.000 A 
ATOM      5  C   UNL     1      48.834   5.608  16.730  0.00  0.00    +0.000 A 
ATOM      6  C   UNL     1      49.395   4.473  17.317  0.00  0.00    +0.000 A 
ENDROOT
BRANCH   1   8
ATOM      7  C   UNL     1      50.938   1.822  17.351  0.00  0.00    +0.000 C 
ATOM      8  C   UNL     1      51.421   3.104  18.033  0.00  0.00    +0.000 C 
BRANCH   8   9
ATOM      9  N   UNL     1      52.871   3.209  17.985  0.00  0.00    +0.000 N 
ATOM     10  C   UNL     1      53.603   3.477  19.123  0.00  0.00    +0.000 C 
ATOM     11  O   UNL     1      53.068   3.688  20.208  0.00  0.00    +0.000 OA
ATOM     12  H   UNL     1      53.338   3.163  17.090  0.00  0.00    +0.000 HD
BRANCH  10  13
ATOM     13  C   UNL     1      55.138   3.500  18.908  0.00  0.00    +0.000 C 
ATOM     14  C   UNL     1      55.511   3.472  17.420  0.00  0.00    +0.000 C 
ATOM     15  C   UNL     1      55.172   4.784  16.713  0.00  0.00    +0.000 C 
ATOM     16  C   UNL     1      55.745   5.974  17.471  0.00  0.00    +0.000 C 
ATOM     17  C   UNL     1      55.394   5.931  18.957  0.00  0.00    +0.000 C 
ATOM     18  N   UNL     1      55.766   4.660  19.584  0.00  0.00    +0.000 NA
ATOM     19  H   UNL     1      55.497   4.682  20.564  0.00  0.00    +0.000 HD
ENDBRANCH  10  13
ENDBRANCH   8   9
ENDBRANCH   1   8
BRANCH   4  20
ATOM     20  C   UNL     1      49.035   7.848  15.594  0.00  0.00    +0.000 C 
BRANCH  20  21
ATOM     21  N   UNL     1      47.877   7.463  14.827  0.00  0.00    +0.000 N 
ATOM     22  C   UNL     1      48.000   6.838  13.614  0.00  0.00    +0.000 C 
ATOM     23  O   UNL     1      49.095   6.562  13.130  0.00  0.00    +0.000 OA
ATOM     24  H   UNL     1      46.988   7.873  15.093  0.00  0.00    +0.000 HD
BRANCH  22  25
ATOM     25  C   UNL     1      46.747   6.449  12.954  0.00  0.00    +0.000 A 
ATOM     26  C   UNL     1      45.941   7.424  12.382  0.00  0.00    +0.000 A 
ATOM     27  S   UNL     1      44.565   6.798  11.594  0.00  0.00    +0.000 S 
ATOM     28  C   UNL     1      44.967   5.206  12.040  0.00  0.00    +0.000 A 
ATOM     29  N   UNL     1      44.171   4.161  11.689  0.00  0.00    +0.000 NA
ATOM     30  C   UNL     1      44.575   3.014  12.123  0.00  0.00    +0.000 A 
ATOM     31  N   UNL     1      45.705   2.817  12.872  0.00  0.00    +0.000 N 
ATOM     32  C   UNL     1      46.561   3.837  13.218  0.00  0.00    +0.000 A 
ATOM     33  O   UNL     1      47.591   3.616  13.843  0.00  0.00    +0.000 OA
ATOM     34  C   UNL     1      46.144   5.151  12.766  0.00  0.00    +0.000 A 
ATOM     35  H   UNL     1      45.969   1.890  13.175  0.00  0.00    +0.000 HD
ENDBRANCH  22  25
ENDBRANCH  20  21
ENDBRANCH   4  20
TORSDOF 6
ENDMDL
MODEL 7
REMARK VINA RESULT:    -6.474      3.414      5.305
REMARK INTER + INTRA:          -9.807
REMARK INTER:                  -9.433
REMARK INTRA:                  -0.374
REMARK UNBOUND:                -1.062
REMARK  Name = 
REMARK  7 active torsions:
REMARK  status: ('A' for Active; 'I' for Inactive)
REMARK    1  A    between atoms: C_1  and  C_2
REMARK    2  A    between atoms: C_2  and  N_3
REMARK    3  A    between atoms: C_2  and  C_12
REMARK    4  A    between atoms: C_4  and  C_6
REMARK    5  A    between atoms: C_15  and  C_16
REMARK    6  A    between atoms: C_16  and  N_17
REMARK    7  A    between atoms: C_18  and  C_20
REMARK                            x       y       z     vdW  Elec       q    Type
REMARK                         _______ _______ _______ _____ _____    ______ ____
ROOT
ATOM      1  C   UNL     1      45.142   5.243  12.202  0.00  0.00    +0.000 A 
ATOM      2  C   UNL     1      45.654   6.258  11.379  0.00  0.00    +0.000 A 
ATOM      3  C   UNL     1      46.885   6.855  11.661  0.00  0.00    +0.000 A 
ATOM      4  C   UNL     1      47.635   6.444  12.771  0.00  0.00    +0.000 A 
ATOM      5  C   UNL     1      47.123   5.434  13.596  0.00  0.00    +0.000 A 
ATOM      6  C   UNL     1      45.896   4.834  13.311  0.00  0.00    +0.000 A 
ENDROOT
BRANCH   1   8
ATOM      7  C   UNL     1      42.639   5.603  12.193  0.00  0.00    +0.000 C 
ATOM      8  C   UNL     1      43.787   4.637  11.895  0.00  0.00    +0.000 C 
BRANCH   8   9
ATOM      9  N   UNL     1      43.742   4.180  10.514  0.00  0.00    +0.000 N 
ATOM     10  C   UNL     1      44.468   3.080  10.104  0.00  0.00    +0.000 C 
ATOM     11  O   UNL     1      45.218   2.475  10.865  0.00  0.00    +0.000 OA
ATOM     12  H   UNL     1      43.234   4.725   9.832  0.00  0.00    +0.000 HD
BRANCH  10  13
ATOM     13  C   UNL     1      44.265   2.695   8.617  0.00  0.00    +0.000 C 
ATOM     14  C   UNL     1      44.781   3.783   7.665  0.00  0.00    +0.000 C 
ATOM     15  C   UNL     1      46.307   3.872   7.660  0.00  0.00    +0.000 C 
ATOM     16  C   UNL     1      46.931   2.502   7.429  0.00  0.00    +0.000 C 
ATOM     17  C   UNL     1      46.349   1.442   8.362  0.00  0.00    +0.000 C 
ATOM     18  N   UNL     1      44.885   1.387   8.303  0.00  0.00    +0.000 NA
ATOM     19  H   UNL     1      44.554   0.677   8.951  0.00  0.00    +0.000 HD
ENDBRANCH  10  13
ENDBRANCH   8   9
ENDBRANCH   1   8
BRANCH   4  20
ATOM     20  C   UNL     1      48.938   7.114  13.114  0.00  0.00    +0.000 C 
BRANCH  20  21
ATOM     21  N   UNL     1      49.197   7.027  14.529  0.00  0.00    +0.000 N 
ATOM     22  C   UNL     1      48.685   7.946  15.406  0.00  0.00    +0.000 C 
ATOM     23  O   UNL     1      47.971   8.875  15.036  0.00  0.00    +0.000 OA
ATOM     24  H   UNL     1      49.950   6.416  14.825  0.00  0.00    +0.000 HD
BRANCH  22  25
ATOM     25  C   UNL     1      48.975   7.719  16.828  0.00  0.00    +0.000 A 
ATOM     26  C   UNL     1      49.264   8.801  17.650  0.00  0.00    +0.000 A 
ATOM     27  S   UNL     1      49.504   8.374  19.283  0.00  0.00    +0.000 S 
ATOM     28  C   UNL     1      49.290   6.721  18.938  0.00  0.00    +0.000 A 
ATOM     29  N   UNL     1      49.390   5.785  19.920  0.00  0.00    +0.000 NA
ATOM     30  C   UNL     1      49.241   4.569  19.513  0.00  0.00    +0.000 A 
ATOM     31  N   UNL     1      48.997   4.203  18.215  0.00  0.00    +0.000 N 
ATOM     32  C   UNL     1      48.849   5.116  17.196  0.00  0.00    +0.000 A 
ATOM     33  O   UNL     1      48.578   4.757  16.057  0.00  0.00    +0.000 OA
ATOM     34  C   UNL     1      49.022   6.500  17.599  0.00  0.00    +0.000 A 
ATOM     35  H   UNL     1      48.883   3.232  17.964  0.00  0.00    +0.000 HD
ENDBRANCH  22  25
ENDBRANCH  20  21
ENDBRANCH   4  20
TORSDOF 6
ENDMDL
MODEL 8
REMARK VINA RESULT:    -6.300      3.409      4.552
REMARK INTER + INTRA:          -9.572
REMARK INTER:                  -9.244
REMARK INTRA:                  -0.328
REMARK UNBOUND:                -1.062
REMARK  Name = 
REMARK  7 active torsions:
REMARK  status: ('A' for Active; 'I' for Inactive)
REMARK    1  A    between atoms: C_1  and  C_2
REMARK    2  A    between atoms: C_2  and  N_3
REMARK    3  A    between atoms: C_2  and  C_12
REMARK    4  A    between atoms: C_4  and  C_6
REMARK    5  A    between atoms: C_15  and  C_16
REMARK    6  A    between atoms: C_16  and  N_17
REMARK    7  A    between atoms: C_18  and  C_20
REMARK                            x       y       z     vdW  Elec       q    Type
REMARK                         _______ _______ _______ _____ _____    ______ ____
ROOT
ATOM      1  C   UNL     1      45.164   5.131  12.245  0.00  0.00    +0.000 A 
ATOM      2  C   UNL     1      45.980   5.901  13.088  0.00  0.00    +0.000 A 
ATOM      3  C   UNL     1      46.841   5.290  14.004  0.00  0.00    +0.000 A 
ATOM      4  C   UNL     1      46.908   3.893  14.090  0.00  0.00    +0.000 A 
ATOM      5  C   UNL     1      46.091   3.123  13.252  0.00  0.00    +0.000 A 
ATOM      6  C   UNL     1      45.235   3.734  12.334  0.00  0.00    +0.000 A 
ENDROOT
BRANCH   1   8
ATOM      7  C   UNL     1      44.713   7.202  10.864  0.00  0.00    +0.000 C 
ATOM      8  C   UNL     1      44.212   5.819  11.286  0.00  0.00    +0.000 C 
BRANCH   8   9
ATOM      9  N   UNL     1      43.969   4.973  10.127  0.00  0.00    +0.000 N 
ATOM     10  C   UNL     1      44.941   4.787   9.166  0.00  0.00    +0.000 C 
ATOM     11  O   UNL     1      46.025   5.362   9.216  0.00  0.00    +0.000 OA
ATOM     12  H   UNL     1      43.048   4.582   9.989  0.00  0.00    +0.000 HD
BRANCH  10  13
ATOM     13  C   UNL     1      44.541   3.814   8.029  0.00  0.00    +0.000 C 
ATOM     14  C   UNL     1      45.651   3.665   6.981  0.00  0.00    +0.000 C 
ATOM     15  C   UNL     1      46.855   2.890   7.516  0.00  0.00    +0.000 C 
ATOM     16  C   UNL     1      46.417   1.573   8.144  0.00  0.00    +0.000 C 
ATOM     17  C   UNL     1      45.275   1.763   9.139  0.00  0.00    +0.000 C 
ATOM     18  N   UNL     1      44.141   2.489   8.560  0.00  0.00    +0.000 NA
ATOM     19  H   UNL     1      43.421   2.599   9.268  0.00  0.00    +0.000 HD
ENDBRANCH  10  13
ENDBRANCH   8   9
ENDBRANCH   1   8
BRANCH   4  20
ATOM     20  C   UNL     1      47.794   3.224  15.107  0.00  0.00    +0.000 C 
BRANCH  20  21
ATOM     21  N   UNL     1      47.778   3.951  16.351  0.00  0.00    +0.000 N 
ATOM     22  C   UNL     1      48.831   3.892  17.225  0.00  0.00    +0.000 C 
ATOM     23  O   UNL     1      49.840   3.232  16.988  0.00  0.00    +0.000 OA
ATOM     24  H   UNL     1      46.884   4.312  16.665  0.00  0.00    +0.000 HD
BRANCH  22  25
ATOM     25  C   UNL     1      48.719   4.718  18.434  0.00  0.00    +0.000 A 
ATOM     26  C   UNL     1      48.650   4.107  19.679  0.00  0.00    +0.000 A 
ATOM     27  S   UNL     1      48.598   5.208  20.979  0.00  0.00    +0.000 S 
ATOM     28  C   UNL     1      48.606   6.541  19.921  0.00  0.00    +0.000 A 
ATOM     29  N   UNL     1      48.556   7.813  20.401  0.00  0.00    +0.000 NA
ATOM     30  C   UNL     1      48.532   8.726  19.488  0.00  0.00    +0.000 A 
ATOM     31  N   UNL     1      48.559   8.483  18.140  0.00  0.00    +0.000 N 
ATOM     32  C   UNL     1      48.649   7.217  17.609  0.00  0.00    +0.000 A 
ATOM     33  O   UNL     1      48.725   7.040  16.400  0.00  0.00    +0.000 OA
ATOM     34  C   UNL     1      48.665   6.151  18.595  0.00  0.00    +0.000 A 
ATOM     35  H   UNL     1      48.545   9.245  17.477  0.00  0.00    +0.000 HD
ENDBRANCH  22  25
ENDBRANCH  20  21
ENDBRANCH   4  20
TORSDOF 6
ENDMDL
MODEL 9
REMARK VINA RESULT:    -6.010      1.712      2.234
REMARK INTER + INTRA:          -9.179
REMARK INTER:                  -8.331
REMARK INTRA:                  -0.848
REMARK UNBOUND:                -1.062
REMARK  Name = 
REMARK  7 active torsions:
REMARK  status: ('A' for Active; 'I' for Inactive)
REMARK    1  A    between atoms: C_1  and  C_2
REMARK    2  A    between atoms: C_2  and  N_3
REMARK    3  A    between atoms: C_2  and  C_12
REMARK    4  A    between atoms: C_4  and  C_6
REMARK    5  A    between atoms: C_15  and  C_16
REMARK    6  A    between atoms: C_16  and  N_17
REMARK    7  A    between atoms: C_18  and  C_20
REMARK                            x       y       z     vdW  Elec       q    Type
REMARK                         _______ _______ _______ _____ _____    ______ ____
ROOT
ATOM      1  C   UNL     1      48.218   7.324  13.792  0.00  0.00    +0.000 A 
ATOM      2  C   UNL     1      47.879   6.132  14.450  0.00  0.00    +0.000 A 
ATOM      3  C   UNL     1      48.276   5.906  15.771  0.00  0.00    +0.000 A 
ATOM      4  C   UNL     1      49.016   6.873  16.464  0.00  0.00    +0.000 A 
ATOM      5  C   UNL     1      49.359   8.062  15.807  0.00  0.00    +0.000 A 
ATOM      6  C   UNL     1      48.958   8.290  14.490  0.00  0.00    +0.000 A 
ENDROOT
BRANCH   1   8
ATOM      7  C   UNL     1      49.009   7.766  11.431  0.00  0.00    +0.000 C 
ATOM      8  C   UNL     1      47.807   7.529  12.347  0.00  0.00    +0.000 C 
BRANCH   8   9
ATOM      9  N   UNL     1      47.011   6.401  11.887  0.00  0.00    +0.000 N 
ATOM     10  C   UNL     1      45.743   6.587  11.375  0.00  0.00    +0.000 C 
ATOM     11  O   UNL     1      45.213   7.694  11.335  0.00  0.00    +0.000 OA
ATOM     12  H   UNL     1      47.365   5.464  12.018  0.00  0.00    +0.000 HD
BRANCH  10  13
ATOM     13  C   UNL     1      45.055   5.290  10.879  0.00  0.00    +0.000 C 
ATOM     14  C   UNL     1      45.184   4.146  11.894  0.00  0.00    +0.000 C 
ATOM     15  C   UNL     1      44.333   4.380  13.142  0.00  0.00    +0.000 C 
ATOM     16  C   UNL     1      42.895   4.713  12.766  0.00  0.00    +0.000 C 
ATOM     17  C   UNL     1      42.819   5.818  11.714  0.00  0.00    +0.000 C 
ATOM     18  N   UNL     1      43.634   5.525  10.532  0.00  0.00    +0.000 NA
ATOM     19  H   UNL     1      43.556   6.297   9.876  0.00  0.00    +0.000 HD
ENDBRANCH  10  13
ENDBRANCH   8   9
ENDBRANCH   1   8
BRANCH   4  20
ATOM     20  C   UNL     1      49.492   6.620  17.869  0.00  0.00    +0.000 C 
BRANCH  20  21
ATOM     21  N   UNL     1      50.058   5.300  17.984  0.00  0.00    +0.000 N 
ATOM     22  C   UNL     1      51.333   5.031  17.561  0.00  0.00    +0.000 C 
ATOM     23  O   UNL     1      52.058   5.898  17.081  0.00  0.00    +0.000 OA
ATOM     24  H   UNL     1      49.416   4.535  18.163  0.00  0.00    +0.000 HD
BRANCH  22  25
ATOM     25  C   UNL     1      51.814   3.661  17.780  0.00  0.00    +0.000 A 
ATOM     26  C   UNL     1      51.078   2.589  17.291  0.00  0.00    +0.000 A 
ATOM     27  S   UNL     1      51.812   1.074  17.565  0.00  0.00    +0.000 S 
ATOM     28  C   UNL     1      53.110   1.794  18.399  0.00  0.00    +0.000 A 
ATOM     29  N   UNL     1      54.107   1.033  18.926  0.00  0.00    +0.000 NA
ATOM     30  C   UNL     1      55.008   1.705  19.562  0.00  0.00    +0.000 A 
ATOM     31  N   UNL     1      55.005   3.066  19.715  0.00  0.00    +0.000 N 
ATOM     32  C   UNL     1      54.040   3.879  19.167  0.00  0.00    +0.000 A 
ATOM     33  O   UNL     1      54.098   5.097  19.279  0.00  0.00    +0.000 OA
ATOM     34  C   UNL     1      52.994   3.171  18.452  0.00  0.00    +0.000 A 
ATOM     35  H   UNL     1      55.746   3.531  20.220  0.00  0.00    +0.000 HD
ENDBRANCH  22  25
ENDBRANCH  20  21
ENDBRANCH   4  20
TORSDOF 6
ENDMDL
