MODEL 1
REMARK VINA RESULT:    -9.027      0.000      0.000
REMARK INTER + INTRA:         -12.808
REMARK INTER:                 -12.193
REMARK INTRA:                  -0.615
REMARK UNBOUND:                -0.615
REMARK  Name = 
REMARK  6 active torsions:
REMARK  status: ('A' for Active; 'I' for Inactive)
REMARK    1  A    between atoms: C_2  and  C_20
REMARK    2  A    between atoms: N_3  and  C_4
REMARK    3  A    between atoms: C_4  and  C_5
REMARK    4  A    between atoms: C_9  and  C_10
REMARK    5  A    between atoms: C_10  and  N_11
REMARK    6  A    between atoms: C_12  and  C_14
REMARK                            x       y       z     vdW  Elec       q    Type
REMARK                         _______ _______ _______ _____ _____    ______ ____
ROOT
ATOM      1  C   UNL     1      46.054   4.619  13.169  0.00  0.00    +0.000 A 
ATOM      2  C   UNL     1      46.379   5.975  13.270  0.00  0.00    +0.000 A 
ATOM      3  C   UNL     1      45.844   6.852  12.340  0.00  0.00    +0.000 A 
ATOM      4  N   UNL     1      45.026   6.479  11.331  0.00  0.00    +0.000 NA
ATOM      5  C   UNL     1      44.725   5.159  11.232  0.00  0.00    +0.000 A 
ATOM      6  C   UNL     1      45.237   4.208  12.113  0.00  0.00    +0.000 A 
ENDROOT
BRANCH   1   7
ATOM      7  C   UNL     1      46.558   3.613  14.169  0.00  0.00    +0.000 C 
BRANCH   7  10
ATOM      8  O   UNL     1      46.558   3.263  16.957  0.00  0.00    +0.000 OA
ATOM      9  C   UNL     1      47.448   3.931  16.441  0.00  0.00    +0.000 C 
ATOM     10  N   UNL     1      47.491   4.194  15.094  0.00  0.00    +0.000 N 
ATOM     11  H   UNL     1      48.324   4.612  14.694  0.00  0.00    +0.000 HD
BRANCH   9  12
ATOM     12  C   UNL     1      48.515   4.536  17.241  0.00  0.00    +0.000 A 
ATOM     13  C   UNL     1      48.347   5.804  17.784  0.00  0.00    +0.000 A 
ATOM     14  S   UNL     1      49.685   6.329  18.703  0.00  0.00    +0.000 S 
ATOM     15  C   UNL     1      50.518   4.873  18.425  0.00  0.00    +0.000 A 
ATOM     16  N   UNL     1      51.744   4.646  18.975  0.00  0.00    +0.000 NA
ATOM     17  C   UNL     1      52.235   3.480  18.719  0.00  0.00    +0.000 A 
ATOM     18  N   UNL     1      51.619   2.521  17.948  0.00  0.00    +0.000 N 
ATOM     19  C   UNL     1      50.436   2.745  17.296  0.00  0.00    +0.000 A 
ATOM     20  O   UNL     1      50.012   1.942  16.474  0.00  0.00    +0.000 OA
ATOM     21  C   UNL     1      49.803   4.013  17.611  0.00  0.00    +0.000 A 
ATOM     22  H   UNL     1      52.082   1.649  17.748  0.00  0.00    +0.000 HD
ENDBRANCH   9  12
ENDBRANCH   7  10
ENDBRANCH   1   7
BRANCH   5  23
ATOM     23  C   UNL     1      43.767   4.743  10.142  0.00  0.00    +0.000 C 
BRANCH  23  24
ATOM     24  N   UNL     1      44.344   3.834   9.182  0.00  0.00    +0.000 N 
ATOM     25  C   UNL     1      45.447   4.143   8.425  0.00  0.00    +0.000 C 
ATOM     26  O   UNL     1      46.025   5.224   8.480  0.00  0.00    +0.000 OA
ATOM     27  H   UNL     1      43.821   3.013   8.889  0.00  0.00    +0.000 HD
BRANCH  25  28
ATOM     28  C   UNL     1      45.941   2.990   7.539  0.00  0.00    +0.000 C 
ATOM     29  C   UNL     1      46.109   1.691   8.300  0.00  0.00    +0.000 C 
ATOM     30  C   UNL     1      47.030   0.895   7.395  0.00  0.00    +0.000 C 
ATOM     31  C   UNL     1      47.888   1.939   6.696  0.00  0.00    +0.000 C 
ATOM     32  N   UNL     1      47.302   3.247   6.999  0.00  0.00    +0.000 NA
ATOM     33  H   UNL     1      47.224   3.809   6.151  0.00  0.00    +0.000 HD
ENDBRANCH  25  28
ENDBRANCH  23  24
ENDBRANCH   5  23
TORSDOF 6
ENDMDL
MODEL 2
REMARK VINA RESULT:    -8.517      1.784      2.133
REMARK INTER + INTRA:         -12.120
REMARK INTER:                 -11.348
REMARK INTRA:                  -0.772
REMARK UNBOUND:                -0.615
REMARK  Name = 
REMARK  6 active torsions:
REMARK  status: ('A' for Active; 'I' for Inactive)
REMARK    1  A    between atoms: C_2  and  C_20
REMARK    2  A    between atoms: N_3  and  C_4
REMARK    3  A    between atoms: C_4  and  C_5
REMARK    4  A    between atoms: C_9  and  C_10
REMARK    5  A    between atoms: C_10  and  N_11
REMARK    6  A    between atoms: C_12  and  C_14
REMARK                            x       y       z     vdW  Elec       q    Type
REMARK                         _______ _______ _______ _____ _____    ______ ____
ROOT
ATOM      1  C   UNL     1      46.159   4.909  13.051  0.00  0.00    +0.000 A 
ATOM      2  C   UNL     1      46.414   6.283  13.060  0.00  0.00    +0.000 A 
ATOM      3  C   UNL     1      45.795   7.075  12.105  0.00  0.00    +0.000 A 
ATOM      4  N   UNL     1      44.960   6.601  11.155  0.00  0.00    +0.000 NA
ATOM      5  C   UNL     1      44.728   5.263  11.145  0.00  0.00    +0.000 A 
ATOM      6  C   UNL     1      45.324   4.394  12.056  0.00  0.00    +0.000 A 
ENDROOT
BRANCH   1   7
ATOM      7  C   UNL     1      46.756   3.991  14.084  0.00  0.00    +0.000 C 
BRANCH   7  10
ATOM      8  O   UNL     1      48.284   2.948  16.199  0.00  0.00    +0.000 OA
ATOM      9  C   UNL     1      47.950   4.128  16.231  0.00  0.00    +0.000 C 
ATOM     10  N   UNL     1      47.160   4.701  15.266  0.00  0.00    +0.000 N 
ATOM     11  H   UNL     1      47.043   5.709  15.250  0.00  0.00    +0.000 HD
BRANCH   9  12
ATOM     12  C   UNL     1      48.341   5.005  17.336  0.00  0.00    +0.000 A 
ATOM     13  C   UNL     1      47.901   4.740  18.628  0.00  0.00    +0.000 A 
ATOM     14  S   UNL     1      48.479   5.856  19.782  0.00  0.00    +0.000 S 
ATOM     15  C   UNL     1      49.351   6.712  18.600  0.00  0.00    +0.000 A 
ATOM     16  N   UNL     1      50.118   7.789  18.932  0.00  0.00    +0.000 NA
ATOM     17  C   UNL     1      50.762   8.309  17.941  0.00  0.00    +0.000 A 
ATOM     18  N   UNL     1      50.698   7.862  16.642  0.00  0.00    +0.000 N 
ATOM     19  C   UNL     1      49.864   6.849  16.249  0.00  0.00    +0.000 A 
ATOM     20  O   UNL     1      49.696   6.601  15.061  0.00  0.00    +0.000 OA
ATOM     21  C   UNL     1      49.174   6.178  17.336  0.00  0.00    +0.000 A 
ATOM     22  H   UNL     1      51.189   8.346  15.908  0.00  0.00    +0.000 HD
ENDBRANCH   9  12
ENDBRANCH   7  10
ENDBRANCH   1   7
BRANCH   5  23
ATOM     23  C   UNL     1      43.751   4.734  10.122  0.00  0.00    +0.000 C 
BRANCH  23  24
ATOM     24  N   UNL     1      44.344   3.821   9.177  0.00  0.00    +0.000 N 
ATOM     25  C   UNL     1      45.410   4.154   8.378  0.00  0.00    +0.000 C 
ATOM     26  O   UNL     1      45.937   5.262   8.380  0.00  0.00    +0.000 OA
ATOM     27  H   UNL     1      43.852   2.966   8.926  0.00  0.00    +0.000 HD
BRANCH  25  28
ATOM     28  C   UNL     1      45.933   2.995   7.517  0.00  0.00    +0.000 C 
ATOM     29  C   UNL     1      46.077   1.702   8.291  0.00  0.00    +0.000 C 
ATOM     30  C   UNL     1      47.027   0.900   7.422  0.00  0.00    +0.000 C 
ATOM     31  C   UNL     1      47.907   1.940   6.745  0.00  0.00    +0.000 C 
ATOM     32  N   UNL     1      47.310   3.250   7.020  0.00  0.00    +0.000 NA
ATOM     33  H   UNL     1      47.260   3.806   6.166  0.00  0.00    +0.000 HD
ENDBRANCH  25  28
ENDBRANCH  23  24
ENDBRANCH   5  23
TORSDOF 6
ENDMDL
MODEL 3
REMARK VINA RESULT:    -8.462      2.262      3.105
REMARK INTER + INTRA:         -12.045
REMARK INTER:                 -10.838
REMARK INTRA:                  -1.208
REMARK UNBOUND:                -0.615
REMARK  Name = 
REMARK  6 active torsions:
REMARK  status: ('A' for Active; 'I' for Inactive)
REMARK    1  A    between atoms: C_2  and  C_20
REMARK    2  A    between atoms: N_3  and  C_4
REMARK    3  A    between atoms: C_4  and  C_5
REMARK    4  A    between atoms: C_9  and  C_10
REMARK    5  A    between atoms: C_10  and  N_11
REMARK    6  A    between atoms: C_12  and  C_14
REMARK                            x       y       z     vdW  Elec       q    Type
REMARK                         _______ _______ _______ _____ _____    ______ ____
ROOT
ATOM      1  C   UNL     1      47.307   7.743  12.116  0.00  0.00    +0.000 A 
ATOM      2  C   UNL     1      46.625   8.946  12.323  0.00  0.00    +0.000 A 
ATOM      3  C   UNL     1      45.258   8.975  12.102  0.00  0.00    +0.000 A 
ATOM      4  N   UNL     1      44.534   7.911  11.691  0.00  0.00    +0.000 NA
ATOM      5  C   UNL     1      45.205   6.749  11.479  0.00  0.00    +0.000 A 
ATOM      6  C   UNL     1      46.583   6.639  11.658  0.00  0.00    +0.000 A 
ENDROOT
BRANCH   1   7
ATOM      7  C   UNL     1      48.784   7.620  12.380  0.00  0.00    +0.000 C 
BRANCH   7  10
ATOM      8  O   UNL     1      48.781   8.551  15.031  0.00  0.00    +0.000 OA
ATOM      9  C   UNL     1      48.988   7.360  14.818  0.00  0.00    +0.000 C 
ATOM     10  N   UNL     1      49.058   6.836  13.552  0.00  0.00    +0.000 N 
ATOM     11  H   UNL     1      49.071   5.829  13.429  0.00  0.00    +0.000 HD
BRANCH   9  12
ATOM     12  C   UNL     1      49.218   6.415  15.912  0.00  0.00    +0.000 A 
ATOM     13  C   UNL     1      50.249   6.632  16.817  0.00  0.00    +0.000 A 
ATOM     14  S   UNL     1      50.344   5.438  18.033  0.00  0.00    +0.000 S 
ATOM     15  C   UNL     1      49.000   4.610  17.403  0.00  0.00    +0.000 A 
ATOM     16  N   UNL     1      48.515   3.489  18.009  0.00  0.00    +0.000 NA
ATOM     17  C   UNL     1      47.462   2.995  17.449  0.00  0.00    +0.000 A 
ATOM     18  N   UNL     1      46.855   3.509  16.327  0.00  0.00    +0.000 N 
ATOM     19  C   UNL     1      47.367   4.571  15.631  0.00  0.00    +0.000 A 
ATOM     20  O   UNL     1      46.908   4.884  14.539  0.00  0.00    +0.000 OA
ATOM     21  C   UNL     1      48.508   5.213  16.259  0.00  0.00    +0.000 A 
ATOM     22  H   UNL     1      46.063   3.043  15.913  0.00  0.00    +0.000 HD
ENDBRANCH   9  12
ENDBRANCH   7  10
ENDBRANCH   1   7
BRANCH   5  23
ATOM     23  C   UNL     1      44.396   5.541  11.075  0.00  0.00    +0.000 C 
BRANCH  23  24
ATOM     24  N   UNL     1      44.913   4.862   9.912  0.00  0.00    +0.000 N 
ATOM     25  C   UNL     1      44.545   3.586   9.562  0.00  0.00    +0.000 C 
ATOM     26  O   UNL     1      43.763   2.904  10.217  0.00  0.00    +0.000 OA
ATOM     27  H   UNL     1      45.729   5.236   9.433  0.00  0.00    +0.000 HD
BRANCH  25  28
ATOM     28  C   UNL     1      45.150   3.102   8.236  0.00  0.00    +0.000 C 
ATOM     29  C   UNL     1      46.030   1.881   8.399  0.00  0.00    +0.000 C 
ATOM     30  C   UNL     1      46.862   1.902   7.131  0.00  0.00    +0.000 C 
ATOM     31  C   UNL     1      46.993   3.376   6.775  0.00  0.00    +0.000 C 
ATOM     32  N   UNL     1      46.069   4.109   7.645  0.00  0.00    +0.000 NA
ATOM     33  H   UNL     1      45.525   4.781   7.103  0.00  0.00    +0.000 HD
ENDBRANCH  25  28
ENDBRANCH  23  24
ENDBRANCH   5  23
TORSDOF 6
ENDMDL
MODEL 4
REMARK VINA RESULT:    -8.406      1.957      2.443
REMARK INTER + INTRA:         -11.970
REMARK INTER:                 -10.951
REMARK INTRA:                  -1.019
REMARK UNBOUND:                -0.615
REMARK  Name = 
REMARK  6 active torsions:
REMARK  status: ('A' for Active; 'I' for Inactive)
REMARK    1  A    between atoms: C_2  and  C_20
REMARK    2  A    between atoms: N_3  and  C_4
REMARK    3  A    between atoms: C_4  and  C_5
REMARK    4  A    between atoms: C_9  and  C_10
REMARK    5  A    between atoms: C_10  and  N_11
REMARK    6  A    between atoms: C_12  and  C_14
REMARK                            x       y       z     vdW  Elec       q    Type
REMARK                         _______ _______ _______ _____ _____    ______ ____
ROOT
ATOM      1  C   UNL     1      46.756   5.570  13.073  0.00  0.00    +0.000 A 
ATOM      2  C   UNL     1      46.877   4.334  13.714  0.00  0.00    +0.000 A 
ATOM      3  C   UNL     1      46.130   3.268  13.238  0.00  0.00    +0.000 A 
ATOM      4  N   UNL     1      45.281   3.347  12.189  0.00  0.00    +0.000 NA
ATOM      5  C   UNL     1      45.159   4.555  11.580  0.00  0.00    +0.000 A 
ATOM      6  C   UNL     1      45.858   5.682  12.008  0.00  0.00    +0.000 A 
ENDROOT
BRANCH   1   7
ATOM      7  C   UNL     1      47.569   6.762  13.503  0.00  0.00    +0.000 C 
BRANCH   7  10
ATOM      8  O   UNL     1      50.104   6.994  14.693  0.00  0.00    +0.000 OA
ATOM      9  C   UNL     1      49.114   6.913  15.412  0.00  0.00    +0.000 C 
ATOM     10  N   UNL     1      47.847   6.744  14.912  0.00  0.00    +0.000 N 
ATOM     11  H   UNL     1      47.049   6.842  15.532  0.00  0.00    +0.000 HD
BRANCH   9  12
ATOM     12  C   UNL     1      49.222   6.949  16.872  0.00  0.00    +0.000 A 
ATOM     13  C   UNL     1      49.562   8.131  17.518  0.00  0.00    +0.000 A 
ATOM     14  S   UNL     1      49.615   7.983  19.217  0.00  0.00    +0.000 S 
ATOM     15  C   UNL     1      49.163   6.346  19.144  0.00  0.00    +0.000 A 
ATOM     16  N   UNL     1      48.986   5.612  20.279  0.00  0.00    +0.000 NA
ATOM     17  C   UNL     1      48.596   4.399  20.073  0.00  0.00    +0.000 A 
ATOM     18  N   UNL     1      48.381   3.844  18.833  0.00  0.00    +0.000 N 
ATOM     19  C   UNL     1      48.643   4.513  17.668  0.00  0.00    +0.000 A 
ATOM     20  O   UNL     1      48.618   3.930  16.590  0.00  0.00    +0.000 OA
ATOM     21  C   UNL     1      49.012   5.907  17.841  0.00  0.00    +0.000 A 
ATOM     22  H   UNL     1      48.124   2.874  18.743  0.00  0.00    +0.000 HD
ENDBRANCH   9  12
ENDBRANCH   7  10
ENDBRANCH   1   7
BRANCH   5  23
ATOM     23  C   UNL     1      44.257   4.637  10.373  0.00  0.00    +0.000 C 
BRANCH  23  24
ATOM     24  N   UNL     1      44.689   3.811   9.272  0.00  0.00    +0.000 N 
ATOM     25  C   UNL     1      45.656   4.197   8.377  0.00  0.00    +0.000 C 
ATOM     26  O   UNL     1      46.221   5.286   8.419  0.00  0.00    +0.000 OA
ATOM     27  H   UNL     1      44.137   2.999   9.005  0.00  0.00    +0.000 HD
BRANCH  25  28
ATOM     28  C   UNL     1      46.020   3.119   7.345  0.00  0.00    +0.000 C 
ATOM     29  C   UNL     1      46.365   1.788   7.979  0.00  0.00    +0.000 C 
ATOM     30  C   UNL     1      47.133   1.087   6.875  0.00  0.00    +0.000 C 
ATOM     31  C   UNL     1      47.817   2.206   6.103  0.00  0.00    +0.000 C 
ATOM     32  N   UNL     1      47.252   3.467   6.590  0.00  0.00    +0.000 NA
ATOM     33  H   UNL     1      47.003   4.073   5.807  0.00  0.00    +0.000 HD
ENDBRANCH  25  28
ENDBRANCH  23  24
ENDBRANCH   5  23
TORSDOF 6
ENDMDL
MODEL 5
REMARK VINA RESULT:    -8.324      2.121      2.931
REMARK INTER + INTRA:         -11.859
REMARK INTER:                 -11.110
REMARK INTRA:                  -0.749
REMARK UNBOUND:                -0.615
REMARK  Name = 
REMARK  6 active torsions:
REMARK  status: ('A' for Active; 'I' for Inactive)
REMARK    1  A    between atoms: C_2  and  C_20
REMARK    2  A    between atoms: N_3  and  C_4
REMARK    3  A    between atoms: C_4  and  C_5
REMARK    4  A    between atoms: C_9  and  C_10
REMARK    5  A    between atoms: C_10  and  N_11
REMARK    6  A    between atoms: C_12  and  C_14
REMARK                            x       y       z     vdW  Elec       q    Type
REMARK                         _______ _______ _______ _____ _____    ______ ____
ROOT
ATOM      1  C   UNL     1      45.101   6.477  11.839  0.00  0.00    +0.000 A 
ATOM      2  C   UNL     1      43.895   7.181  11.793  0.00  0.00    +0.000 A 
ATOM      3  C   UNL     1      42.739   6.489  11.472  0.00  0.00    +0.000 A 
ATOM      4  N   UNL     1      42.701   5.168  11.193  0.00  0.00    +0.000 NA
ATOM      5  C   UNL     1      43.878   4.492  11.226  0.00  0.00    +0.000 A 
ATOM      6  C   UNL     1      45.089   5.116  11.520  0.00  0.00    +0.000 A 
ENDROOT
BRANCH   1   7
ATOM      7  C   UNL     1      46.391   7.150  12.225  0.00  0.00    +0.000 C 
BRANCH   7  10
ATOM      8  O   UNL     1      49.032   6.613  13.022  0.00  0.00    +0.000 OA
ATOM      9  C   UNL     1      48.138   6.581  13.862  0.00  0.00    +0.000 C 
ATOM     10  N   UNL     1      46.818   6.779  13.546  0.00  0.00    +0.000 N 
ATOM     11  H   UNL     1      46.140   6.902  14.291  0.00  0.00    +0.000 HD
BRANCH   9  12
ATOM     12  C   UNL     1      48.419   6.285  15.268  0.00  0.00    +0.000 A 
ATOM     13  C   UNL     1      49.085   7.214  16.058  0.00  0.00    +0.000 A 
ATOM     14  S   UNL     1      49.298   6.702  17.671  0.00  0.00    +0.000 S 
ATOM     15  C   UNL     1      48.488   5.237  17.372  0.00  0.00    +0.000 A 
ATOM     16  N   UNL     1      48.283   4.329  18.367  0.00  0.00    +0.000 NA
ATOM     17  C   UNL     1      47.612   3.287  18.006  0.00  0.00    +0.000 A 
ATOM     18  N   UNL     1      47.138   3.060  16.735  0.00  0.00    +0.000 N 
ATOM     19  C   UNL     1      47.407   3.897  15.686  0.00  0.00    +0.000 A 
ATOM     20  O   UNL     1      47.129   3.572  14.538  0.00  0.00    +0.000 OA
ATOM     21  C   UNL     1      48.094   5.123  16.051  0.00  0.00    +0.000 A 
ATOM     22  H   UNL     1      46.663   2.200  16.511  0.00  0.00    +0.000 HD
ENDBRANCH   9  12
ENDBRANCH   7  10
ENDBRANCH   1   7
BRANCH   5  23
ATOM     23  C   UNL     1      43.836   3.005  10.971  0.00  0.00    +0.000 C 
BRANCH  23  24
ATOM     24  N   UNL     1      44.910   2.533  10.133  0.00  0.00    +0.000 N 
ATOM     25  C   UNL     1      45.105   2.968   8.845  0.00  0.00    +0.000 C 
ATOM     26  O   UNL     1      44.372   3.779   8.287  0.00  0.00    +0.000 OA
ATOM     27  H   UNL     1      45.432   1.703  10.404  0.00  0.00    +0.000 HD
BRANCH  25  28
ATOM     28  C   UNL     1      46.364   2.399   8.176  0.00  0.00    +0.000 C 
ATOM     29  C   UNL     1      46.513   2.831   6.732  0.00  0.00    +0.000 C 
ATOM     30  C   UNL     1      47.480   1.803   6.178  0.00  0.00    +0.000 C 
ATOM     31  C   UNL     1      47.207   0.538   6.979  0.00  0.00    +0.000 C 
ATOM     32  N   UNL     1      46.325   0.917   8.086  0.00  0.00    +0.000 NA
ATOM     33  H   UNL     1      46.662   0.520   8.964  0.00  0.00    +0.000 HD
ENDBRANCH  25  28
ENDBRANCH  23  24
ENDBRANCH   5  23
TORSDOF 6
ENDMDL
MODEL 6
REMARK VINA RESULT:    -8.256      3.478      8.546
REMARK INTER + INTRA:         -11.767
REMARK INTER:                 -10.757
REMARK INTRA:                  -1.011
REMARK UNBOUND:                -0.615
REMARK  Name = 
REMARK  6 active torsions:
REMARK  status: ('A' for Active; 'I' for Inactive)
REMARK    1  A    between atoms: C_2  and  C_20
REMARK    2  A    between atoms: N_3  and  C_4
REMARK    3  A    between atoms: C_4  and  C_5
REMARK    4  A    between atoms: C_9  and  C_10
REMARK    5  A    between atoms: C_10  and  N_11
REMARK    6  A    between atoms: C_12  and  C_14
REMARK                            x       y       z     vdW  Elec       q    Type
REMARK                         _______ _______ _______ _____ _____    ______ ____
ROOT
ATOM      1  C   UNL     1      48.782   6.838  16.488  0.00  0.00    +0.000 A 
ATOM      2  C   UNL     1      48.947   7.545  17.683  0.00  0.00    +0.000 A 
ATOM      3  C   UNL     1      48.957   6.835  18.873  0.00  0.00    +0.000 A 
ATOM      4  N   UNL     1      48.811   5.495  18.956  0.00  0.00    +0.000 NA
ATOM      5  C   UNL     1      48.639   4.816  17.792  0.00  0.00    +0.000 A 
ATOM      6  C   UNL     1      48.596   5.455  16.555  0.00  0.00    +0.000 A 
ENDROOT
BRANCH   1   7
ATOM      7  C   UNL     1      48.807   7.533  15.153  0.00  0.00    +0.000 C 
BRANCH   7  10
ATOM      8  O   UNL     1      48.617   5.907  12.869  0.00  0.00    +0.000 OA
ATOM      9  C   UNL     1      47.601   6.431  13.314  0.00  0.00    +0.000 C 
ATOM     10  N   UNL     1      47.616   7.280  14.392  0.00  0.00    +0.000 N 
ATOM     11  H   UNL     1      46.739   7.560  14.819  0.00  0.00    +0.000 HD
BRANCH   9  12
ATOM     12  C   UNL     1      46.293   6.217  12.691  0.00  0.00    +0.000 A 
ATOM     13  C   UNL     1      45.604   7.284  12.129  0.00  0.00    +0.000 A 
ATOM     14  S   UNL     1      44.113   6.835  11.431  0.00  0.00    +0.000 S 
ATOM     15  C   UNL     1      44.352   5.201  11.835  0.00  0.00    +0.000 A 
ATOM     16  N   UNL     1      43.444   4.248  11.484  0.00  0.00    +0.000 NA
ATOM     17  C   UNL     1      43.780   3.045  11.814  0.00  0.00    +0.000 A 
ATOM     18  N   UNL     1      44.936   2.708  12.478  0.00  0.00    +0.000 N 
ATOM     19  C   UNL     1      45.825   3.643  12.937  0.00  0.00    +0.000 A 
ATOM     20  O   UNL     1      46.744   3.323  13.681  0.00  0.00    +0.000 OA
ATOM     21  C   UNL     1      45.534   5.006  12.527  0.00  0.00    +0.000 A 
ATOM     22  H   UNL     1      45.113   1.754  12.748  0.00  0.00    +0.000 HD
ENDBRANCH   9  12
ENDBRANCH   7  10
ENDBRANCH   1   7
BRANCH   5  23
ATOM     23  C   UNL     1      48.532   3.313  17.872  0.00  0.00    +0.000 C 
BRANCH  23  24
ATOM     24  N   UNL     1      49.784   2.661  18.173  0.00  0.00    +0.000 N 
ATOM     25  C   UNL     1      50.472   1.901  17.260  0.00  0.00    +0.000 C 
ATOM     26  O   UNL     1      50.075   1.689  16.118  0.00  0.00    +0.000 OA
ATOM     27  H   UNL     1      50.087   2.576  19.140  0.00  0.00    +0.000 HD
BRANCH  25  28
ATOM     28  C   UNL     1      51.825   1.383  17.771  0.00  0.00    +0.000 C 
ATOM     29  C   UNL     1      52.854   2.481  17.937  0.00  0.00    +0.000 C 
ATOM     30  C   UNL     1      54.160   1.711  17.954  0.00  0.00    +0.000 C 
ATOM     31  C   UNL     1      53.907   0.494  17.075  0.00  0.00    +0.000 C 
ATOM     32  N   UNL     1      52.468   0.458  16.801  0.00  0.00    +0.000 NA
ATOM     33  H   UNL     1      52.101  -0.484  16.944  0.00  0.00    +0.000 HD
ENDBRANCH  25  28
ENDBRANCH  23  24
ENDBRANCH   5  23
TORSDOF 6
ENDMDL
MODEL 7
REMARK VINA RESULT:    -7.972      2.543      3.279
REMARK INTER + INTRA:         -11.384
REMARK INTER:                 -10.685
REMARK INTRA:                  -0.699
REMARK UNBOUND:                -0.615
REMARK  Name = 
REMARK  6 active torsions:
REMARK  status: ('A' for Active; 'I' for Inactive)
REMARK    1  A    between atoms: C_2  and  C_20
REMARK    2  A    between atoms: N_3  and  C_4
REMARK    3  A    between atoms: C_4  and  C_5
REMARK    4  A    between atoms: C_9  and  C_10
REMARK    5  A    between atoms: C_10  and  N_11
REMARK    6  A    between atoms: C_12  and  C_14
REMARK                            x       y       z     vdW  Elec       q    Type
REMARK                         _______ _______ _______ _____ _____    ______ ____
ROOT
ATOM      1  C   UNL     1      45.689   6.217  12.702  0.00  0.00    +0.000 A 
ATOM      2  C   UNL     1      46.162   5.104  13.401  0.00  0.00    +0.000 A 
ATOM      3  C   UNL     1      45.800   3.843  12.956  0.00  0.00    +0.000 A 
ATOM      4  N   UNL     1      45.010   3.616  11.884  0.00  0.00    +0.000 NA
ATOM      5  C   UNL     1      44.543   4.703  11.217  0.00  0.00    +0.000 A 
ATOM      6  C   UNL     1      44.841   6.006  11.611  0.00  0.00    +0.000 A 
ENDROOT
BRANCH   1   7
ATOM      7  C   UNL     1      46.076   7.618  13.096  0.00  0.00    +0.000 C 
BRANCH   7  10
ATOM      8  O   UNL     1      48.611   7.482  11.892  0.00  0.00    +0.000 OA
ATOM      9  C   UNL     1      48.536   7.632  13.108  0.00  0.00    +0.000 C 
ATOM     10  N   UNL     1      47.339   7.655  13.779  0.00  0.00    +0.000 N 
ATOM     11  H   UNL     1      47.319   7.939  14.753  0.00  0.00    +0.000 HD
BRANCH   9  12
ATOM     12  C   UNL     1      49.734   7.756  13.939  0.00  0.00    +0.000 A 
ATOM     13  C   UNL     1      50.768   8.600  13.553  0.00  0.00    +0.000 A 
ATOM     14  S   UNL     1      52.066   8.630  14.660  0.00  0.00    +0.000 S 
ATOM     15  C   UNL     1      51.279   7.539  15.699  0.00  0.00    +0.000 A 
ATOM     16  N   UNL     1      51.842   7.160  16.881  0.00  0.00    +0.000 NA
ATOM     17  C   UNL     1      51.110   6.367  17.589  0.00  0.00    +0.000 A 
ATOM     18  N   UNL     1      49.870   5.901  17.217  0.00  0.00    +0.000 N 
ATOM     19  C   UNL     1      49.314   6.176  15.996  0.00  0.00    +0.000 A 
ATOM     20  O   UNL     1      48.298   5.599  15.626  0.00  0.00    +0.000 OA
ATOM     21  C   UNL     1      50.060   7.127  15.191  0.00  0.00    +0.000 A 
ATOM     22  H   UNL     1      49.373   5.244  17.796  0.00  0.00    +0.000 HD
ENDBRANCH   9  12
ENDBRANCH   7  10
ENDBRANCH   1   7
BRANCH   5  23
ATOM     23  C   UNL     1      43.706   4.458   9.985  0.00  0.00    +0.000 C 
BRANCH  23  24
ATOM     24  N   UNL     1      44.364   3.641   8.995  0.00  0.00    +0.000 N 
ATOM     25  C   UNL     1      45.457   4.064   8.279  0.00  0.00    +0.000 C 
ATOM     26  O   UNL     1      45.957   5.178   8.403  0.00  0.00    +0.000 OA
ATOM     27  H   UNL     1      43.904   2.803   8.648  0.00  0.00    +0.000 HD
BRANCH  25  28
ATOM     28  C   UNL     1      46.048   2.995   7.348  0.00  0.00    +0.000 C 
ATOM     29  C   UNL     1      46.270   1.666   8.040  0.00  0.00    +0.000 C 
ATOM     30  C   UNL     1      47.265   0.980   7.124  0.00  0.00    +0.000 C 
ATOM     31  C   UNL     1      48.080   2.111   6.515  0.00  0.00    +0.000 C 
ATOM     32  N   UNL     1      47.406   3.363   6.871  0.00  0.00    +0.000 NA
ATOM     33  H   UNL     1      47.320   3.967   6.053  0.00  0.00    +0.000 HD
ENDBRANCH  25  28
ENDBRANCH  23  24
ENDBRANCH   5  23
TORSDOF 6
ENDMDL
MODEL 8
REMARK VINA RESULT:    -7.834      3.312      8.786
REMARK INTER + INTRA:         -11.198
REMARK INTER:                 -10.162
REMARK INTRA:                  -1.036
REMARK UNBOUND:                -0.615
REMARK  Name = 
REMARK  6 active torsions:
REMARK  status: ('A' for Active; 'I' for Inactive)
REMARK    1  A    between atoms: C_2  and  C_20
REMARK    2  A    between atoms: N_3  and  C_4
REMARK    3  A    between atoms: C_4  and  C_5
REMARK    4  A    between atoms: C_9  and  C_10
REMARK    5  A    between atoms: C_10  and  N_11
REMARK    6  A    between atoms: C_12  and  C_14
REMARK                            x       y       z     vdW  Elec       q    Type
REMARK                         _______ _______ _______ _____ _____    ______ ____
ROOT
ATOM      1  C   UNL     1      48.562   7.071  14.370  0.00  0.00    +0.000 A 
ATOM      2  C   UNL     1      49.818   7.601  14.680  0.00  0.00    +0.000 A 
ATOM      3  C   UNL     1      50.545   7.017  15.705  0.00  0.00    +0.000 A 
ATOM      4  N   UNL     1      50.115   5.964  16.434  0.00  0.00    +0.000 NA
ATOM      5  C   UNL     1      48.889   5.463  16.136  0.00  0.00    +0.000 A 
ATOM      6  C   UNL     1      48.084   6.003  15.135  0.00  0.00    +0.000 A 
ENDROOT
BRANCH   1   7
ATOM      7  C   UNL     1      47.733   7.621  13.241  0.00  0.00    +0.000 C 
BRANCH   7  10
ATOM      8  O   UNL     1      45.653   7.989  11.388  0.00  0.00    +0.000 OA
ATOM      9  C   UNL     1      46.073   6.855  11.594  0.00  0.00    +0.000 C 
ATOM     10  N   UNL     1      47.048   6.583  12.521  0.00  0.00    +0.000 N 
ATOM     11  H   UNL     1      47.473   5.662  12.543  0.00  0.00    +0.000 HD
BRANCH   9  12
ATOM     12  C   UNL     1      45.525   5.695  10.888  0.00  0.00    +0.000 A 
ATOM     13  C   UNL     1      45.789   5.511   9.536  0.00  0.00    +0.000 A 
ATOM     14  S   UNL     1      45.088   4.094   8.896  0.00  0.00    +0.000 S 
ATOM     15  C   UNL     1      44.433   3.669  10.406  0.00  0.00    +0.000 A 
ATOM     16  N   UNL     1      43.728   2.514  10.569  0.00  0.00    +0.000 NA
ATOM     17  C   UNL     1      43.333   2.298  11.779  0.00  0.00    +0.000 A 
ATOM     18  N   UNL     1      43.564   3.139  12.842  0.00  0.00    +0.000 N 
ATOM     19  C   UNL     1      44.179   4.354  12.703  0.00  0.00    +0.000 A 
ATOM     20  O   UNL     1      44.203   5.154  13.630  0.00  0.00    +0.000 OA
ATOM     21  C   UNL     1      44.711   4.614  11.377  0.00  0.00    +0.000 A 
ATOM     22  H   UNL     1      43.184   2.932  13.752  0.00  0.00    +0.000 HD
ENDBRANCH   9  12
ENDBRANCH   7  10
ENDBRANCH   1   7
BRANCH   5  23
ATOM     23  C   UNL     1      48.426   4.250  16.907  0.00  0.00    +0.000 C 
BRANCH  23  24
ATOM     24  N   UNL     1      49.501   3.520  17.533  0.00  0.00    +0.000 N 
ATOM     25  C   UNL     1      49.993   2.337  17.038  0.00  0.00    +0.000 C 
ATOM     26  O   UNL     1      49.548   1.786  16.035  0.00  0.00    +0.000 OA
ATOM     27  H   UNL     1      49.786   3.757  18.480  0.00  0.00    +0.000 HD
BRANCH  25  28
ATOM     28  C   UNL     1      51.198   1.787  17.814  0.00  0.00    +0.000 C 
ATOM     29  C   UNL     1      52.305   2.806  17.986  0.00  0.00    +0.000 C 
ATOM     30  C   UNL     1      53.507   1.937  18.306  0.00  0.00    +0.000 C 
ATOM     31  C   UNL     1      53.249   0.629  17.571  0.00  0.00    +0.000 C 
ATOM     32  N   UNL     1      51.867   0.676  17.088  0.00  0.00    +0.000 NA
ATOM     33  H   UNL     1      51.385  -0.199  17.298  0.00  0.00    +0.000 HD
ENDBRANCH  25  28
ENDBRANCH  23  24
ENDBRANCH   5  23
TORSDOF 6
ENDMDL
MODEL 9
REMARK VINA RESULT:    -7.619      3.725      7.991
REMARK INTER + INTRA:         -10.907
REMARK INTER:                  -9.540
REMARK INTRA:                  -1.367
REMARK UNBOUND:                -0.615
REMARK  Name = 
REMARK  6 active torsions:
REMARK  status: ('A' for Active; 'I' for Inactive)
REMARK    1  A    between atoms: C_2  and  C_20
REMARK    2  A    between atoms: N_3  and  C_4
REMARK    3  A    between atoms: C_4  and  C_5
REMARK    4  A    between atoms: C_9  and  C_10
REMARK    5  A    between atoms: C_10  and  N_11
REMARK    6  A    between atoms: C_12  and  C_14
REMARK                            x       y       z     vdW  Elec       q    Type
REMARK                         _______ _______ _______ _____ _____    ______ ____
ROOT
ATOM      1  C   UNL     1      48.727   3.865  17.005  0.00  0.00    +0.000 A 
ATOM      2  C   UNL     1      49.522   2.866  17.573  0.00  0.00    +0.000 A 
ATOM      3  C   UNL     1      50.849   3.157  17.849  0.00  0.00    +0.000 A 
ATOM      4  N   UNL     1      51.430   4.350  17.600  0.00  0.00    +0.000 NA
ATOM      5  C   UNL     1      50.654   5.312  17.037  0.00  0.00    +0.000 A 
ATOM      6  C   UNL     1      49.318   5.097  16.708  0.00  0.00    +0.000 A 
ENDROOT
BRANCH   1   7
ATOM      7  C   UNL     1      47.266   3.641  16.719  0.00  0.00    +0.000 C 
BRANCH   7  10
ATOM      8  O   UNL     1      47.177   3.216  13.942  0.00  0.00    +0.000 OA
ATOM      9  C   UNL     1      46.710   4.254  14.402  0.00  0.00    +0.000 C 
ATOM     10  N   UNL     1      46.762   4.561  15.738  0.00  0.00    +0.000 N 
ATOM     11  H   UNL     1      46.226   5.348  16.090  0.00  0.00    +0.000 HD
BRANCH   9  12
ATOM     12  C   UNL     1      46.097   5.266  13.539  0.00  0.00    +0.000 A 
ATOM     13  C   UNL     1      46.788   6.430  13.227  0.00  0.00    +0.000 A 
ATOM     14  S   UNL     1      45.923   7.475  12.193  0.00  0.00    +0.000 S 
ATOM     15  C   UNL     1      44.611   6.397  12.109  0.00  0.00    +0.000 A 
ATOM     16  N   UNL     1      43.521   6.672  11.340  0.00  0.00    +0.000 NA
ATOM     17  C   UNL     1      42.625   5.742  11.335  0.00  0.00    +0.000 A 
ATOM     18  N   UNL     1      42.711   4.565  12.042  0.00  0.00    +0.000 N 
ATOM     19  C   UNL     1      43.740   4.295  12.904  0.00  0.00    +0.000 A 
ATOM     20  O   UNL     1      43.692   3.326  13.653  0.00  0.00    +0.000 OA
ATOM     21  C   UNL     1      44.813   5.273  12.891  0.00  0.00    +0.000 A 
ATOM     22  H   UNL     1      41.952   3.903  12.031  0.00  0.00    +0.000 HD
ENDBRANCH   9  12
ENDBRANCH   7  10
ENDBRANCH   1   7
BRANCH   5  23
ATOM     23  C   UNL     1      51.281   6.667  16.809  0.00  0.00    +0.000 C 
BRANCH  23  24
ATOM     24  N   UNL     1      51.137   7.148  15.456  0.00  0.00    +0.000 N 
ATOM     25  C   UNL     1      50.343   8.216  15.120  0.00  0.00    +0.000 C 
ATOM     26  O   UNL     1      49.669   8.841  15.933  0.00  0.00    +0.000 OA
ATOM     27  H   UNL     1      51.460   6.574  14.681  0.00  0.00    +0.000 HD
BRANCH  25  28
ATOM     28  C   UNL     1      50.417   8.609  13.637  0.00  0.00    +0.000 C 
ATOM     29  C   UNL     1      49.193   9.364  13.163  0.00  0.00    +0.000 C 
ATOM     30  C   UNL     1      49.266   9.200  11.658  0.00  0.00    +0.000 C 
ATOM     31  C   UNL     1      49.941   7.853  11.444  0.00  0.00    +0.000 C 
ATOM     32  N   UNL     1      50.448   7.418  12.748  0.00  0.00    +0.000 NA
ATOM     33  H   UNL     1      51.410   7.088  12.666  0.00  0.00    +0.000 HD
ENDBRANCH  25  28
ENDBRANCH  23  24
ENDBRANCH   5  23
TORSDOF 6
ENDMDL
