MODEL 1
REMARK VINA RESULT:    -8.891      0.000      0.000
REMARK INTER + INTRA:         -11.969
REMARK INTER:                 -11.490
REMARK INTRA:                  -0.479
REMARK UNBOUND:                -0.479
REMARK  Name = 
REMARK  5 active torsions:
REMARK  status: ('A' for Active; 'I' for Inactive)
REMARK    1  A    between atoms: C_2  and  C_18
REMARK    2  A    between atoms: N_3  and  C_4
REMARK    3  A    between atoms: C_4  and  C_5
REMARK    4  A    between atoms: C_8  and  O_9
REMARK    5  A    between atoms: O_9  and  C_10
REMARK                            x       y       z     vdW  Elec       q    Type
REMARK                         _______ _______ _______ _____ _____    ______ ____
ROOT
ATOM      1  O   UNL     1      46.317   3.519  13.880  0.00  0.00    +0.000 OA
ATOM      2  C   UNL     1      46.299   4.740  14.022  0.00  0.00    +0.000 C 
ATOM      3  N   UNL     1      45.212   5.496  13.659  0.00  0.00    +0.000 N 
ATOM      4  H   UNL     1      45.338   6.495  13.522  0.00  0.00    +0.000 HD
ENDROOT
BRANCH   2   5
ATOM      5  C   UNL     1      47.419   5.454  14.646  0.00  0.00    +0.000 A 
ATOM      6  C   UNL     1      48.081   6.450  13.939  0.00  0.00    +0.000 A 
ATOM      7  S   UNL     1      49.383   7.146  14.795  0.00  0.00    +0.000 S 
ATOM      8  C   UNL     1      49.075   6.179  16.162  0.00  0.00    +0.000 A 
ATOM      9  N   UNL     1      49.832   6.293  17.286  0.00  0.00    +0.000 NA
ATOM     10  C   UNL     1      49.463   5.525  18.256  0.00  0.00    +0.000 A 
ATOM     11  N   UNL     1      48.408   4.654  18.204  0.00  0.00    +0.000 N 
ATOM     12  C   UNL     1      47.646   4.472  17.076  0.00  0.00    +0.000 A 
ATOM     13  O   UNL     1      46.752   3.633  17.039  0.00  0.00    +0.000 OA
ATOM     14  C   UNL     1      48.004   5.326  15.957  0.00  0.00    +0.000 A 
ATOM     15  H   UNL     1      48.172   4.075  18.994  0.00  0.00    +0.000 HD
ENDBRANCH   2   5
BRANCH   3  16
ATOM     16  C   UNL     1      44.121   4.900  12.923  0.00  0.00    +0.000 C 
BRANCH  16  17
ATOM     17  C   UNL     1      44.459   4.714  11.462  0.00  0.00    +0.000 A 
ATOM     18  C   UNL     1      45.406   5.530  10.847  0.00  0.00    +0.000 A 
ATOM     19  C   UNL     1      45.681   5.348   9.491  0.00  0.00    +0.000 A 
ATOM     20  C   UNL     1      45.061   4.313   8.796  0.00  0.00    +0.000 A 
ATOM     21  C   UNL     1      44.133   3.548   9.487  0.00  0.00    +0.000 A 
ATOM     22  N   UNL     1      43.823   3.718  10.795  0.00  0.00    +0.000 NA
BRANCH  20  23
ATOM     23  O   UNL     1      45.238   4.027   7.466  0.00  0.00    +0.000 OA
BRANCH  23  24
ATOM     24  C   UNL     1      46.212   3.140   7.070  0.00  0.00    +0.000 A 
ATOM     25  C   UNL     1      46.559   1.987   7.771  0.00  0.00    +0.000 A 
ATOM     26  C   UNL     1      47.574   1.197   7.262  0.00  0.00    +0.000 A 
ATOM     27  N   UNL     1      48.210   1.450   6.099  0.00  0.00    +0.000 NA
ATOM     28  C   UNL     1      47.809   2.539   5.408  0.00  0.00    +0.000 A 
ATOM     29  C   UNL     1      46.824   3.406   5.849  0.00  0.00    +0.000 A 
ENDBRANCH  23  24
ENDBRANCH  20  23
ENDBRANCH  16  17
ENDBRANCH   3  16
TORSDOF 5
ENDMDL
MODEL 2
REMARK VINA RESULT:    -8.437      1.571      2.187
REMARK INTER + INTRA:         -11.383
REMARK INTER:                 -10.937
REMARK INTRA:                  -0.445
REMARK UNBOUND:                -0.479
REMARK  Name = 
REMARK  5 active torsions:
REMARK  status: ('A' for Active; 'I' for Inactive)
REMARK    1  A    between atoms: C_2  and  C_18
REMARK    2  A    between atoms: N_3  and  C_4
REMARK    3  A    between atoms: C_4  and  C_5
REMARK    4  A    between atoms: C_8  and  O_9
REMARK    5  A    between atoms: O_9  and  C_10
REMARK                            x       y       z     vdW  Elec       q    Type
REMARK                         _______ _______ _______ _____ _____    ______ ____
ROOT
ATOM      1  O   UNL     1      48.192   7.184  12.432  0.00  0.00    +0.000 OA
ATOM      2  C   UNL     1      47.532   6.867  13.418  0.00  0.00    +0.000 C 
ATOM      3  N   UNL     1      46.162   6.789  13.380  0.00  0.00    +0.000 N 
ATOM      4  H   UNL     1      45.649   6.810  14.257  0.00  0.00    +0.000 HD
ENDROOT
BRANCH   2   5
ATOM      5  C   UNL     1      48.178   6.491  14.683  0.00  0.00    +0.000 A 
ATOM      6  C   UNL     1      49.140   7.324  15.239  0.00  0.00    +0.000 A 
ATOM      7  S   UNL     1      49.818   6.718  16.683  0.00  0.00    +0.000 S 
ATOM      8  C   UNL     1      48.810   5.345  16.645  0.00  0.00    +0.000 A 
ATOM      9  N   UNL     1      48.868   4.407  17.628  0.00  0.00    +0.000 NA
ATOM     10  C   UNL     1      48.023   3.441  17.491  0.00  0.00    +0.000 A 
ATOM     11  N   UNL     1      47.128   3.327  16.461  0.00  0.00    +0.000 N 
ATOM     12  C   UNL     1      47.067   4.224  15.423  0.00  0.00    +0.000 A 
ATOM     13  O   UNL     1      46.302   4.057  14.478  0.00  0.00    +0.000 OA
ATOM     14  C   UNL     1      47.984   5.346  15.535  0.00  0.00    +0.000 A 
ATOM     15  H   UNL     1      46.496   2.544  16.404  0.00  0.00    +0.000 HD
ENDBRANCH   2   5
BRANCH   3  16
ATOM     16  C   UNL     1      45.436   7.262  12.223  0.00  0.00    +0.000 C 
BRANCH  16  17
ATOM     17  C   UNL     1      45.136   6.146  11.250  0.00  0.00    +0.000 A 
ATOM     18  C   UNL     1      44.036   5.315  11.445  0.00  0.00    +0.000 A 
ATOM     19  C   UNL     1      43.798   4.279  10.540  0.00  0.00    +0.000 A 
ATOM     20  C   UNL     1      44.617   4.140   9.423  0.00  0.00    +0.000 A 
ATOM     21  C   UNL     1      45.689   5.013   9.305  0.00  0.00    +0.000 A 
ATOM     22  N   UNL     1      45.963   6.009  10.182  0.00  0.00    +0.000 NA
BRANCH  20  23
ATOM     23  O   UNL     1      44.497   3.168   8.462  0.00  0.00    +0.000 OA
BRANCH  23  24
ATOM     24  C   UNL     1      45.618   2.652   7.853  0.00  0.00    +0.000 A 
ATOM     25  C   UNL     1      46.408   3.346   6.939  0.00  0.00    +0.000 A 
ATOM     26  C   UNL     1      47.497   2.691   6.392  0.00  0.00    +0.000 A 
ATOM     27  N   UNL     1      47.869   1.440   6.732  0.00  0.00    +0.000 NA
ATOM     28  C   UNL     1      47.123   0.815   7.669  0.00  0.00    +0.000 A 
ATOM     29  C   UNL     1      46.000   1.375   8.253  0.00  0.00    +0.000 A 
ENDBRANCH  23  24
ENDBRANCH  20  23
ENDBRANCH  16  17
ENDBRANCH   3  16
TORSDOF 5
ENDMDL
MODEL 3
REMARK VINA RESULT:    -8.361      1.967      3.048
REMARK INTER + INTRA:         -11.284
REMARK INTER:                 -10.675
REMARK INTRA:                  -0.609
REMARK UNBOUND:                -0.479
REMARK  Name = 
REMARK  5 active torsions:
REMARK  status: ('A' for Active; 'I' for Inactive)
REMARK    1  A    between atoms: C_2  and  C_18
REMARK    2  A    between atoms: N_3  and  C_4
REMARK    3  A    between atoms: C_4  and  C_5
REMARK    4  A    between atoms: C_8  and  O_9
REMARK    5  A    between atoms: O_9  and  C_10
REMARK                            x       y       z     vdW  Elec       q    Type
REMARK                         _______ _______ _______ _____ _____    ______ ____
ROOT
ATOM      1  O   UNL     1      46.786   4.012  14.249  0.00  0.00    +0.000 OA
ATOM      2  C   UNL     1      46.772   5.223  14.046  0.00  0.00    +0.000 C 
ATOM      3  N   UNL     1      45.639   5.877  13.632  0.00  0.00    +0.000 N 
ATOM      4  H   UNL     1      45.734   6.795  13.206  0.00  0.00    +0.000 HD
ENDROOT
BRANCH   2   5
ATOM      5  C   UNL     1      47.958   6.054  14.293  0.00  0.00    +0.000 A 
ATOM      6  C   UNL     1      48.573   6.023  15.538  0.00  0.00    +0.000 A 
ATOM      7  S   UNL     1      49.908   7.078  15.667  0.00  0.00    +0.000 S 
ATOM      8  C   UNL     1      49.744   7.574  14.046  0.00  0.00    +0.000 A 
ATOM      9  N   UNL     1      50.605   8.473  13.499  0.00  0.00    +0.000 NA
ATOM     10  C   UNL     1      50.386   8.729  12.252  0.00  0.00    +0.000 A 
ATOM     11  N   UNL     1      49.383   8.170  11.506  0.00  0.00    +0.000 N 
ATOM     12  C   UNL     1      48.463   7.294  12.029  0.00  0.00    +0.000 A 
ATOM     13  O   UNL     1      47.535   6.865  11.352  0.00  0.00    +0.000 OA
ATOM     14  C   UNL     1      48.674   6.954  13.426  0.00  0.00    +0.000 A 
ATOM     15  H   UNL     1      49.258   8.415  10.537  0.00  0.00    +0.000 HD
ENDBRANCH   2   5
BRANCH   3  16
ATOM     16  C   UNL     1      44.466   5.129  13.241  0.00  0.00    +0.000 C 
BRANCH  16  17
ATOM     17  C   UNL     1      44.544   4.664  11.806  0.00  0.00    +0.000 A 
ATOM     18  C   UNL     1      44.042   3.418  11.439  0.00  0.00    +0.000 A 
ATOM     19  C   UNL     1      44.148   3.007  10.109  0.00  0.00    +0.000 A 
ATOM     20  C   UNL     1      44.686   3.875   9.162  0.00  0.00    +0.000 A 
ATOM     21  C   UNL     1      45.160   5.098   9.614  0.00  0.00    +0.000 A 
ATOM     22  N   UNL     1      45.097   5.513  10.903  0.00  0.00    +0.000 NA
BRANCH  20  23
ATOM     23  O   UNL     1      44.851   3.598   7.828  0.00  0.00    +0.000 OA
BRANCH  23  24
ATOM     24  C   UNL     1      45.912   2.831   7.405  0.00  0.00    +0.000 A 
ATOM     25  C   UNL     1      46.283   1.616   7.976  0.00  0.00    +0.000 A 
ATOM     26  C   UNL     1      47.387   0.963   7.458  0.00  0.00    +0.000 A 
ATOM     27  N   UNL     1      48.093   1.408   6.397  0.00  0.00    +0.000 NA
ATOM     28  C   UNL     1      47.671   2.556   5.823  0.00  0.00    +0.000 A 
ATOM     29  C   UNL     1      46.597   3.296   6.286  0.00  0.00    +0.000 A 
ENDBRANCH  23  24
ENDBRANCH  20  23
ENDBRANCH  16  17
ENDBRANCH   3  16
TORSDOF 5
ENDMDL
MODEL 4
REMARK VINA RESULT:    -8.255      1.558      2.228
REMARK INTER + INTRA:         -11.147
REMARK INTER:                 -10.508
REMARK INTRA:                  -0.639
REMARK UNBOUND:                -0.479
REMARK  Name = 
REMARK  5 active torsions:
REMARK  status: ('A' for Active; 'I' for Inactive)
REMARK    1  A    between atoms: C_2  and  C_18
REMARK    2  A    between atoms: N_3  and  C_4
REMARK    3  A    between atoms: C_4  and  C_5
REMARK    4  A    between atoms: C_8  and  O_9
REMARK    5  A    between atoms: O_9  and  C_10
REMARK                            x       y       z     vdW  Elec       q    Type
REMARK                         _______ _______ _______ _____ _____    ______ ____
ROOT
ATOM      1  O   UNL     1      47.503   4.454  13.946  0.00  0.00    +0.000 OA
ATOM      2  C   UNL     1      47.345   5.642  13.676  0.00  0.00    +0.000 C 
ATOM      3  N   UNL     1      46.108   6.163  13.389  0.00  0.00    +0.000 N 
ATOM      4  H   UNL     1      46.055   7.052  12.900  0.00  0.00    +0.000 HD
ENDROOT
BRANCH   2   5
ATOM      5  C   UNL     1      48.467   6.590  13.703  0.00  0.00    +0.000 A 
ATOM      6  C   UNL     1      48.865   7.221  12.532  0.00  0.00    +0.000 A 
ATOM      7  S   UNL     1      50.208   8.254  12.734  0.00  0.00    +0.000 S 
ATOM      8  C   UNL     1      50.272   7.935  14.406  0.00  0.00    +0.000 A 
ATOM      9  N   UNL     1      51.203   8.533  15.198  0.00  0.00    +0.000 NA
ATOM     10  C   UNL     1      51.111   8.229  16.449  0.00  0.00    +0.000 A 
ATOM     11  N   UNL     1      50.177   7.380  16.979  0.00  0.00    +0.000 N 
ATOM     12  C   UNL     1      49.248   6.719  16.212  0.00  0.00    +0.000 A 
ATOM     13  O   UNL     1      48.470   5.911  16.708  0.00  0.00    +0.000 OA
ATOM     14  C   UNL     1      49.292   7.040  14.795  0.00  0.00    +0.000 A 
ATOM     15  H   UNL     1      50.159   7.176  17.966  0.00  0.00    +0.000 HD
ENDBRANCH   2   5
BRANCH   3  16
ATOM     16  C   UNL     1      44.971   5.288  13.212  0.00  0.00    +0.000 C 
BRANCH  16  17
ATOM     17  C   UNL     1      44.878   4.759  11.800  0.00  0.00    +0.000 A 
ATOM     18  C   UNL     1      44.187   3.580  11.532  0.00  0.00    +0.000 A 
ATOM     19  C   UNL     1      44.138   3.104  10.221  0.00  0.00    +0.000 A 
ATOM     20  C   UNL     1      44.715   3.850   9.197  0.00  0.00    +0.000 A 
ATOM     21  C   UNL     1      45.382   5.013   9.553  0.00  0.00    +0.000 A 
ATOM     22  N   UNL     1      45.472   5.485  10.820  0.00  0.00    +0.000 NA
BRANCH  20  23
ATOM     23  O   UNL     1      44.741   3.498   7.871  0.00  0.00    +0.000 OA
BRANCH  23  24
ATOM     24  C   UNL     1      45.832   2.842   7.349  0.00  0.00    +0.000 A 
ATOM     25  C   UNL     1      46.592   3.307   6.278  0.00  0.00    +0.000 A 
ATOM     26  C   UNL     1      47.652   2.529   5.846  0.00  0.00    +0.000 A 
ATOM     27  N   UNL     1      48.024   1.374   6.436  0.00  0.00    +0.000 NA
ATOM     28  C   UNL     1      47.309   0.981   7.513  0.00  0.00    +0.000 A 
ATOM     29  C   UNL     1      46.216   1.675   8.001  0.00  0.00    +0.000 A 
ENDBRANCH  23  24
ENDBRANCH  20  23
ENDBRANCH  16  17
ENDBRANCH   3  16
TORSDOF 5
ENDMDL
MODEL 5
REMARK VINA RESULT:    -7.298      3.334      4.397
REMARK INTER + INTRA:          -9.911
REMARK INTER:                  -9.216
REMARK INTRA:                  -0.695
REMARK UNBOUND:                -0.479
REMARK  Name = 
REMARK  5 active torsions:
REMARK  status: ('A' for Active; 'I' for Inactive)
REMARK    1  A    between atoms: C_2  and  C_18
REMARK    2  A    between atoms: N_3  and  C_4
REMARK    3  A    between atoms: C_4  and  C_5
REMARK    4  A    between atoms: C_8  and  O_9
REMARK    5  A    between atoms: O_9  and  C_10
REMARK                            x       y       z     vdW  Elec       q    Type
REMARK                         _______ _______ _______ _____ _____    ______ ____
ROOT
ATOM      1  O   UNL     1      48.584   6.384  13.903  0.00  0.00    +0.000 OA
ATOM      2  C   UNL     1      47.883   7.261  13.405  0.00  0.00    +0.000 C 
ATOM      3  N   UNL     1      46.540   7.082  13.189  0.00  0.00    +0.000 N 
ATOM      4  H   UNL     1      46.066   7.694  12.530  0.00  0.00    +0.000 HD
ENDROOT
BRANCH   2   5
ATOM      5  C   UNL     1      48.434   8.580  13.066  0.00  0.00    +0.000 A 
ATOM      6  C   UNL     1      47.883   9.723  13.630  0.00  0.00    +0.000 A 
ATOM      7  S   UNL     1      48.613  11.170  13.096  0.00  0.00    +0.000 S 
ATOM      8  C   UNL     1      49.728  10.317  12.132  0.00  0.00    +0.000 A 
ATOM      9  N   UNL     1      50.674  10.973  11.408  0.00  0.00    +0.000 NA
ATOM     10  C   UNL     1      51.475  10.200  10.754  0.00  0.00    +0.000 A 
ATOM     11  N   UNL     1      51.415   8.833  10.757  0.00  0.00    +0.000 N 
ATOM     12  C   UNL     1      50.449   8.129  11.435  0.00  0.00    +0.000 A 
ATOM     13  O   UNL     1      50.379   6.907  11.361  0.00  0.00    +0.000 OA
ATOM     14  C   UNL     1      49.530   8.949  12.207  0.00  0.00    +0.000 A 
ATOM     15  H   UNL     1      52.065   8.282  10.219  0.00  0.00    +0.000 HD
ENDBRANCH   2   5
BRANCH   3  16
ATOM     16  C   UNL     1      45.938   5.780  13.371  0.00  0.00    +0.000 C 
BRANCH  16  17
ATOM     17  C   UNL     1      45.619   5.116  12.052  0.00  0.00    +0.000 A 
ATOM     18  C   UNL     1      45.041   3.849  12.022  0.00  0.00    +0.000 A 
ATOM     19  C   UNL     1      44.778   3.252  10.788  0.00  0.00    +0.000 A 
ATOM     20  C   UNL     1      45.029   3.957   9.614  0.00  0.00    +0.000 A 
ATOM     21  C   UNL     1      45.604   5.214   9.737  0.00  0.00    +0.000 A 
ATOM     22  N   UNL     1      45.898   5.808  10.919  0.00  0.00    +0.000 NA
BRANCH  20  23
ATOM     23  O   UNL     1      44.821   3.489   8.342  0.00  0.00    +0.000 OA
BRANCH  23  24
ATOM     24  C   UNL     1      45.828   2.836   7.670  0.00  0.00    +0.000 A 
ATOM     25  C   UNL     1      46.577   3.395   6.637  0.00  0.00    +0.000 A 
ATOM     26  C   UNL     1      47.547   2.610   6.038  0.00  0.00    +0.000 A 
ATOM     27  N   UNL     1      47.845   1.355   6.433  0.00  0.00    +0.000 NA
ATOM     28  C   UNL     1      47.148   0.862   7.479  0.00  0.00    +0.000 A 
ATOM     29  C   UNL     1      46.139   1.558   8.124  0.00  0.00    +0.000 A 
ENDBRANCH  23  24
ENDBRANCH  20  23
ENDBRANCH  16  17
ENDBRANCH   3  16
TORSDOF 5
ENDMDL
MODEL 6
REMARK VINA RESULT:    -7.295      2.152      3.222
REMARK INTER + INTRA:          -9.906
REMARK INTER:                  -8.909
REMARK INTRA:                  -0.997
REMARK UNBOUND:                -0.479
REMARK  Name = 
REMARK  5 active torsions:
REMARK  status: ('A' for Active; 'I' for Inactive)
REMARK    1  A    between atoms: C_2  and  C_18
REMARK    2  A    between atoms: N_3  and  C_4
REMARK    3  A    between atoms: C_4  and  C_5
REMARK    4  A    between atoms: C_8  and  O_9
REMARK    5  A    between atoms: O_9  and  C_10
REMARK                            x       y       z     vdW  Elec       q    Type
REMARK                         _______ _______ _______ _____ _____    ______ ____
ROOT
ATOM      1  O   UNL     1      50.070   7.046  14.668  0.00  0.00    +0.000 OA
ATOM      2  C   UNL     1      49.098   6.871  15.399  0.00  0.00    +0.000 C 
ATOM      3  N   UNL     1      47.821   7.162  14.989  0.00  0.00    +0.000 N 
ATOM      4  H   UNL     1      47.098   7.278  15.694  0.00  0.00    +0.000 HD
ENDROOT
BRANCH   2   5
ATOM      5  C   UNL     1      49.242   6.281  16.736  0.00  0.00    +0.000 A 
ATOM      6  C   UNL     1      49.931   6.973  17.724  0.00  0.00    +0.000 A 
ATOM      7  S   UNL     1      50.042   6.127  19.201  0.00  0.00    +0.000 S 
ATOM      8  C   UNL     1      49.126   4.828  18.590  0.00  0.00    +0.000 A 
ATOM      9  N   UNL     1      48.829   3.754  19.369  0.00  0.00    +0.000 NA
ATOM     10  C   UNL     1      48.097   2.862  18.788  0.00  0.00    +0.000 A 
ATOM     11  N   UNL     1      47.639   2.946  17.501  0.00  0.00    +0.000 N 
ATOM     12  C   UNL     1      47.953   3.990  16.664  0.00  0.00    +0.000 A 
ATOM     13  O   UNL     1      47.585   4.002  15.494  0.00  0.00    +0.000 OA
ATOM     14  C   UNL     1      48.759   5.035  17.272  0.00  0.00    +0.000 A 
ATOM     15  H   UNL     1      47.076   2.214  17.099  0.00  0.00    +0.000 HD
ENDBRANCH   2   5
BRANCH   3  16
ATOM     16  C   UNL     1      47.594   7.861  13.745  0.00  0.00    +0.000 C 
BRANCH  16  17
ATOM     17  C   UNL     1      46.675   7.094  12.824  0.00  0.00    +0.000 A 
ATOM     18  C   UNL     1      45.819   7.770  11.957  0.00  0.00    +0.000 A 
ATOM     19  C   UNL     1      44.966   7.034  11.134  0.00  0.00    +0.000 A 
ATOM     20  C   UNL     1      45.034   5.643  11.140  0.00  0.00    +0.000 A 
ATOM     21  C   UNL     1      45.916   5.052  12.033  0.00  0.00    +0.000 A 
ATOM     22  N   UNL     1      46.736   5.739  12.866  0.00  0.00    +0.000 NA
BRANCH  20  23
ATOM     23  O   UNL     1      44.254   4.802  10.387  0.00  0.00    +0.000 OA
BRANCH  23  24
ATOM     24  C   UNL     1      44.837   3.888   9.540  0.00  0.00    +0.000 A 
ATOM     25  C   UNL     1      44.698   2.507   9.657  0.00  0.00    +0.000 A 
ATOM     26  C   UNL     1      45.359   1.707   8.742  0.00  0.00    +0.000 A 
ATOM     27  N   UNL     1      46.086   2.187   7.712  0.00  0.00    +0.000 NA
ATOM     28  C   UNL     1      46.150   3.531   7.585  0.00  0.00    +0.000 A 
ATOM     29  C   UNL     1      45.547   4.413   8.466  0.00  0.00    +0.000 A 
ENDBRANCH  23  24
ENDBRANCH  20  23
ENDBRANCH  16  17
ENDBRANCH   3  16
TORSDOF 5
ENDMDL
MODEL 7
REMARK VINA RESULT:    -7.239      3.321      8.494
REMARK INTER + INTRA:          -9.835
REMARK INTER:                  -8.995
REMARK INTRA:                  -0.839
REMARK UNBOUND:                -0.479
REMARK  Name = 
REMARK  5 active torsions:
REMARK  status: ('A' for Active; 'I' for Inactive)
REMARK    1  A    between atoms: C_2  and  C_18
REMARK    2  A    between atoms: N_3  and  C_4
REMARK    3  A    between atoms: C_4  and  C_5
REMARK    4  A    between atoms: C_8  and  O_9
REMARK    5  A    between atoms: O_9  and  C_10
REMARK                            x       y       z     vdW  Elec       q    Type
REMARK                         _______ _______ _______ _____ _____    ______ ____
ROOT
ATOM      1  O   UNL     1      45.910   7.769  11.774  0.00  0.00    +0.000 OA
ATOM      2  C   UNL     1      46.301   6.605  11.826  0.00  0.00    +0.000 C 
ATOM      3  N   UNL     1      47.286   6.210  12.696  0.00  0.00    +0.000 N 
ATOM      4  H   UNL     1      47.774   5.337  12.515  0.00  0.00    +0.000 HD
ENDROOT
BRANCH   2   5
ATOM      5  C   UNL     1      45.692   5.555  11.000  0.00  0.00    +0.000 A 
ATOM      6  C   UNL     1      45.852   5.583   9.621  0.00  0.00    +0.000 A 
ATOM      7  S   UNL     1      45.044   4.315   8.813  0.00  0.00    +0.000 S 
ATOM      8  C   UNL     1      44.496   3.653  10.283  0.00  0.00    +0.000 A 
ATOM      9  N   UNL     1      43.748   2.517  10.303  0.00  0.00    +0.000 NA
ATOM     10  C   UNL     1      43.434   2.108  11.487  0.00  0.00    +0.000 A 
ATOM     11  N   UNL     1      43.798   2.731  12.650  0.00  0.00    +0.000 N 
ATOM     12  C   UNL     1      44.513   3.904  12.676  0.00  0.00    +0.000 A 
ATOM     13  O   UNL     1      44.763   4.476  13.732  0.00  0.00    +0.000 OA
ATOM     14  C   UNL     1      44.912   4.401  11.370  0.00  0.00    +0.000 A 
ATOM     15  H   UNL     1      43.517   2.367  13.546  0.00  0.00    +0.000 HD
ENDBRANCH   2   5
BRANCH   3  16
ATOM     16  C   UNL     1      48.030   7.192  13.452  0.00  0.00    +0.000 C 
BRANCH  16  17
ATOM     17  C   UNL     1      48.640   6.601  14.701  0.00  0.00    +0.000 A 
ATOM     18  C   UNL     1      49.833   7.106  15.212  0.00  0.00    +0.000 A 
ATOM     19  C   UNL     1      50.383   6.524  16.355  0.00  0.00    +0.000 A 
ATOM     20  C   UNL     1      49.696   5.502  17.005  0.00  0.00    +0.000 A 
ATOM     21  C   UNL     1      48.514   5.061  16.429  0.00  0.00    +0.000 A 
ATOM     22  N   UNL     1      47.970   5.586  15.304  0.00  0.00    +0.000 NA
BRANCH  20  23
ATOM     23  O   UNL     1      50.123   4.843  18.131  0.00  0.00    +0.000 OA
BRANCH  23  24
ATOM     24  C   UNL     1      50.942   3.743  18.022  0.00  0.00    +0.000 A 
ATOM     25  C   UNL     1      50.573   2.543  17.419  0.00  0.00    +0.000 A 
ATOM     26  C   UNL     1      51.496   1.513  17.401  0.00  0.00    +0.000 A 
ATOM     27  N   UNL     1      52.751   1.621  17.884  0.00  0.00    +0.000 NA
ATOM     28  C   UNL     1      53.104   2.817  18.404  0.00  0.00    +0.000 A 
ATOM     29  C   UNL     1      52.242   3.897  18.494  0.00  0.00    +0.000 A 
ENDBRANCH  23  24
ENDBRANCH  20  23
ENDBRANCH  16  17
ENDBRANCH   3  16
TORSDOF 5
ENDMDL
MODEL 8
REMARK VINA RESULT:    -7.088      4.001      8.480
REMARK INTER + INTRA:          -9.639
REMARK INTER:                  -8.636
REMARK INTRA:                  -1.003
REMARK UNBOUND:                -0.479
REMARK  Name = 
REMARK  5 active torsions:
REMARK  status: ('A' for Active; 'I' for Inactive)
REMARK    1  A    between atoms: C_2  and  C_18
REMARK    2  A    between atoms: N_3  and  C_4
REMARK    3  A    between atoms: C_4  and  C_5
REMARK    4  A    between atoms: C_8  and  O_9
REMARK    5  A    between atoms: O_9  and  C_10
REMARK                            x       y       z     vdW  Elec       q    Type
REMARK                         _______ _______ _______ _____ _____    ______ ____
ROOT
ATOM      1  O   UNL     1      47.737   7.440  11.684  0.00  0.00    +0.000 OA
ATOM      2  C   UNL     1      46.959   7.008  12.531  0.00  0.00    +0.000 C 
ATOM      3  N   UNL     1      47.236   7.076  13.873  0.00  0.00    +0.000 N 
ATOM      4  H   UNL     1      46.725   6.468  14.507  0.00  0.00    +0.000 HD
ENDROOT
BRANCH   2   5
ATOM      5  C   UNL     1      45.654   6.446  12.155  0.00  0.00    +0.000 A 
ATOM      6  C   UNL     1      44.701   7.259  11.557  0.00  0.00    +0.000 A 
ATOM      7  S   UNL     1      43.230   6.459  11.226  0.00  0.00    +0.000 S 
ATOM      8  C   UNL     1      43.835   4.983  11.823  0.00  0.00    +0.000 A 
ATOM      9  N   UNL     1      43.071   3.857  11.810  0.00  0.00    +0.000 NA
ATOM     10  C   UNL     1      43.669   2.804  12.257  0.00  0.00    +0.000 A 
ATOM     11  N   UNL     1      44.958   2.775  12.718  0.00  0.00    +0.000 N 
ATOM     12  C   UNL     1      45.750   3.895  12.792  0.00  0.00    +0.000 A 
ATOM     13  O   UNL     1      46.876   3.850  13.275  0.00  0.00    +0.000 OA
ATOM     14  C   UNL     1      45.134   5.109  12.282  0.00  0.00    +0.000 A 
ATOM     15  H   UNL     1      45.369   1.922  13.061  0.00  0.00    +0.000 HD
ENDBRANCH   2   5
BRANCH   3  16
ATOM     16  C   UNL     1      48.542   7.492  14.329  0.00  0.00    +0.000 C 
BRANCH  16  17
ATOM     17  C   UNL     1      49.078   6.586  15.413  0.00  0.00    +0.000 A 
ATOM     18  C   UNL     1      50.329   6.825  15.978  0.00  0.00    +0.000 A 
ATOM     19  C   UNL     1      50.806   5.958  16.962  0.00  0.00    +0.000 A 
ATOM     20  C   UNL     1      49.999   4.916  17.412  0.00  0.00    +0.000 A 
ATOM     21  C   UNL     1      48.767   4.752  16.795  0.00  0.00    +0.000 A 
ATOM     22  N   UNL     1      48.288   5.560  15.817  0.00  0.00    +0.000 NA
BRANCH  20  23
ATOM     23  O   UNL     1      50.345   3.994  18.366  0.00  0.00    +0.000 OA
BRANCH  23  24
ATOM     24  C   UNL     1      51.396   3.133  18.151  0.00  0.00    +0.000 A 
ATOM     25  C   UNL     1      52.696   3.348  18.603  0.00  0.00    +0.000 A 
ATOM     26  C   UNL     1      53.658   2.403  18.294  0.00  0.00    +0.000 A 
ATOM     27  N   UNL     1      53.399   1.260  17.626  0.00  0.00    +0.000 NA
ATOM     28  C   UNL     1      52.118   1.046  17.257  0.00  0.00    +0.000 A 
ATOM     29  C   UNL     1      51.091   1.945  17.494  0.00  0.00    +0.000 A 
ENDBRANCH  23  24
ENDBRANCH  20  23
ENDBRANCH  16  17
ENDBRANCH   3  16
TORSDOF 5
ENDMDL
MODEL 9
REMARK VINA RESULT:    -6.798      2.682      3.788
REMARK INTER + INTRA:          -9.264
REMARK INTER:                  -8.330
REMARK INTRA:                  -0.934
REMARK UNBOUND:                -0.479
REMARK  Name = 
REMARK  5 active torsions:
REMARK  status: ('A' for Active; 'I' for Inactive)
REMARK    1  A    between atoms: C_2  and  C_18
REMARK    2  A    between atoms: N_3  and  C_4
REMARK    3  A    between atoms: C_4  and  C_5
REMARK    4  A    between atoms: C_8  and  O_9
REMARK    5  A    between atoms: O_9  and  C_10
REMARK                            x       y       z     vdW  Elec       q    Type
REMARK                         _______ _______ _______ _____ _____    ______ ____
ROOT
ATOM      1  O   UNL     1      50.304   7.153  15.239  0.00  0.00    +0.000 OA
ATOM      2  C   UNL     1      49.260   6.918  15.844  0.00  0.00    +0.000 C 
ATOM      3  N   UNL     1      48.030   7.083  15.259  0.00  0.00    +0.000 N 
ATOM      4  H   UNL     1      47.212   7.160  15.858  0.00  0.00    +0.000 HD
ENDROOT
BRANCH   2   5
ATOM      5  C   UNL     1      49.273   6.387  17.213  0.00  0.00    +0.000 A 
ATOM      6  C   UNL     1      49.913   5.183  17.479  0.00  0.00    +0.000 A 
ATOM      7  S   UNL     1      49.794   4.692  19.109  0.00  0.00    +0.000 S 
ATOM      8  C   UNL     1      48.929   6.097  19.528  0.00  0.00    +0.000 A 
ATOM      9  N   UNL     1      48.530   6.317  20.810  0.00  0.00    +0.000 NA
ATOM     10  C   UNL     1      47.917   7.440  20.990  0.00  0.00    +0.000 A 
ATOM     11  N   UNL     1      47.666   8.359  20.007  0.00  0.00    +0.000 N 
ATOM     12  C   UNL     1      48.009   8.158  18.692  0.00  0.00    +0.000 A 
ATOM     13  O   UNL     1      47.708   8.969  17.823  0.00  0.00    +0.000 OA
ATOM     14  C   UNL     1      48.721   6.918  18.434  0.00  0.00    +0.000 A 
ATOM     15  H   UNL     1      47.176   9.216  20.208  0.00  0.00    +0.000 HD
ENDBRANCH   2   5
BRANCH   3  16
ATOM     16  C   UNL     1      47.915   7.720  13.967  0.00  0.00    +0.000 C 
BRANCH  16  17
ATOM     17  C   UNL     1      46.932   7.005  13.070  0.00  0.00    +0.000 A 
ATOM     18  C   UNL     1      46.161   7.719  12.156  0.00  0.00    +0.000 A 
ATOM     19  C   UNL     1      45.246   7.033  11.356  0.00  0.00    +0.000 A 
ATOM     20  C   UNL     1      45.170   5.645  11.433  0.00  0.00    +0.000 A 
ATOM     21  C   UNL     1      45.976   5.014  12.370  0.00  0.00    +0.000 A 
ATOM     22  N   UNL     1      46.852   5.655  13.180  0.00  0.00    +0.000 NA
BRANCH  20  23
ATOM     23  O   UNL     1      44.316   4.851  10.710  0.00  0.00    +0.000 OA
BRANCH  23  24
ATOM     24  C   UNL     1      44.811   3.968   9.779  0.00  0.00    +0.000 A 
ATOM     25  C   UNL     1      44.591   2.592   9.804  0.00  0.00    +0.000 A 
ATOM     26  C   UNL     1      45.170   1.822   8.810  0.00  0.00    +0.000 A 
ATOM     27  N   UNL     1      45.888   2.332   7.789  0.00  0.00    +0.000 NA
ATOM     28  C   UNL     1      46.031   3.675   7.754  0.00  0.00    +0.000 A 
ATOM     29  C   UNL     1      45.515   4.526   8.717  0.00  0.00    +0.000 A 
ENDBRANCH  23  24
ENDBRANCH  20  23
ENDBRANCH  16  17
ENDBRANCH   3  16
TORSDOF 5
ENDMDL
