MODEL 1
REMARK VINA RESULT:    -7.526      0.000      0.000
REMARK INTER + INTRA:         -13.136
REMARK INTER:                 -12.366
REMARK INTRA:                  -0.770
REMARK UNBOUND:                -0.770
REMARK  Name = 
REMARK  12 active torsions:
REMARK  status: ('A' for Active; 'I' for Inactive)
REMARK    1  A    between atoms: C_2  and  C_3
REMARK    2  A    between atoms: C_3  and  N_4
REMARK    3  A    between atoms: C_3  and  C_23
REMARK    4  A    between atoms: N_4  and  C_5
REMARK    5  A    between atoms: C_5  and  C_6
REMARK    6  A    between atoms: C_9  and  C_10
REMARK    7  A    between atoms: C_10  and  O_11
REMARK    8  A    between atoms: C_10  and  C_12
REMARK    9  A    between atoms: C_12  and  N_13
REMARK   10  A    between atoms: C_17  and  C_18
REMARK   11  A    between atoms: C_18  and  O_20
REMARK   12  A    between atoms: C_23  and  C_25
REMARK                            x       y       z     vdW  Elec       q    Type
REMARK                         _______ _______ _______ _____ _____    ______ ____
ROOT
ATOM      1  C   UNL     1      49.435   7.503  15.243  0.00  0.00    +0.000 C 
ENDROOT
BRANCH   1   2
ATOM      2  C   UNL     1      48.252   7.432  14.313  0.00  0.00    +0.000 A 
ATOM      3  C   UNL     1      47.869   6.209  13.740  0.00  0.00    +0.000 A 
ATOM      4  C   UNL     1      46.770   6.139  12.888  0.00  0.00    +0.000 A 
ATOM      5  C   UNL     1      46.018   7.287  12.608  0.00  0.00    +0.000 A 
ATOM      6  C   UNL     1      46.398   8.506  13.187  0.00  0.00    +0.000 A 
ATOM      7  C   UNL     1      47.506   8.578  14.029  0.00  0.00    +0.000 A 
BRANCH   5   8
ATOM      8  C   UNL     1      44.812   7.192  11.701  0.00  0.00    +0.000 C 
BRANCH   8   9
ATOM      9  O   UNL     1      44.646   8.439  11.025  0.00  0.00    +0.000 OA
ATOM     10  H   UNL     1      44.776   8.276  10.077  0.00  0.00    +0.000 HD
ENDBRANCH   8   9
BRANCH   8  11
ATOM     11  C   UNL     1      44.931   6.013  10.695  0.00  0.00    +0.000 C 
BRANCH  11  12
ATOM     12  N   UNL     1      43.835   5.011  10.774  0.00  0.00    +0.000 NA
ATOM     13  C   UNL     1      42.676   5.509  11.543  0.00  0.00    +0.000 C 
ATOM     14  C   UNL     1      43.010   5.230  12.991  0.00  0.00    +0.000 C 
ATOM     15  C   UNL     1      43.683   3.873  12.931  0.00  0.00    +0.000 C 
ATOM     16  C   UNL     1      44.320   3.804  11.543  0.00  0.00    +0.000 C 
BRANCH  16  17
ATOM     17  C   UNL     1      43.893   2.530  10.799  0.00  0.00    +0.000 C 
ATOM     18  O   UNL     1      44.265   2.222   9.679  0.00  0.00    +0.000 OA
BRANCH  17  19
ATOM     19  O   UNL     1      43.033   1.774  11.532  0.00  0.00    +0.000 OA
ATOM     20  H   UNL     1      42.124   2.084  11.299  0.00  0.00    +0.000 HD
ENDBRANCH  17  19
ENDBRANCH  16  17
ENDBRANCH  11  12
ENDBRANCH   8  11
ENDBRANCH   5   8
ENDBRANCH   1   2
BRANCH   1  21
ATOM     21  N   UNL     1      49.662   6.192  15.856  0.00  0.00    +0.000 NA
ATOM     22  H   UNL     1      49.502   5.474  15.149  0.00  0.00    +0.000 HD
BRANCH  21  23
ATOM     23  C   UNL     1      48.748   5.923  16.991  0.00  0.00    +0.000 C 
BRANCH  23  25
ATOM     24  N   UNL     1      48.498   8.132  18.663  0.00  0.00    +0.000 NA
ATOM     25  C   UNL     1      48.611   7.130  17.905  0.00  0.00    +0.000 C 
ENDBRANCH  23  25
BRANCH  23  26
ATOM     26  C   UNL     1      49.139   4.653  17.781  0.00  0.00    +0.000 C 
ATOM     27  O   UNL     1      48.287   3.925  18.282  0.00  0.00    +0.000 OA
BRANCH  26  28
ATOM     28  C   UNL     1      50.571   4.341  17.988  0.00  0.00    +0.000 A 
ATOM     29  C   UNL     1      51.488   5.212  18.561  0.00  0.00    +0.000 A 
ATOM     30  S   UNL     1      53.004   4.500  18.883  0.00  0.00    +0.000 S 
ATOM     31  C   UNL     1      52.503   3.009  18.236  0.00  0.00    +0.000 A 
ATOM     32  N   UNL     1      53.318   1.921  18.257  0.00  0.00    +0.000 NA
ATOM     33  C   UNL     1      52.783   0.852  17.765  0.00  0.00    +0.000 A 
ATOM     34  N   UNL     1      51.528   0.784  17.215  0.00  0.00    +0.000 N 
ATOM     35  C   UNL     1      50.752   1.904  17.007  0.00  0.00    +0.000 A 
ATOM     36  O   UNL     1      49.826   1.907  16.205  0.00  0.00    +0.000 OA
ATOM     37  C   UNL     1      51.226   3.082  17.711  0.00  0.00    +0.000 A 
ATOM     38  H   UNL     1      51.224  -0.054  16.744  0.00  0.00    +0.000 HD
ENDBRANCH  26  28
ENDBRANCH  23  26
ENDBRANCH  21  23
ENDBRANCH   1  21
TORSDOF 12
ENDMDL
MODEL 2
REMARK VINA RESULT:    -7.489      2.079      2.743
REMARK INTER + INTRA:         -13.075
REMARK INTER:                 -12.493
REMARK INTRA:                  -0.582
REMARK UNBOUND:                -0.770
REMARK  Name = 
REMARK  12 active torsions:
REMARK  status: ('A' for Active; 'I' for Inactive)
REMARK    1  A    between atoms: C_2  and  C_3
REMARK    2  A    between atoms: C_3  and  N_4
REMARK    3  A    between atoms: C_3  and  C_23
REMARK    4  A    between atoms: N_4  and  C_5
REMARK    5  A    between atoms: C_5  and  C_6
REMARK    6  A    between atoms: C_9  and  C_10
REMARK    7  A    between atoms: C_10  and  O_11
REMARK    8  A    between atoms: C_10  and  C_12
REMARK    9  A    between atoms: C_12  and  N_13
REMARK   10  A    between atoms: C_17  and  C_18
REMARK   11  A    between atoms: C_18  and  O_20
REMARK   12  A    between atoms: C_23  and  C_25
REMARK                            x       y       z     vdW  Elec       q    Type
REMARK                         _______ _______ _______ _____ _____    ______ ____
ROOT
ATOM      1  C   UNL     1      48.611   6.571  14.953  0.00  0.00    +0.000 C 
ENDROOT
BRANCH   1   2
ATOM      2  C   UNL     1      47.697   6.203  13.815  0.00  0.00    +0.000 A 
ATOM      3  C   UNL     1      47.725   6.929  12.614  0.00  0.00    +0.000 A 
ATOM      4  C   UNL     1      46.887   6.584  11.557  0.00  0.00    +0.000 A 
ATOM      5  C   UNL     1      46.019   5.491  11.670  0.00  0.00    +0.000 A 
ATOM      6  C   UNL     1      45.998   4.762  12.868  0.00  0.00    +0.000 A 
ATOM      7  C   UNL     1      46.826   5.116  13.930  0.00  0.00    +0.000 A 
BRANCH   5   8
ATOM      8  C   UNL     1      45.133   5.112  10.506  0.00  0.00    +0.000 C 
BRANCH   8   9
ATOM      9  O   UNL     1      43.936   5.888  10.567  0.00  0.00    +0.000 OA
ATOM     10  H   UNL     1      43.897   6.293  11.448  0.00  0.00    +0.000 HD
ENDBRANCH   8   9
BRANCH   8  11
ATOM     11  C   UNL     1      45.856   5.290   9.141  0.00  0.00    +0.000 C 
BRANCH  11  12
ATOM     12  N   UNL     1      45.444   4.328   8.084  0.00  0.00    +0.000 NA
ATOM     13  C   UNL     1      44.185   3.632   8.421  0.00  0.00    +0.000 C 
ATOM     14  C   UNL     1      44.595   2.469   9.296  0.00  0.00    +0.000 C 
ATOM     15  C   UNL     1      45.878   1.990   8.646  0.00  0.00    +0.000 C 
ATOM     16  C   UNL     1      46.477   3.230   7.983  0.00  0.00    +0.000 C 
BRANCH  16  17
ATOM     17  C   UNL     1      46.790   2.970   6.502  0.00  0.00    +0.000 C 
ATOM     18  O   UNL     1      47.027   1.873   6.023  0.00  0.00    +0.000 OA
BRANCH  17  19
ATOM     19  O   UNL     1      46.785   4.116   5.770  0.00  0.00    +0.000 OA
ATOM     20  H   UNL     1      45.915   4.146   5.304  0.00  0.00    +0.000 HD
ENDBRANCH  17  19
ENDBRANCH  16  17
ENDBRANCH  11  12
ENDBRANCH   8  11
ENDBRANCH   5   8
ENDBRANCH   1   2
BRANCH   1  21
ATOM     21  N   UNL     1      48.726   5.443  15.880  0.00  0.00    +0.000 NA
ATOM     22  H   UNL     1      48.038   4.738  15.617  0.00  0.00    +0.000 HD
BRANCH  21  23
ATOM     23  C   UNL     1      48.467   5.828  17.288  0.00  0.00    +0.000 C 
BRANCH  23  25
ATOM     24  N   UNL     1      49.405   8.385  17.852  0.00  0.00    +0.000 NA
ATOM     25  C   UNL     1      48.979   7.225  17.596  0.00  0.00    +0.000 C 
ENDBRANCH  23  25
BRANCH  23  26
ATOM     26  C   UNL     1      49.006   4.788  18.297  0.00  0.00    +0.000 C 
ATOM     27  O   UNL     1      48.275   4.280  19.143  0.00  0.00    +0.000 OA
BRANCH  26  28
ATOM     28  C   UNL     1      50.445   4.442  18.282  0.00  0.00    +0.000 A 
ATOM     29  C   UNL     1      51.449   5.244  18.807  0.00  0.00    +0.000 A 
ATOM     30  S   UNL     1      52.977   4.489  18.857  0.00  0.00    +0.000 S 
ATOM     31  C   UNL     1      52.361   3.072  18.145  0.00  0.00    +0.000 A 
ATOM     32  N   UNL     1      53.145   1.979  17.956  0.00  0.00    +0.000 NA
ATOM     33  C   UNL     1      52.526   0.967  17.442  0.00  0.00    +0.000 A 
ATOM     34  N   UNL     1      51.208   0.966  17.060  0.00  0.00    +0.000 N 
ATOM     35  C   UNL     1      50.439   2.109  17.062  0.00  0.00    +0.000 A 
ATOM     36  O   UNL     1      49.415   2.199  16.394  0.00  0.00    +0.000 OA
ATOM     37  C   UNL     1      51.028   3.209  17.804  0.00  0.00    +0.000 A 
ATOM     38  H   UNL     1      50.826   0.180  16.557  0.00  0.00    +0.000 HD
ENDBRANCH  26  28
ENDBRANCH  23  26
ENDBRANCH  21  23
ENDBRANCH   1  21
TORSDOF 12
ENDMDL
MODEL 3
REMARK VINA RESULT:    -7.286      2.108      2.879
REMARK INTER + INTRA:         -12.741
REMARK INTER:                 -10.584
REMARK INTRA:                  -2.157
REMARK UNBOUND:                -0.770
REMARK  Name = 
REMARK  12 active torsions:
REMARK  status: ('A' for Active; 'I' for Inactive)
REMARK    1  A    between atoms: C_2  and  C_3
REMARK    2  A    between atoms: C_3  and  N_4
REMARK    3  A    between atoms: C_3  and  C_23
REMARK    4  A    between atoms: N_4  and  C_5
REMARK    5  A    between atoms: C_5  and  C_6
REMARK    6  A    between atoms: C_9  and  C_10
REMARK    7  A    between atoms: C_10  and  O_11
REMARK    8  A    between atoms: C_10  and  C_12
REMARK    9  A    between atoms: C_12  and  N_13
REMARK   10  A    between atoms: C_17  and  C_18
REMARK   11  A    between atoms: C_18  and  O_20
REMARK   12  A    between atoms: C_23  and  C_25
REMARK                            x       y       z     vdW  Elec       q    Type
REMARK                         _______ _______ _______ _____ _____    ______ ____
ROOT
ATOM      1  C   UNL     1      50.494   7.839  14.134  0.00  0.00    +0.000 C 
ENDROOT
BRANCH   1   2
ATOM      2  C   UNL     1      49.067   7.671  13.682  0.00  0.00    +0.000 A 
ATOM      3  C   UNL     1      48.090   8.613  14.040  0.00  0.00    +0.000 A 
ATOM      4  C   UNL     1      46.773   8.463  13.614  0.00  0.00    +0.000 A 
ATOM      5  C   UNL     1      46.409   7.380  12.804  0.00  0.00    +0.000 A 
ATOM      6  C   UNL     1      47.388   6.445  12.442  0.00  0.00    +0.000 A 
ATOM      7  C   UNL     1      48.703   6.587  12.878  0.00  0.00    +0.000 A 
BRANCH   5   8
ATOM      8  C   UNL     1      44.981   7.245  12.329  0.00  0.00    +0.000 C 
BRANCH   8   9
ATOM      9  O   UNL     1      44.906   7.668  10.967  0.00  0.00    +0.000 OA
ATOM     10  H   UNL     1      44.687   8.613  10.968  0.00  0.00    +0.000 HD
ENDBRANCH   8   9
BRANCH   8  11
ATOM     11  C   UNL     1      44.443   5.797  12.503  0.00  0.00    +0.000 C 
BRANCH  11  12
ATOM     12  N   UNL     1      43.946   5.159  11.255  0.00  0.00    +0.000 NA
ATOM     13  C   UNL     1      42.827   4.228  11.510  0.00  0.00    +0.000 C 
ATOM     14  C   UNL     1      43.478   2.920  11.898  0.00  0.00    +0.000 C 
ATOM     15  C   UNL     1      44.671   2.844  10.966  0.00  0.00    +0.000 C 
ATOM     16  C   UNL     1      45.039   4.297  10.668  0.00  0.00    +0.000 C 
BRANCH  16  17
ATOM     17  C   UNL     1      45.120   4.550   9.156  0.00  0.00    +0.000 C 
ATOM     18  O   UNL     1      44.553   3.881   8.307  0.00  0.00    +0.000 OA
BRANCH  17  19
ATOM     19  O   UNL     1      45.915   5.612   8.857  0.00  0.00    +0.000 OA
ATOM     20  H   UNL     1      46.262   5.452   7.945  0.00  0.00    +0.000 HD
ENDBRANCH  17  19
ENDBRANCH  16  17
ENDBRANCH  11  12
ENDBRANCH   8  11
ENDBRANCH   5   8
ENDBRANCH   1   2
BRANCH   1  21
ATOM     21  N   UNL     1      50.776   6.916  15.235  0.00  0.00    +0.000 NA
ATOM     22  H   UNL     1      50.082   6.170  15.216  0.00  0.00    +0.000 HD
BRANCH  21  23
ATOM     23  C   UNL     1      50.704   7.570  16.564  0.00  0.00    +0.000 C 
BRANCH  23  25
ATOM     24  N   UNL     1      53.202   7.724  17.778  0.00  0.00    +0.000 NA
ATOM     25  C   UNL     1      52.068   7.654  17.228  0.00  0.00    +0.000 C 
ENDBRANCH  23  25
BRANCH  23  26
ATOM     26  C   UNL     1      49.659   6.912  17.494  0.00  0.00    +0.000 C 
ATOM     27  O   UNL     1      49.304   7.451  18.538  0.00  0.00    +0.000 OA
BRANCH  26  28
ATOM     28  C   UNL     1      49.119   5.578  17.147  0.00  0.00    +0.000 A 
ATOM     29  C   UNL     1      47.929   5.369  16.462  0.00  0.00    +0.000 A 
ATOM     30  S   UNL     1      47.678   3.746  16.001  0.00  0.00    +0.000 S 
ATOM     31  C   UNL     1      49.133   3.256  16.731  0.00  0.00    +0.000 A 
ATOM     32  N   UNL     1      49.565   1.970  16.652  0.00  0.00    +0.000 NA
ATOM     33  C   UNL     1      50.706   1.759  17.221  0.00  0.00    +0.000 A 
ATOM     34  N   UNL     1      51.430   2.707  17.900  0.00  0.00    +0.000 N 
ATOM     35  C   UNL     1      50.936   3.966  18.161  0.00  0.00    +0.000 A 
ATOM     36  O   UNL     1      51.396   4.667  19.054  0.00  0.00    +0.000 OA
ATOM     37  C   UNL     1      49.757   4.304  17.384  0.00  0.00    +0.000 A 
ATOM     38  H   UNL     1      52.253   2.441  18.419  0.00  0.00    +0.000 HD
ENDBRANCH  26  28
ENDBRANCH  23  26
ENDBRANCH  21  23
ENDBRANCH   1  21
TORSDOF 12
ENDMDL
MODEL 4
REMARK VINA RESULT:    -7.161      2.557      3.210
REMARK INTER + INTRA:         -12.536
REMARK INTER:                 -10.412
REMARK INTRA:                  -2.125
REMARK UNBOUND:                -0.770
REMARK  Name = 
REMARK  12 active torsions:
REMARK  status: ('A' for Active; 'I' for Inactive)
REMARK    1  A    between atoms: C_2  and  C_3
REMARK    2  A    between atoms: C_3  and  N_4
REMARK    3  A    between atoms: C_3  and  C_23
REMARK    4  A    between atoms: N_4  and  C_5
REMARK    5  A    between atoms: C_5  and  C_6
REMARK    6  A    between atoms: C_9  and  C_10
REMARK    7  A    between atoms: C_10  and  O_11
REMARK    8  A    between atoms: C_10  and  C_12
REMARK    9  A    between atoms: C_12  and  N_13
REMARK   10  A    between atoms: C_17  and  C_18
REMARK   11  A    between atoms: C_18  and  O_20
REMARK   12  A    between atoms: C_23  and  C_25
REMARK                            x       y       z     vdW  Elec       q    Type
REMARK                         _______ _______ _______ _____ _____    ______ ____
ROOT
ATOM      1  C   UNL     1      50.323   8.533  13.542  0.00  0.00    +0.000 C 
ENDROOT
BRANCH   1   2
ATOM      2  C   UNL     1      48.893   8.277  13.146  0.00  0.00    +0.000 A 
ATOM      3  C   UNL     1      48.590   7.385  12.106  0.00  0.00    +0.000 A 
ATOM      4  C   UNL     1      47.268   7.139  11.745  0.00  0.00    +0.000 A 
ATOM      5  C   UNL     1      46.219   7.764  12.433  0.00  0.00    +0.000 A 
ATOM      6  C   UNL     1      46.524   8.649  13.477  0.00  0.00    +0.000 A 
ATOM      7  C   UNL     1      47.847   8.904  13.829  0.00  0.00    +0.000 A 
BRANCH   5   8
ATOM      8  C   UNL     1      44.788   7.469  12.047  0.00  0.00    +0.000 C 
BRANCH   8   9
ATOM      9  O   UNL     1      44.603   7.804  10.671  0.00  0.00    +0.000 OA
ATOM     10  H   UNL     1      45.440   7.621  10.213  0.00  0.00    +0.000 HD
ENDBRANCH   8   9
BRANCH   8  11
ATOM     11  C   UNL     1      44.401   5.990  12.328  0.00  0.00    +0.000 C 
BRANCH  11  12
ATOM     12  N   UNL     1      43.941   5.227  11.137  0.00  0.00    +0.000 NA
ATOM     13  C   UNL     1      42.798   4.343  11.448  0.00  0.00    +0.000 C 
ATOM     14  C   UNL     1      43.413   3.077  12.000  0.00  0.00    +0.000 C 
ATOM     15  C   UNL     1      44.639   2.886  11.129  0.00  0.00    +0.000 C 
ATOM     16  C   UNL     1      45.041   4.293  10.690  0.00  0.00    +0.000 C 
BRANCH  16  17
ATOM     17  C   UNL     1      45.183   4.379   9.163  0.00  0.00    +0.000 C 
ATOM     18  O   UNL     1      44.909   3.478   8.388  0.00  0.00    +0.000 OA
BRANCH  17  19
ATOM     19  O   UNL     1      45.666   5.585   8.762  0.00  0.00    +0.000 OA
ATOM     20  H   UNL     1      45.554   6.198   9.528  0.00  0.00    +0.000 HD
ENDBRANCH  17  19
ENDBRANCH  16  17
ENDBRANCH  11  12
ENDBRANCH   8  11
ENDBRANCH   5   8
ENDBRANCH   1   2
BRANCH   1  21
ATOM     21  N   UNL     1      50.843   7.385  14.288  0.00  0.00    +0.000 NA
ATOM     22  H   UNL     1      50.105   6.684  14.356  0.00  0.00    +0.000 HD
BRANCH  21  23
ATOM     23  C   UNL     1      51.263   7.738  15.665  0.00  0.00    +0.000 C 
BRANCH  23  25
ATOM     24  N   UNL     1      53.476   6.265  16.483  0.00  0.00    +0.000 NA
ATOM     25  C   UNL     1      52.472   6.933  16.112  0.00  0.00    +0.000 C 
ENDBRANCH  23  25
BRANCH  23  26
ATOM     26  C   UNL     1      50.105   7.637  16.684  0.00  0.00    +0.000 C 
ATOM     27  O   UNL     1      49.348   8.583  16.887  0.00  0.00    +0.000 OA
BRANCH  26  28
ATOM     28  C   UNL     1      49.941   6.396  17.474  0.00  0.00    +0.000 A 
ATOM     29  C   UNL     1      50.621   6.122  18.653  0.00  0.00    +0.000 A 
ATOM     30  S   UNL     1      50.061   4.730  19.462  0.00  0.00    +0.000 S 
ATOM     31  C   UNL     1      48.911   4.420  18.248  0.00  0.00    +0.000 A 
ATOM     32  N   UNL     1      48.036   3.385  18.352  0.00  0.00    +0.000 NA
ATOM     33  C   UNL     1      47.198   3.301  17.372  0.00  0.00    +0.000 A 
ATOM     34  N   UNL     1      47.185   4.130  16.279  0.00  0.00    +0.000 N 
ATOM     35  C   UNL     1      48.171   5.066  16.050  0.00  0.00    +0.000 A 
ATOM     36  O   UNL     1      48.370   5.533  14.935  0.00  0.00    +0.000 OA
ATOM     37  C   UNL     1      49.011   5.323  17.205  0.00  0.00    +0.000 A 
ATOM     38  H   UNL     1      46.579   3.931  15.498  0.00  0.00    +0.000 HD
ENDBRANCH  26  28
ENDBRANCH  23  26
ENDBRANCH  21  23
ENDBRANCH   1  21
TORSDOF 12
ENDMDL
MODEL 5
REMARK VINA RESULT:    -7.083      2.243      3.319
REMARK INTER + INTRA:         -12.408
REMARK INTER:                 -10.626
REMARK INTRA:                  -1.782
REMARK UNBOUND:                -0.770
REMARK  Name = 
REMARK  12 active torsions:
REMARK  status: ('A' for Active; 'I' for Inactive)
REMARK    1  A    between atoms: C_2  and  C_3
REMARK    2  A    between atoms: C_3  and  N_4
REMARK    3  A    between atoms: C_3  and  C_23
REMARK    4  A    between atoms: N_4  and  C_5
REMARK    5  A    between atoms: C_5  and  C_6
REMARK    6  A    between atoms: C_9  and  C_10
REMARK    7  A    between atoms: C_10  and  O_11
REMARK    8  A    between atoms: C_10  and  C_12
REMARK    9  A    between atoms: C_12  and  N_13
REMARK   10  A    between atoms: C_17  and  C_18
REMARK   11  A    between atoms: C_18  and  O_20
REMARK   12  A    between atoms: C_23  and  C_25
REMARK                            x       y       z     vdW  Elec       q    Type
REMARK                         _______ _______ _______ _____ _____    ______ ____
ROOT
ATOM      1  C   UNL     1      50.787   8.166  14.375  0.00  0.00    +0.000 C 
ENDROOT
BRANCH   1   2
ATOM      2  C   UNL     1      49.363   7.958  13.933  0.00  0.00    +0.000 A 
ATOM      3  C   UNL     1      48.428   9.002  14.025  0.00  0.00    +0.000 A 
ATOM      4  C   UNL     1      47.114   8.814  13.607  0.00  0.00    +0.000 A 
ATOM      5  C   UNL     1      46.710   7.585  13.068  0.00  0.00    +0.000 A 
ATOM      6  C   UNL     1      47.647   6.547  12.971  0.00  0.00    +0.000 A 
ATOM      7  C   UNL     1      48.960   6.730  13.401  0.00  0.00    +0.000 A 
BRANCH   5   8
ATOM      8  C   UNL     1      45.286   7.404  12.596  0.00  0.00    +0.000 C 
BRANCH   8   9
ATOM      9  O   UNL     1      44.648   8.680  12.558  0.00  0.00    +0.000 OA
ATOM     10  H   UNL     1      45.333   9.343  12.372  0.00  0.00    +0.000 HD
ENDBRANCH   8   9
BRANCH   8  11
ATOM     11  C   UNL     1      45.216   6.692  11.216  0.00  0.00    +0.000 C 
BRANCH  11  12
ATOM     12  N   UNL     1      44.731   5.287  11.259  0.00  0.00    +0.000 NA
ATOM     13  C   UNL     1      43.387   5.140  10.665  0.00  0.00    +0.000 C 
ATOM     14  C   UNL     1      42.421   5.489  11.774  0.00  0.00    +0.000 C 
ATOM     15  C   UNL     1      43.066   4.865  12.996  0.00  0.00    +0.000 C 
ATOM     16  C   UNL     1      44.565   4.864  12.700  0.00  0.00    +0.000 C 
BRANCH  16  17
ATOM     17  C   UNL     1      45.166   3.462  12.884  0.00  0.00    +0.000 C 
ATOM     18  O   UNL     1      46.297   3.238  13.282  0.00  0.00    +0.000 OA
BRANCH  17  19
ATOM     19  O   UNL     1      44.290   2.481  12.539  0.00  0.00    +0.000 OA
ATOM     20  H   UNL     1      44.766   1.895  11.902  0.00  0.00    +0.000 HD
ENDBRANCH  17  19
ENDBRANCH  16  17
ENDBRANCH  11  12
ENDBRANCH   8  11
ENDBRANCH   5   8
ENDBRANCH   1   2
BRANCH   1  21
ATOM     21  N   UNL     1      51.237   7.011  15.156  0.00  0.00    +0.000 NA
ATOM     22  H   UNL     1      50.416   6.476  15.440  0.00  0.00    +0.000 HD
BRANCH  21  23
ATOM     23  C   UNL     1      51.974   7.399  16.382  0.00  0.00    +0.000 C 
BRANCH  23  25
ATOM     24  N   UNL     1      54.728   7.257  16.022  0.00  0.00    +0.000 NA
ATOM     25  C   UNL     1      53.478   7.322  16.186  0.00  0.00    +0.000 C 
ENDBRANCH  23  25
BRANCH  23  26
ATOM     26  C   UNL     1      51.520   6.600  17.626  0.00  0.00    +0.000 C 
ATOM     27  O   UNL     1      51.641   7.059  18.758  0.00  0.00    +0.000 OA
BRANCH  26  28
ATOM     28  C   UNL     1      50.984   5.232  17.452  0.00  0.00    +0.000 A 
ATOM     29  C   UNL     1      51.761   4.082  17.440  0.00  0.00    +0.000 A 
ATOM     30  S   UNL     1      50.853   2.638  17.457  0.00  0.00    +0.000 S 
ATOM     31  C   UNL     1      49.385   3.497  17.445  0.00  0.00    +0.000 A 
ATOM     32  N   UNL     1      48.190   2.853  17.514  0.00  0.00    +0.000 NA
ATOM     33  C   UNL     1      47.165   3.642  17.535  0.00  0.00    +0.000 A 
ATOM     34  N   UNL     1      47.228   5.010  17.449  0.00  0.00    +0.000 N 
ATOM     35  C   UNL     1      48.403   5.680  17.189  0.00  0.00    +0.000 A 
ATOM     36  O   UNL     1      48.409   6.825  16.751  0.00  0.00    +0.000 OA
ATOM     37  C   UNL     1      49.590   4.861  17.349  0.00  0.00    +0.000 A 
ATOM     38  H   UNL     1      46.382   5.551  17.352  0.00  0.00    +0.000 HD
ENDBRANCH  26  28
ENDBRANCH  23  26
ENDBRANCH  21  23
ENDBRANCH   1  21
TORSDOF 12
ENDMDL
MODEL 6
REMARK VINA RESULT:    -7.063      2.046      2.827
REMARK INTER + INTRA:         -12.374
REMARK INTER:                 -10.023
REMARK INTRA:                  -2.351
REMARK UNBOUND:                -0.770
REMARK  Name = 
REMARK  12 active torsions:
REMARK  status: ('A' for Active; 'I' for Inactive)
REMARK    1  A    between atoms: C_2  and  C_3
REMARK    2  A    between atoms: C_3  and  N_4
REMARK    3  A    between atoms: C_3  and  C_23
REMARK    4  A    between atoms: N_4  and  C_5
REMARK    5  A    between atoms: C_5  and  C_6
REMARK    6  A    between atoms: C_9  and  C_10
REMARK    7  A    between atoms: C_10  and  O_11
REMARK    8  A    between atoms: C_10  and  C_12
REMARK    9  A    between atoms: C_12  and  N_13
REMARK   10  A    between atoms: C_17  and  C_18
REMARK   11  A    between atoms: C_18  and  O_20
REMARK   12  A    between atoms: C_23  and  C_25
REMARK                            x       y       z     vdW  Elec       q    Type
REMARK                         _______ _______ _______ _____ _____    ______ ____
ROOT
ATOM      1  C   UNL     1      49.689   7.814  17.497  0.00  0.00    +0.000 C 
ENDROOT
BRANCH   1   2
ATOM      2  C   UNL     1      48.981   7.814  16.168  0.00  0.00    +0.000 A 
ATOM      3  C   UNL     1      48.887   6.636  15.410  0.00  0.00    +0.000 A 
ATOM      4  C   UNL     1      48.224   6.632  14.186  0.00  0.00    +0.000 A 
ATOM      5  C   UNL     1      47.622   7.801  13.703  0.00  0.00    +0.000 A 
ATOM      6  C   UNL     1      47.710   8.974  14.465  0.00  0.00    +0.000 A 
ATOM      7  C   UNL     1      48.385   8.982  15.684  0.00  0.00    +0.000 A 
BRANCH   5   8
ATOM      8  C   UNL     1      46.884   7.775  12.384  0.00  0.00    +0.000 C 
BRANCH   8   9
ATOM      9  O   UNL     1      47.669   7.057  11.432  0.00  0.00    +0.000 OA
ATOM     10  H   UNL     1      48.361   6.585  11.922  0.00  0.00    +0.000 HD
ENDBRANCH   8   9
BRANCH   8  11
ATOM     11  C   UNL     1      45.462   7.165  12.524  0.00  0.00    +0.000 C 
BRANCH  11  12
ATOM     12  N   UNL     1      45.331   5.765  12.037  0.00  0.00    +0.000 NA
ATOM     13  C   UNL     1      44.275   5.625  11.013  0.00  0.00    +0.000 C 
ATOM     14  C   UNL     1      42.988   5.458  11.790  0.00  0.00    +0.000 C 
ATOM     15  C   UNL     1      43.403   4.574  12.950  0.00  0.00    +0.000 C 
ATOM     16  C   UNL     1      44.882   4.883  13.179  0.00  0.00    +0.000 C 
BRANCH  16  17
ATOM     17  C   UNL     1      45.723   3.599  13.182  0.00  0.00    +0.000 C 
ATOM     18  O   UNL     1      46.814   3.483  13.716  0.00  0.00    +0.000 OA
BRANCH  17  19
ATOM     19  O   UNL     1      45.117   2.589  12.503  0.00  0.00    +0.000 OA
ATOM     20  H   UNL     1      44.536   3.016  11.828  0.00  0.00    +0.000 HD
ENDBRANCH  17  19
ENDBRANCH  16  17
ENDBRANCH  11  12
ENDBRANCH   8  11
ENDBRANCH   5   8
ENDBRANCH   1   2
BRANCH   1  21
ATOM     21  N   UNL     1      48.731   7.530  18.568  0.00  0.00    +0.000 NA
ATOM     22  H   UNL     1      48.176   8.369  18.734  0.00  0.00    +0.000 HD
BRANCH  21  23
ATOM     23  C   UNL     1      49.390   7.162  19.844  0.00  0.00    +0.000 C 
BRANCH  23  25
ATOM     24  N   UNL     1      51.935   8.264  20.052  0.00  0.00    +0.000 NA
ATOM     25  C   UNL     1      50.780   7.764  19.957  0.00  0.00    +0.000 C 
ENDBRANCH  23  25
BRANCH  23  26
ATOM     26  C   UNL     1      49.410   5.634  20.083  0.00  0.00    +0.000 C 
ATOM     27  O   UNL     1      48.977   5.145  21.122  0.00  0.00    +0.000 OA
BRANCH  26  28
ATOM     28  C   UNL     1      50.016   4.750  19.063  0.00  0.00    +0.000 A 
ATOM     29  C   UNL     1      51.373   4.470  18.976  0.00  0.00    +0.000 A 
ATOM     30  S   UNL     1      51.752   3.242  17.855  0.00  0.00    +0.000 S 
ATOM     31  C   UNL     1      50.119   3.062  17.417  0.00  0.00    +0.000 A 
ATOM     32  N   UNL     1      49.727   2.113  16.526  0.00  0.00    +0.000 NA
ATOM     33  C   UNL     1      48.451   2.072  16.325  0.00  0.00    +0.000 A 
ATOM     34  N   UNL     1      47.539   2.922  16.899  0.00  0.00    +0.000 N 
ATOM     35  C   UNL     1      47.919   4.010  17.655  0.00  0.00    +0.000 A 
ATOM     36  O   UNL     1      47.163   4.955  17.850  0.00  0.00    +0.000 OA
ATOM     37  C   UNL     1      49.311   3.982  18.061  0.00  0.00    +0.000 A 
ATOM     38  H   UNL     1      46.575   2.907  16.603  0.00  0.00    +0.000 HD
ENDBRANCH  26  28
ENDBRANCH  23  26
ENDBRANCH  21  23
ENDBRANCH   1  21
TORSDOF 12
ENDMDL
MODEL 7
REMARK VINA RESULT:    -6.614      3.808      5.486
REMARK INTER + INTRA:         -11.638
REMARK INTER:                  -8.897
REMARK INTRA:                  -2.741
REMARK UNBOUND:                -0.770
REMARK  Name = 
REMARK  12 active torsions:
REMARK  status: ('A' for Active; 'I' for Inactive)
REMARK    1  A    between atoms: C_2  and  C_3
REMARK    2  A    between atoms: C_3  and  N_4
REMARK    3  A    between atoms: C_3  and  C_23
REMARK    4  A    between atoms: N_4  and  C_5
REMARK    5  A    between atoms: C_5  and  C_6
REMARK    6  A    between atoms: C_9  and  C_10
REMARK    7  A    between atoms: C_10  and  O_11
REMARK    8  A    between atoms: C_10  and  C_12
REMARK    9  A    between atoms: C_12  and  N_13
REMARK   10  A    between atoms: C_17  and  C_18
REMARK   11  A    between atoms: C_18  and  O_20
REMARK   12  A    between atoms: C_23  and  C_25
REMARK                            x       y       z     vdW  Elec       q    Type
REMARK                         _______ _______ _______ _____ _____    ______ ____
ROOT
ATOM      1  C   UNL     1      51.323   8.473  11.369  0.00  0.00    +0.000 C 
ENDROOT
BRANCH   1   2
ATOM      2  C   UNL     1      49.860   8.308  11.689  0.00  0.00    +0.000 A 
ATOM      3  C   UNL     1      49.338   7.044  12.006  0.00  0.00    +0.000 A 
ATOM      4  C   UNL     1      47.989   6.892  12.312  0.00  0.00    +0.000 A 
ATOM      5  C   UNL     1      47.136   8.004  12.329  0.00  0.00    +0.000 A 
ATOM      6  C   UNL     1      47.662   9.266  12.020  0.00  0.00    +0.000 A 
ATOM      7  C   UNL     1      49.010   9.417  11.700  0.00  0.00    +0.000 A 
BRANCH   5   8
ATOM      8  C   UNL     1      45.679   7.827  12.688  0.00  0.00    +0.000 C 
BRANCH   8   9
ATOM      9  O   UNL     1      45.161   9.080  13.137  0.00  0.00    +0.000 OA
ATOM     10  H   UNL     1      44.556   9.407  12.451  0.00  0.00    +0.000 HD
ENDBRANCH   8   9
BRANCH   8  11
ATOM     11  C   UNL     1      44.851   7.263  11.500  0.00  0.00    +0.000 C 
BRANCH  11  12
ATOM     12  N   UNL     1      44.676   5.786  11.505  0.00  0.00    +0.000 NA
ATOM     13  C   UNL     1      43.450   5.365  10.795  0.00  0.00    +0.000 C 
ATOM     14  C   UNL     1      42.340   5.482  11.816  0.00  0.00    +0.000 C 
ATOM     15  C   UNL     1      42.997   4.989  13.090  0.00  0.00    +0.000 C 
ATOM     16  C   UNL     1      44.482   5.313  12.926  0.00  0.00    +0.000 C 
BRANCH  16  17
ATOM     17  C   UNL     1      45.351   4.069  13.165  0.00  0.00    +0.000 C 
ATOM     18  O   UNL     1      46.420   4.070  13.752  0.00  0.00    +0.000 OA
BRANCH  17  19
ATOM     19  O   UNL     1      44.796   2.948  12.632  0.00  0.00    +0.000 OA
ATOM     20  H   UNL     1      44.742   2.288  13.366  0.00  0.00    +0.000 HD
ENDBRANCH  17  19
ENDBRANCH  16  17
ENDBRANCH  11  12
ENDBRANCH   8  11
ENDBRANCH   5   8
ENDBRANCH   1   2
BRANCH   1  21
ATOM     21  N   UNL     1      51.756   9.828  11.716  0.00  0.00    +0.000 NA
ATOM     22  H   UNL     1      51.858  10.364  10.854  0.00  0.00    +0.000 HD
BRANCH  21  23
ATOM     23  C   UNL     1      53.059   9.851  12.422  0.00  0.00    +0.000 C 
BRANCH  23  25
ATOM     24  N   UNL     1      54.411   7.432  12.181  0.00  0.00    +0.000 NA
ATOM     25  C   UNL     1      53.797   8.530  12.290  0.00  0.00    +0.000 C 
ENDBRANCH  23  25
BRANCH  23  26
ATOM     26  C   UNL     1      52.926  10.283  13.901  0.00  0.00    +0.000 C 
ATOM     27  O   UNL     1      53.913  10.555  14.578  0.00  0.00    +0.000 OA
BRANCH  26  28
ATOM     28  C   UNL     1      51.586  10.314  14.529  0.00  0.00    +0.000 A 
ATOM     29  C   UNL     1      50.796  11.451  14.631  0.00  0.00    +0.000 A 
ATOM     30  S   UNL     1      49.214  11.140  15.189  0.00  0.00    +0.000 S 
ATOM     31  C   UNL     1      49.538   9.479  15.348  0.00  0.00    +0.000 A 
ATOM     32  N   UNL     1      48.570   8.605  15.732  0.00  0.00    +0.000 NA
ATOM     33  C   UNL     1      48.957   7.372  15.769  0.00  0.00    +0.000 A 
ATOM     34  N   UNL     1      50.232   6.941  15.501  0.00  0.00    +0.000 N 
ATOM     35  C   UNL     1      51.277   7.815  15.295  0.00  0.00    +0.000 A 
ATOM     36  O   UNL     1      52.445   7.466  15.425  0.00  0.00    +0.000 OA
ATOM     37  C   UNL     1      50.857   9.183  15.055  0.00  0.00    +0.000 A 
ATOM     38  H   UNL     1      50.488   5.980  15.666  0.00  0.00    +0.000 HD
ENDBRANCH  26  28
ENDBRANCH  23  26
ENDBRANCH  21  23
ENDBRANCH   1  21
TORSDOF 12
ENDMDL
MODEL 8
REMARK VINA RESULT:    -6.581      2.678      3.340
REMARK INTER + INTRA:         -11.583
REMARK INTER:                  -9.433
REMARK INTRA:                  -2.150
REMARK UNBOUND:                -0.770
REMARK  Name = 
REMARK  12 active torsions:
REMARK  status: ('A' for Active; 'I' for Inactive)
REMARK    1  A    between atoms: C_2  and  C_3
REMARK    2  A    between atoms: C_3  and  N_4
REMARK    3  A    between atoms: C_3  and  C_23
REMARK    4  A    between atoms: N_4  and  C_5
REMARK    5  A    between atoms: C_5  and  C_6
REMARK    6  A    between atoms: C_9  and  C_10
REMARK    7  A    between atoms: C_10  and  O_11
REMARK    8  A    between atoms: C_10  and  C_12
REMARK    9  A    between atoms: C_12  and  N_13
REMARK   10  A    between atoms: C_17  and  C_18
REMARK   11  A    between atoms: C_18  and  O_20
REMARK   12  A    between atoms: C_23  and  C_25
REMARK                            x       y       z     vdW  Elec       q    Type
REMARK                         _______ _______ _______ _____ _____    ______ ____
ROOT
ATOM      1  C   UNL     1      50.043   9.233  13.893  0.00  0.00    +0.000 C 
ENDROOT
BRANCH   1   2
ATOM      2  C   UNL     1      48.764   8.718  13.287  0.00  0.00    +0.000 A 
ATOM      3  C   UNL     1      48.795   7.894  12.151  0.00  0.00    +0.000 A 
ATOM      4  C   UNL     1      47.615   7.408  11.595  0.00  0.00    +0.000 A 
ATOM      5  C   UNL     1      46.378   7.718  12.177  0.00  0.00    +0.000 A 
ATOM      6  C   UNL     1      46.350   8.535  13.316  0.00  0.00    +0.000 A 
ATOM      7  C   UNL     1      47.531   9.032  13.864  0.00  0.00    +0.000 A 
BRANCH   5   8
ATOM      8  C   UNL     1      45.107   7.164  11.578  0.00  0.00    +0.000 C 
BRANCH   8   9
ATOM      9  O   UNL     1      44.418   8.218  10.904  0.00  0.00    +0.000 OA
ATOM     10  H   UNL     1      43.536   7.885  10.669  0.00  0.00    +0.000 HD
ENDBRANCH   8   9
BRANCH   8  11
ATOM     11  C   UNL     1      45.384   5.967  10.626  0.00  0.00    +0.000 C 
BRANCH  11  12
ATOM     12  N   UNL     1      45.426   4.636  11.289  0.00  0.00    +0.000 NA
ATOM     13  C   UNL     1      44.452   3.690  10.706  0.00  0.00    +0.000 C 
ATOM     14  C   UNL     1      43.146   3.980  11.411  0.00  0.00    +0.000 C 
ATOM     15  C   UNL     1      43.580   4.241  12.839  0.00  0.00    +0.000 C 
ATOM     16  C   UNL     1      45.003   4.787  12.731  0.00  0.00    +0.000 C 
BRANCH  16  17
ATOM     17  C   UNL     1      45.971   3.994  13.623  0.00  0.00    +0.000 C 
ATOM     18  O   UNL     1      46.475   2.924  13.323  0.00  0.00    +0.000 OA
BRANCH  17  19
ATOM     19  O   UNL     1      46.201   4.618  14.809  0.00  0.00    +0.000 OA
ATOM     20  H   UNL     1      46.548   3.928  15.424  0.00  0.00    +0.000 HD
ENDBRANCH  17  19
ENDBRANCH  16  17
ENDBRANCH  11  12
ENDBRANCH   8  11
ENDBRANCH   5   8
ENDBRANCH   1   2
BRANCH   1  21
ATOM     21  N   UNL     1      49.747   9.958  15.130  0.00  0.00    +0.000 NA
ATOM     22  H   UNL     1      50.171  10.883  15.071  0.00  0.00    +0.000 HD
BRANCH  21  23
ATOM     23  C   UNL     1      50.290   9.285  16.334  0.00  0.00    +0.000 C 
BRANCH  23  25
ATOM     24  N   UNL     1      52.189   7.362  15.676  0.00  0.00    +0.000 NA
ATOM     25  C   UNL     1      51.327   8.234  15.975  0.00  0.00    +0.000 C 
ENDBRANCH  23  25
BRANCH  23  26
ATOM     26  C   UNL     1      49.182   8.704  17.242  0.00  0.00    +0.000 C 
ATOM     27  O   UNL     1      48.057   9.195  17.271  0.00  0.00    +0.000 OA
BRANCH  26  28
ATOM     28  C   UNL     1      49.500   7.568  18.137  0.00  0.00    +0.000 A 
ATOM     29  C   UNL     1      50.082   7.699  19.390  0.00  0.00    +0.000 A 
ATOM     30  S   UNL     1      50.116   6.248  20.286  0.00  0.00    +0.000 S 
ATOM     31  C   UNL     1      49.386   5.383  19.018  0.00  0.00    +0.000 A 
ATOM     32  N   UNL     1      49.065   4.069  19.152  0.00  0.00    +0.000 NA
ATOM     33  C   UNL     1      48.480   3.559  18.118  0.00  0.00    +0.000 A 
ATOM     34  N   UNL     1      48.227   4.233  16.949  0.00  0.00    +0.000 N 
ATOM     35  C   UNL     1      48.706   5.503  16.711  0.00  0.00    +0.000 A 
ATOM     36  O   UNL     1      48.807   5.951  15.575  0.00  0.00    +0.000 OA
ATOM     37  C   UNL     1      49.194   6.176  17.901  0.00  0.00    +0.000 A 
ATOM     38  H   UNL     1      47.876   3.737  16.144  0.00  0.00    +0.000 HD
ENDBRANCH  26  28
ENDBRANCH  23  26
ENDBRANCH  21  23
ENDBRANCH   1  21
TORSDOF 12
ENDMDL
MODEL 9
REMARK VINA RESULT:    -6.423      2.779      4.116
REMARK INTER + INTRA:         -11.323
REMARK INTER:                  -9.392
REMARK INTRA:                  -1.931
REMARK UNBOUND:                -0.770
REMARK  Name = 
REMARK  12 active torsions:
REMARK  status: ('A' for Active; 'I' for Inactive)
REMARK    1  A    between atoms: C_2  and  C_3
REMARK    2  A    between atoms: C_3  and  N_4
REMARK    3  A    between atoms: C_3  and  C_23
REMARK    4  A    between atoms: N_4  and  C_5
REMARK    5  A    between atoms: C_5  and  C_6
REMARK    6  A    between atoms: C_9  and  C_10
REMARK    7  A    between atoms: C_10  and  O_11
REMARK    8  A    between atoms: C_10  and  C_12
REMARK    9  A    between atoms: C_12  and  N_13
REMARK   10  A    between atoms: C_17  and  C_18
REMARK   11  A    between atoms: C_18  and  O_20
REMARK   12  A    between atoms: C_23  and  C_25
REMARK                            x       y       z     vdW  Elec       q    Type
REMARK                         _______ _______ _______ _____ _____    ______ ____
ROOT
ATOM      1  C   UNL     1      50.766   8.323  14.539  0.00  0.00    +0.000 C 
ENDROOT
BRANCH   1   2
ATOM      2  C   UNL     1      49.594   7.469  14.133  0.00  0.00    +0.000 A 
ATOM      3  C   UNL     1      49.227   7.361  12.782  0.00  0.00    +0.000 A 
ATOM      4  C   UNL     1      48.150   6.564  12.404  0.00  0.00    +0.000 A 
ATOM      5  C   UNL     1      47.431   5.841  13.365  0.00  0.00    +0.000 A 
ATOM      6  C   UNL     1      47.805   5.946  14.712  0.00  0.00    +0.000 A 
ATOM      7  C   UNL     1      48.874   6.754  15.093  0.00  0.00    +0.000 A 
BRANCH   5   8
ATOM      8  C   UNL     1      46.280   4.961  12.937  0.00  0.00    +0.000 C 
BRANCH   8   9
ATOM      9  O   UNL     1      46.054   3.976  13.945  0.00  0.00    +0.000 OA
ATOM     10  H   UNL     1      45.678   4.430  14.717  0.00  0.00    +0.000 HD
ENDBRANCH   8   9
BRANCH   8  11
ATOM     11  C   UNL     1      44.992   5.783  12.648  0.00  0.00    +0.000 C 
BRANCH  11  12
ATOM     12  N   UNL     1      44.302   5.440  11.377  0.00  0.00    +0.000 NA
ATOM     13  C   UNL     1      42.962   4.860  11.607  0.00  0.00    +0.000 C 
ATOM     14  C   UNL     1      43.202   3.388  11.853  0.00  0.00    +0.000 C 
ATOM     15  C   UNL     1      44.299   3.052  10.862  0.00  0.00    +0.000 C 
ATOM     16  C   UNL     1      45.076   4.353  10.669  0.00  0.00    +0.000 C 
BRANCH  16  17
ATOM     17  C   UNL     1      45.197   4.711   9.180  0.00  0.00    +0.000 C 
ATOM     18  O   UNL     1      46.141   5.302   8.681  0.00  0.00    +0.000 OA
BRANCH  17  19
ATOM     19  O   UNL     1      44.115   4.302   8.466  0.00  0.00    +0.000 OA
ATOM     20  H   UNL     1      44.157   4.776   7.600  0.00  0.00    +0.000 HD
ENDBRANCH  17  19
ENDBRANCH  16  17
ENDBRANCH  11  12
ENDBRANCH   8  11
ENDBRANCH   5   8
ENDBRANCH   1   2
BRANCH   1  21
ATOM     21  N   UNL     1      50.804   8.450  15.998  0.00  0.00    +0.000 NA
ATOM     22  H   UNL     1      50.515   9.396  16.247  0.00  0.00    +0.000 HD
BRANCH  21  23
ATOM     23  C   UNL     1      52.157   8.225  16.560  0.00  0.00    +0.000 C 
BRANCH  23  25
ATOM     24  N   UNL     1      53.948   7.340  14.624  0.00  0.00    +0.000 NA
ATOM     25  C   UNL     1      53.135   7.741  15.502  0.00  0.00    +0.000 C 
ENDBRANCH  23  25
BRANCH  23  26
ATOM     26  C   UNL     1      52.142   7.290  17.791  0.00  0.00    +0.000 C 
ATOM     27  O   UNL     1      53.019   7.350  18.648  0.00  0.00    +0.000 OA
BRANCH  26  28
ATOM     28  C   UNL     1      51.082   6.264  17.909  0.00  0.00    +0.000 A 
ATOM     29  C   UNL     1      51.199   4.961  17.444  0.00  0.00    +0.000 A 
ATOM     30  S   UNL     1      49.917   3.943  17.923  0.00  0.00    +0.000 S 
ATOM     31  C   UNL     1      49.140   5.215  18.741  0.00  0.00    +0.000 A 
ATOM     32  N   UNL     1      47.993   5.008  19.441  0.00  0.00    +0.000 NA
ATOM     33  C   UNL     1      47.543   6.061  20.042  0.00  0.00    +0.000 A 
ATOM     34  N   UNL     1      48.111   7.308  19.968  0.00  0.00    +0.000 N 
ATOM     35  C   UNL     1      49.159   7.593  19.120  0.00  0.00    +0.000 A 
ATOM     36  O   UNL     1      49.419   8.741  18.778  0.00  0.00    +0.000 OA
ATOM     37  C   UNL     1      49.811   6.414  18.581  0.00  0.00    +0.000 A 
ATOM     38  H   UNL     1      47.638   8.106  20.365  0.00  0.00    +0.000 HD
ENDBRANCH  26  28
ENDBRANCH  23  26
ENDBRANCH  21  23
ENDBRANCH   1  21
TORSDOF 12
ENDMDL
