MODEL 1
REMARK VINA RESULT:    -8.321      0.000      0.000
REMARK INTER + INTRA:         -10.283
REMARK INTER:                  -9.780
REMARK INTRA:                  -0.503
REMARK UNBOUND:                -0.503
REMARK  Name = 
REMARK  3 active torsions:
REMARK  status: ('A' for Active; 'I' for Inactive)
REMARK    1  A    between atoms: C_2  and  C_4
REMARK    2  A    between atoms: C_8  and  C_9
REMARK    3  A    between atoms: C_9  and  N_10
REMARK                            x       y       z     vdW  Elec       q    Type
REMARK                         _______ _______ _______ _____ _____    ______ ____
ROOT
ATOM      1  C   UNL     1      45.363   4.328  13.081  0.00  0.00    +0.000 A 
ATOM      2  C   UNL     1      44.312   5.218  13.323  0.00  0.00    +0.000 A 
ATOM      3  C   UNL     1      43.171   5.181  12.519  0.00  0.00    +0.000 A 
ATOM      4  C   UNL     1      43.093   4.282  11.451  0.00  0.00    +0.000 A 
ATOM      5  C   UNL     1      44.161   3.421  11.159  0.00  0.00    +0.000 A 
ATOM      6  C   UNL     1      45.284   3.437  12.001  0.00  0.00    +0.000 A 
ENDROOT
BRANCH   1   8
ATOM      7  N   UNL     1      47.008   5.538  14.419  0.00  0.00    +0.000 N 
ATOM      8  C   UNL     1      46.610   4.340  13.896  0.00  0.00    +0.000 C 
ATOM      9  O   UNL     1      47.240   3.315  14.114  0.00  0.00    +0.000 OA
ATOM     10  H   UNL     1      47.801   5.510  15.050  0.00  0.00    +0.000 HD
ATOM     11  H   UNL     1      46.400   6.342  14.470  0.00  0.00    +0.000 HD
ENDBRANCH   1   8
BRANCH   5  12
ATOM     12  C   UNL     1      44.150   2.570   9.915  0.00  0.00    +0.000 C 
BRANCH  12  13
ATOM     13  N   UNL     1      45.042   3.043   8.861  0.00  0.00    +0.000 N 
ATOM     14  C   UNL     1      45.253   4.372   8.577  0.00  0.00    +0.000 A 
ATOM     15  C   UNL     1      46.300   4.461   7.690  0.00  0.00    +0.000 A 
ATOM     16  C   UNL     1      46.755   3.143   7.423  0.00  0.00    +0.000 A 
ATOM     17  C   UNL     1      47.787   2.613   6.637  0.00  0.00    +0.000 A 
ATOM     18  N   UNL     1      48.004   1.276   6.588  0.00  0.00    +0.000 NA
ATOM     19  C   UNL     1      47.203   0.464   7.309  0.00  0.00    +0.000 A 
ATOM     20  C   UNL     1      46.158   0.886   8.117  0.00  0.00    +0.000 A 
ATOM     21  C   UNL     1      45.948   2.268   8.161  0.00  0.00    +0.000 A 
ENDBRANCH  12  13
ENDBRANCH   5  12
TORSDOF 3
ENDMDL
MODEL 2
REMARK VINA RESULT:    -7.433      2.592      6.195
REMARK INTER + INTRA:          -9.239
REMARK INTER:                  -8.806
REMARK INTRA:                  -0.433
REMARK UNBOUND:                -0.503
REMARK  Name = 
REMARK  3 active torsions:
REMARK  status: ('A' for Active; 'I' for Inactive)
REMARK    1  A    between atoms: C_2  and  C_4
REMARK    2  A    between atoms: C_8  and  C_9
REMARK    3  A    between atoms: C_9  and  N_10
REMARK                            x       y       z     vdW  Elec       q    Type
REMARK                         _______ _______ _______ _____ _____    ______ ____
ROOT
ATOM      1  C   UNL     1      46.530   2.433   7.090  0.00  0.00    +0.000 A 
ATOM      2  C   UNL     1      46.425   1.187   7.717  0.00  0.00    +0.000 A 
ATOM      3  C   UNL     1      45.478   0.993   8.724  0.00  0.00    +0.000 A 
ATOM      4  C   UNL     1      44.659   2.050   9.132  0.00  0.00    +0.000 A 
ATOM      5  C   UNL     1      44.788   3.321   8.553  0.00  0.00    +0.000 A 
ATOM      6  C   UNL     1      45.714   3.493   7.511  0.00  0.00    +0.000 A 
ENDROOT
BRANCH   1   8
ATOM      7  N   UNL     1      48.855   2.587   6.364  0.00  0.00    +0.000 N 
ATOM      8  C   UNL     1      47.536   2.698   6.024  0.00  0.00    +0.000 C 
ATOM      9  O   UNL     1      47.199   2.976   4.882  0.00  0.00    +0.000 OA
ATOM     10  H   UNL     1      49.521   2.674   5.605  0.00  0.00    +0.000 HD
ATOM     11  H   UNL     1      49.166   2.129   7.208  0.00  0.00    +0.000 HD
ENDBRANCH   1   8
BRANCH   5  12
ATOM     12  C   UNL     1      44.027   4.502   9.102  0.00  0.00    +0.000 C 
BRANCH  12  13
ATOM     13  N   UNL     1      44.061   4.610  10.557  0.00  0.00    +0.000 N 
ATOM     14  C   UNL     1      43.217   3.918  11.394  0.00  0.00    +0.000 A 
ATOM     15  C   UNL     1      43.661   4.084  12.685  0.00  0.00    +0.000 A 
ATOM     16  C   UNL     1      44.822   4.902  12.641  0.00  0.00    +0.000 A 
ATOM     17  C   UNL     1      45.709   5.380  13.615  0.00  0.00    +0.000 A 
ATOM     18  N   UNL     1      46.771   6.146  13.269  0.00  0.00    +0.000 NA
ATOM     19  C   UNL     1      46.956   6.443  11.965  0.00  0.00    +0.000 A 
ATOM     20  C   UNL     1      46.141   6.018  10.926  0.00  0.00    +0.000 A 
ATOM     21  C   UNL     1      45.050   5.226  11.299  0.00  0.00    +0.000 A 
ENDBRANCH  12  13
ENDBRANCH   5  12
TORSDOF 3
ENDMDL
MODEL 3
REMARK VINA RESULT:    -6.935      1.529      2.345
REMARK INTER + INTRA:          -8.654
REMARK INTER:                  -8.015
REMARK INTRA:                  -0.639
REMARK UNBOUND:                -0.503
REMARK  Name = 
REMARK  3 active torsions:
REMARK  status: ('A' for Active; 'I' for Inactive)
REMARK    1  A    between atoms: C_2  and  C_4
REMARK    2  A    between atoms: C_8  and  C_9
REMARK    3  A    between atoms: C_9  and  N_10
REMARK                            x       y       z     vdW  Elec       q    Type
REMARK                         _______ _______ _______ _____ _____    ______ ____
ROOT
ATOM      1  C   UNL     1      46.363   5.236  13.223  0.00  0.00    +0.000 A 
ATOM      2  C   UNL     1      46.713   6.584  13.094  0.00  0.00    +0.000 A 
ATOM      3  C   UNL     1      46.135   7.359  12.087  0.00  0.00    +0.000 A 
ATOM      4  C   UNL     1      45.236   6.782  11.185  0.00  0.00    +0.000 A 
ATOM      5  C   UNL     1      44.916   5.419  11.264  0.00  0.00    +0.000 A 
ATOM      6  C   UNL     1      45.469   4.660  12.309  0.00  0.00    +0.000 A 
ENDROOT
BRANCH   1   8
ATOM      7  N   UNL     1      47.131   4.896  15.516  0.00  0.00    +0.000 N 
ATOM      8  C   UNL     1      46.964   4.362  14.268  0.00  0.00    +0.000 C 
ATOM      9  O   UNL     1      47.272   3.202  14.032  0.00  0.00    +0.000 OA
ATOM     10  H   UNL     1      47.449   4.258  16.236  0.00  0.00    +0.000 HD
ATOM     11  H   UNL     1      46.675   5.745  15.812  0.00  0.00    +0.000 HD
ENDBRANCH   1   8
BRANCH   5  12
ATOM     12  C   UNL     1      44.081   4.757  10.198  0.00  0.00    +0.000 C 
BRANCH  12  13
ATOM     13  N   UNL     1      44.671   3.541   9.646  0.00  0.00    +0.000 N 
ATOM     14  C   UNL     1      44.206   2.275   9.916  0.00  0.00    +0.000 A 
ATOM     15  C   UNL     1      44.843   1.395   9.073  0.00  0.00    +0.000 A 
ATOM     16  C   UNL     1      45.727   2.145   8.252  0.00  0.00    +0.000 A 
ATOM     17  C   UNL     1      46.602   1.810   7.210  0.00  0.00    +0.000 A 
ATOM     18  N   UNL     1      47.326   2.766   6.579  0.00  0.00    +0.000 NA
ATOM     19  C   UNL     1      47.189   4.048   6.977  0.00  0.00    +0.000 A 
ATOM     20  C   UNL     1      46.352   4.484   7.993  0.00  0.00    +0.000 A 
ATOM     21  C   UNL     1      45.609   3.487   8.633  0.00  0.00    +0.000 A 
ENDBRANCH  12  13
ENDBRANCH   5  12
TORSDOF 3
ENDMDL
MODEL 4
REMARK VINA RESULT:    -6.852      2.492      5.883
REMARK INTER + INTRA:          -8.556
REMARK INTER:                  -7.917
REMARK INTRA:                  -0.639
REMARK UNBOUND:                -0.503
REMARK  Name = 
REMARK  3 active torsions:
REMARK  status: ('A' for Active; 'I' for Inactive)
REMARK    1  A    between atoms: C_2  and  C_4
REMARK    2  A    between atoms: C_8  and  C_9
REMARK    3  A    between atoms: C_9  and  N_10
REMARK                            x       y       z     vdW  Elec       q    Type
REMARK                         _______ _______ _______ _____ _____    ______ ____
ROOT
ATOM      1  C   UNL     1      45.612   3.216   8.420  0.00  0.00    +0.000 A 
ATOM      2  C   UNL     1      45.153   1.961   8.832  0.00  0.00    +0.000 A 
ATOM      3  C   UNL     1      44.265   1.864   9.905  0.00  0.00    +0.000 A 
ATOM      4  C   UNL     1      43.864   3.015  10.591  0.00  0.00    +0.000 A 
ATOM      5  C   UNL     1      44.358   4.276  10.227  0.00  0.00    +0.000 A 
ATOM      6  C   UNL     1      45.216   4.366   9.118  0.00  0.00    +0.000 A 
ENDROOT
BRANCH   1   8
ATOM      7  N   UNL     1      47.430   2.336   7.048  0.00  0.00    +0.000 N 
ATOM      8  C   UNL     1      46.575   3.373   7.294  0.00  0.00    +0.000 C 
ATOM      9  O   UNL     1      46.584   4.377   6.596  0.00  0.00    +0.000 OA
ATOM     10  H   UNL     1      48.009   2.419   6.221  0.00  0.00    +0.000 HD
ATOM     11  H   UNL     1      47.293   1.412   7.432  0.00  0.00    +0.000 HD
ENDBRANCH   1   8
BRANCH   5  12
ATOM     12  C   UNL     1      44.060   5.494  11.064  0.00  0.00    +0.000 C 
BRANCH  12  13
ATOM     13  N   UNL     1      45.244   6.132  11.633  0.00  0.00    +0.000 N 
ATOM     14  C   UNL     1      45.601   7.437  11.388  0.00  0.00    +0.000 A 
ATOM     15  C   UNL     1      46.627   7.769  12.242  0.00  0.00    +0.000 A 
ATOM     16  C   UNL     1      46.909   6.630  13.043  0.00  0.00    +0.000 A 
ATOM     17  C   UNL     1      47.811   6.376  14.085  0.00  0.00    +0.000 A 
ATOM     18  N   UNL     1      47.843   5.167  14.694  0.00  0.00    +0.000 NA
ATOM     19  C   UNL     1      46.990   4.209  14.275  0.00  0.00    +0.000 A 
ATOM     20  C   UNL     1      46.059   4.358  13.258  0.00  0.00    +0.000 A 
ATOM     21  C   UNL     1      46.036   5.613  12.640  0.00  0.00    +0.000 A 
ENDBRANCH  12  13
ENDBRANCH   5  12
TORSDOF 3
ENDMDL
MODEL 5
REMARK VINA RESULT:    -6.478      2.611      3.900
REMARK INTER + INTRA:          -8.117
REMARK INTER:                  -7.586
REMARK INTRA:                  -0.531
REMARK UNBOUND:                -0.503
REMARK  Name = 
REMARK  3 active torsions:
REMARK  status: ('A' for Active; 'I' for Inactive)
REMARK    1  A    between atoms: C_2  and  C_4
REMARK    2  A    between atoms: C_8  and  C_9
REMARK    3  A    between atoms: C_9  and  N_10
REMARK                            x       y       z     vdW  Elec       q    Type
REMARK                         _______ _______ _______ _____ _____    ______ ____
ROOT
ATOM      1  C   UNL     1      47.175   7.335  12.661  0.00  0.00    +0.000 A 
ATOM      2  C   UNL     1      47.190   8.729  12.545  0.00  0.00    +0.000 A 
ATOM      3  C   UNL     1      46.046   9.403  12.114  0.00  0.00    +0.000 A 
ATOM      4  C   UNL     1      44.898   8.687  11.764  0.00  0.00    +0.000 A 
ATOM      5  C   UNL     1      44.882   7.286  11.821  0.00  0.00    +0.000 A 
ATOM      6  C   UNL     1      46.024   6.621  12.297  0.00  0.00    +0.000 A 
ENDROOT
BRANCH   1   8
ATOM      7  N   UNL     1      49.595   7.016  12.679  0.00  0.00    +0.000 N 
ATOM      8  C   UNL     1      48.374   6.566  13.096  0.00  0.00    +0.000 C 
ATOM      9  O   UNL     1      48.276   5.587  13.822  0.00  0.00    +0.000 OA
ATOM     10  H   UNL     1      50.403   6.540  13.063  0.00  0.00    +0.000 HD
ATOM     11  H   UNL     1      49.735   7.939  12.294  0.00  0.00    +0.000 HD
ENDBRANCH   1   8
BRANCH   5  12
ATOM     12  C   UNL     1      43.708   6.503  11.289  0.00  0.00    +0.000 C 
BRANCH  12  13
ATOM     13  N   UNL     1      43.941   5.065  11.200  0.00  0.00    +0.000 N 
ATOM     14  C   UNL     1      43.366   4.144  12.045  0.00  0.00    +0.000 A 
ATOM     15  C   UNL     1      43.623   2.887  11.549  0.00  0.00    +0.000 A 
ATOM     16  C   UNL     1      44.377   3.039  10.355  0.00  0.00    +0.000 A 
ATOM     17  C   UNL     1      44.895   2.138   9.414  0.00  0.00    +0.000 A 
ATOM     18  N   UNL     1      45.576   2.584   8.331  0.00  0.00    +0.000 NA
ATOM     19  C   UNL     1      45.749   3.914   8.178  0.00  0.00    +0.000 A 
ATOM     20  C   UNL     1      45.275   4.886   9.046  0.00  0.00    +0.000 A 
ATOM     21  C   UNL     1      44.571   4.411  10.158  0.00  0.00    +0.000 A 
ENDBRANCH  12  13
ENDBRANCH   5  12
TORSDOF 3
ENDMDL
MODEL 6
REMARK VINA RESULT:    -6.331      3.167      6.328
REMARK INTER + INTRA:          -7.944
REMARK INTER:                  -7.430
REMARK INTRA:                  -0.514
REMARK UNBOUND:                -0.503
REMARK  Name = 
REMARK  3 active torsions:
REMARK  status: ('A' for Active; 'I' for Inactive)
REMARK    1  A    between atoms: C_2  and  C_4
REMARK    2  A    between atoms: C_8  and  C_9
REMARK    3  A    between atoms: C_9  and  N_10
REMARK                            x       y       z     vdW  Elec       q    Type
REMARK                         _______ _______ _______ _____ _____    ______ ____
ROOT
ATOM      1  C   UNL     1      44.787   3.999   9.803  0.00  0.00    +0.000 A 
ATOM      2  C   UNL     1      44.146   2.803  10.144  0.00  0.00    +0.000 A 
ATOM      3  C   UNL     1      43.547   2.669  11.398  0.00  0.00    +0.000 A 
ATOM      4  C   UNL     1      43.618   3.713  12.326  0.00  0.00    +0.000 A 
ATOM      5  C   UNL     1      44.305   4.897  12.021  0.00  0.00    +0.000 A 
ATOM      6  C   UNL     1      44.865   5.038  10.741  0.00  0.00    +0.000 A 
ENDROOT
BRANCH   1   8
ATOM      7  N   UNL     1      45.194   3.267   7.509  0.00  0.00    +0.000 N 
ATOM      8  C   UNL     1      45.458   4.186   8.486  0.00  0.00    +0.000 C 
ATOM      9  O   UNL     1      46.195   5.138   8.274  0.00  0.00    +0.000 OA
ATOM     10  H   UNL     1      45.580   3.464   6.593  0.00  0.00    +0.000 HD
ATOM     11  H   UNL     1      44.419   2.622   7.561  0.00  0.00    +0.000 HD
ENDBRANCH   1   8
BRANCH   5  12
ATOM     12  C   UNL     1      44.527   5.955  13.073  0.00  0.00    +0.000 C 
BRANCH  12  13
ATOM     13  N   UNL     1      45.873   6.521  13.076  0.00  0.00    +0.000 N 
ATOM     14  C   UNL     1      47.013   5.778  13.274  0.00  0.00    +0.000 A 
ATOM     15  C   UNL     1      48.099   6.576  12.999  0.00  0.00    +0.000 A 
ATOM     16  C   UNL     1      47.610   7.853  12.613  0.00  0.00    +0.000 A 
ATOM     17  C   UNL     1      48.225   9.043  12.199  0.00  0.00    +0.000 A 
ATOM     18  N   UNL     1      47.483  10.126  11.866  0.00  0.00    +0.000 NA
ATOM     19  C   UNL     1      46.139  10.038  11.943  0.00  0.00    +0.000 A 
ATOM     20  C   UNL     1      45.434   8.910  12.336  0.00  0.00    +0.000 A 
ATOM     21  C   UNL     1      46.213   7.799  12.675  0.00  0.00    +0.000 A 
ENDBRANCH  12  13
ENDBRANCH   5  12
TORSDOF 3
ENDMDL
MODEL 7
REMARK VINA RESULT:    -6.270      3.802      5.551
REMARK INTER + INTRA:          -7.873
REMARK INTER:                  -7.273
REMARK INTRA:                  -0.600
REMARK UNBOUND:                -0.503
REMARK  Name = 
REMARK  3 active torsions:
REMARK  status: ('A' for Active; 'I' for Inactive)
REMARK    1  A    between atoms: C_2  and  C_4
REMARK    2  A    between atoms: C_8  and  C_9
REMARK    3  A    between atoms: C_9  and  N_10
REMARK                            x       y       z     vdW  Elec       q    Type
REMARK                         _______ _______ _______ _____ _____    ______ ____
ROOT
ATOM      1  C   UNL     1      47.834   4.700  16.759  0.00  0.00    +0.000 A 
ATOM      2  C   UNL     1      48.635   5.741  17.239  0.00  0.00    +0.000 A 
ATOM      3  C   UNL     1      49.013   6.778  16.385  0.00  0.00    +0.000 A 
ATOM      4  C   UNL     1      48.624   6.759  15.042  0.00  0.00    +0.000 A 
ATOM      5  C   UNL     1      47.868   5.695  14.529  0.00  0.00    +0.000 A 
ATOM      6  C   UNL     1      47.456   4.680  15.408  0.00  0.00    +0.000 A 
ENDROOT
BRANCH   1   8
ATOM      7  N   UNL     1      48.198   3.279  18.711  0.00  0.00    +0.000 N 
ATOM      8  C   UNL     1      47.419   3.560  17.623  0.00  0.00    +0.000 C 
ATOM      9  O   UNL     1      46.406   2.916  17.389  0.00  0.00    +0.000 OA
ATOM     10  H   UNL     1      47.849   2.566  19.340  0.00  0.00    +0.000 HD
ATOM     11  H   UNL     1      48.886   3.923  19.071  0.00  0.00    +0.000 HD
ENDBRANCH   1   8
BRANCH   5  12
ATOM     12  C   UNL     1      47.588   5.586  13.052  0.00  0.00    +0.000 C 
BRANCH  12  13
ATOM     13  N   UNL     1      46.207   5.881  12.682  0.00  0.00    +0.000 N 
ATOM     14  C   UNL     1      45.741   7.149  12.420  0.00  0.00    +0.000 A 
ATOM     15  C   UNL     1      44.473   7.039  11.898  0.00  0.00    +0.000 A 
ATOM     16  C   UNL     1      44.149   5.658  11.833  0.00  0.00    +0.000 A 
ATOM     17  C   UNL     1      43.033   4.944  11.375  0.00  0.00    +0.000 A 
ATOM     18  N   UNL     1      43.012   3.590  11.420  0.00  0.00    +0.000 NA
ATOM     19  C   UNL     1      44.086   2.942  11.916  0.00  0.00    +0.000 A 
ATOM     20  C   UNL     1      45.238   3.553  12.390  0.00  0.00    +0.000 A 
ATOM     21  C   UNL     1      45.247   4.950  12.336  0.00  0.00    +0.000 A 
ENDBRANCH  12  13
ENDBRANCH   5  12
TORSDOF 3
ENDMDL
MODEL 8
REMARK VINA RESULT:    -6.107      2.806      4.552
REMARK INTER + INTRA:          -7.680
REMARK INTER:                  -7.124
REMARK INTRA:                  -0.556
REMARK UNBOUND:                -0.503
REMARK  Name = 
REMARK  3 active torsions:
REMARK  status: ('A' for Active; 'I' for Inactive)
REMARK    1  A    between atoms: C_2  and  C_4
REMARK    2  A    between atoms: C_8  and  C_9
REMARK    3  A    between atoms: C_9  and  N_10
REMARK                            x       y       z     vdW  Elec       q    Type
REMARK                         _______ _______ _______ _____ _____    ______ ____
ROOT
ATOM      1  C   UNL     1      48.628   7.054  14.120  0.00  0.00    +0.000 A 
ATOM      2  C   UNL     1      49.613   7.337  13.168  0.00  0.00    +0.000 A 
ATOM      3  C   UNL     1      49.254   7.541  11.835  0.00  0.00    +0.000 A 
ATOM      4  C   UNL     1      47.916   7.428  11.443  0.00  0.00    +0.000 A 
ATOM      5  C   UNL     1      46.922   7.091  12.373  0.00  0.00    +0.000 A 
ATOM      6  C   UNL     1      47.290   6.931  13.719  0.00  0.00    +0.000 A 
ENDROOT
BRANCH   1   8
ATOM      7  N   UNL     1      48.293   7.548  16.488  0.00  0.00    +0.000 N 
ATOM      8  C   UNL     1      48.961   6.809  15.551  0.00  0.00    +0.000 C 
ATOM      9  O   UNL     1      49.778   5.961  15.881  0.00  0.00    +0.000 OA
ATOM     10  H   UNL     1      48.460   7.300  17.456  0.00  0.00    +0.000 HD
ATOM     11  H   UNL     1      47.455   8.069  16.277  0.00  0.00    +0.000 HD
ENDBRANCH   1   8
BRANCH   5  12
ATOM     12  C   UNL     1      45.510   6.806  11.928  0.00  0.00    +0.000 C 
BRANCH  12  13
ATOM     13  N   UNL     1      45.209   5.387  11.769  0.00  0.00    +0.000 N 
ATOM     14  C   UNL     1      44.684   4.601  12.768  0.00  0.00    +0.000 A 
ATOM     15  C   UNL     1      44.326   3.391  12.219  0.00  0.00    +0.000 A 
ATOM     16  C   UNL     1      44.638   3.435  10.834  0.00  0.00    +0.000 A 
ATOM     17  C   UNL     1      44.479   2.531   9.775  0.00  0.00    +0.000 A 
ATOM     18  N   UNL     1      44.860   2.863   8.518  0.00  0.00    +0.000 NA
ATOM     19  C   UNL     1      45.400   4.082   8.307  0.00  0.00    +0.000 A 
ATOM     20  C   UNL     1      45.598   5.048   9.283  0.00  0.00    +0.000 A 
ATOM     21  C   UNL     1      45.197   4.692  10.575  0.00  0.00    +0.000 A 
ENDBRANCH  12  13
ENDBRANCH   5  12
TORSDOF 3
ENDMDL
MODEL 9
REMARK VINA RESULT:    -5.639      3.507      6.778
REMARK INTER + INTRA:          -7.130
REMARK INTER:                  -6.540
REMARK INTRA:                  -0.590
REMARK UNBOUND:                -0.503
REMARK  Name = 
REMARK  3 active torsions:
REMARK  status: ('A' for Active; 'I' for Inactive)
REMARK    1  A    between atoms: C_2  and  C_4
REMARK    2  A    between atoms: C_8  and  C_9
REMARK    3  A    between atoms: C_9  and  N_10
REMARK                            x       y       z     vdW  Elec       q    Type
REMARK                         _______ _______ _______ _____ _____    ______ ____
ROOT
ATOM      1  C   UNL     1      45.198   4.715  10.525  0.00  0.00    +0.000 A 
ATOM      2  C   UNL     1      44.950   3.672  11.424  0.00  0.00    +0.000 A 
ATOM      3  C   UNL     1      45.007   3.911  12.798  0.00  0.00    +0.000 A 
ATOM      4  C   UNL     1      45.346   5.179  13.277  0.00  0.00    +0.000 A 
ATOM      5  C   UNL     1      45.652   6.223  12.391  0.00  0.00    +0.000 A 
ATOM      6  C   UNL     1      45.549   5.982  11.011  0.00  0.00    +0.000 A 
ENDROOT
BRANCH   1   8
ATOM      7  N   UNL     1      44.126   3.792   8.535  0.00  0.00    +0.000 N 
ATOM      8  C   UNL     1      45.170   4.509   9.050  0.00  0.00    +0.000 C 
ATOM      9  O   UNL     1      46.030   4.984   8.322  0.00  0.00    +0.000 OA
ATOM     10  H   UNL     1      44.070   3.746   7.524  0.00  0.00    +0.000 HD
ATOM     11  H   UNL     1      43.285   3.599   9.058  0.00  0.00    +0.000 HD
ENDBRANCH   1   8
BRANCH   5  12
ATOM     12  C   UNL     1      46.177   7.541  12.900  0.00  0.00    +0.000 C 
BRANCH  12  13
ATOM     13  N   UNL     1      47.629   7.672  12.829  0.00  0.00    +0.000 N 
ATOM     14  C   UNL     1      48.289   8.317  11.809  0.00  0.00    +0.000 A 
ATOM     15  C   UNL     1      49.612   8.443  12.166  0.00  0.00    +0.000 A 
ATOM     16  C   UNL     1      49.771   7.860  13.451  0.00  0.00    +0.000 A 
ATOM     17  C   UNL     1      50.859   7.716  14.323  0.00  0.00    +0.000 A 
ATOM     18  N   UNL     1      50.706   7.117  15.528  0.00  0.00    +0.000 NA
ATOM     19  C   UNL     1      49.484   6.658  15.872  0.00  0.00    +0.000 A 
ATOM     20  C   UNL     1      48.345   6.754  15.086  0.00  0.00    +0.000 A 
ATOM     21  C   UNL     1      48.518   7.377  13.846  0.00  0.00    +0.000 A 
ENDBRANCH  12  13
ENDBRANCH   5  12
TORSDOF 3
ENDMDL
