MODEL 1
REMARK VINA RESULT:    -6.051      0.000      0.000
REMARK INTER + INTRA:          -8.307
REMARK INTER:                  -7.466
REMARK INTRA:                  -0.841
REMARK UNBOUND:                -0.841
REMARK  Name = 
REMARK  5 active torsions:
REMARK  status: ('A' for Active; 'I' for Inactive)
REMARK    1  A    between atoms: C_1  and  C_2
REMARK    2  A    between atoms: C_2  and  C_3
REMARK    3  A    between atoms: C_7  and  C_8
REMARK    4  A    between atoms: C_9  and  C_10
REMARK    5  A    between atoms: C_13  and  C_14
REMARK                            x       y       z     vdW  Elec       q    Type
REMARK                         _______ _______ _______ _____ _____    ______ ____
ROOT
ATOM      1  C   UNL     1      47.453   4.006  15.267  0.00  0.00    +0.000 C 
ATOM      2  C   UNL     1      46.785   4.973  14.614  0.00  0.00    +0.000 C 
ENDROOT
BRANCH   1   7
ATOM      3  C   UNL     1      48.757   5.510  18.484  0.00  0.00    +0.000 A 
ATOM      4  C   UNL     1      48.700   4.394  19.337  0.00  0.00    +0.000 A 
ATOM      5  C   UNL     1      48.247   3.157  18.874  0.00  0.00    +0.000 A 
ATOM      6  C   UNL     1      47.851   3.008  17.545  0.00  0.00    +0.000 A 
ATOM      7  C   UNL     1      47.909   4.091  16.663  0.00  0.00    +0.000 A 
ATOM      8  C   UNL     1      48.344   5.334  17.150  0.00  0.00    +0.000 A 
BRANCH   3  10
ATOM      9  C   UNL     1      50.722   6.968  18.989  0.00  0.00    +0.000 C 
ATOM     10  C   UNL     1      49.191   6.878  19.020  0.00  0.00    +0.000 C 
ATOM     11  C   UNL     1      48.543   8.053  18.276  0.00  0.00    +0.000 C 
ATOM     12  C   UNL     1      47.424   8.538  19.174  0.00  0.00    +0.000 C 
ATOM     13  C   UNL     1      47.515   7.691  20.418  0.00  0.00    +0.000 C 
ATOM     14  O   UNL     1      48.794   7.052  20.397  0.00  0.00    +0.000 OA
ENDBRANCH   3  10
ENDBRANCH   1   7
BRANCH   2  15
ATOM     15  C   UNL     1      46.353   4.866  13.211  0.00  0.00    +0.000 A 
ATOM     16  C   UNL     1      45.789   3.695  12.685  0.00  0.00    +0.000 A 
ATOM     17  C   UNL     1      45.394   3.632  11.346  0.00  0.00    +0.000 A 
ATOM     18  C   UNL     1      45.529   4.748  10.518  0.00  0.00    +0.000 A 
ATOM     19  C   UNL     1      46.073   5.930  11.035  0.00  0.00    +0.000 A 
ATOM     20  C   UNL     1      46.475   5.985  12.376  0.00  0.00    +0.000 A 
BRANCH  18  21
ATOM     21  C   UNL     1      45.112   4.622   9.096  0.00  0.00    +0.000 C 
ATOM     22  N   UNL     1      43.796   4.356   8.843  0.00  0.00    +0.000 N 
ATOM     23  O   UNL     1      45.920   4.714   8.179  0.00  0.00    +0.000 OA
ATOM     24  H   UNL     1      43.161   4.028   9.554  0.00  0.00    +0.000 HD
ATOM     25  H   UNL     1      43.561   4.165   7.878  0.00  0.00    +0.000 HD
ENDBRANCH  18  21
ENDBRANCH   2  15
TORSDOF 4
ENDMDL
MODEL 2
REMARK VINA RESULT:    -5.950      5.692      8.169
REMARK INTER + INTRA:          -8.182
REMARK INTER:                  -7.349
REMARK INTRA:                  -0.833
REMARK UNBOUND:                -0.841
REMARK  Name = 
REMARK  5 active torsions:
REMARK  status: ('A' for Active; 'I' for Inactive)
REMARK    1  A    between atoms: C_1  and  C_2
REMARK    2  A    between atoms: C_2  and  C_3
REMARK    3  A    between atoms: C_7  and  C_8
REMARK    4  A    between atoms: C_9  and  C_10
REMARK    5  A    between atoms: C_13  and  C_14
REMARK                            x       y       z     vdW  Elec       q    Type
REMARK                         _______ _______ _______ _____ _____    ______ ____
ROOT
ATOM      1  C   UNL     1      49.186   7.701  11.531  0.00  0.00    +0.000 C 
ATOM      2  C   UNL     1      48.678   6.886  12.472  0.00  0.00    +0.000 C 
ENDROOT
BRANCH   1   7
ATOM      3  C   UNL     1      52.748   7.862  10.268  0.00  0.00    +0.000 A 
ATOM      4  C   UNL     1      53.274   8.870  11.095  0.00  0.00    +0.000 A 
ATOM      5  C   UNL     1      52.482   9.493  12.061  0.00  0.00    +0.000 A 
ATOM      6  C   UNL     1      51.151   9.113  12.229  0.00  0.00    +0.000 A 
ATOM      7  C   UNL     1      50.598   8.103  11.437  0.00  0.00    +0.000 A 
ATOM      8  C   UNL     1      51.399   7.503  10.453  0.00  0.00    +0.000 A 
BRANCH   3  10
ATOM      9  C   UNL     1      54.599   6.251   9.800  0.00  0.00    +0.000 C 
ATOM     10  C   UNL     1      53.606   7.233   9.165  0.00  0.00    +0.000 C 
ATOM     11  C   UNL     1      52.777   6.561   8.063  0.00  0.00    +0.000 C 
ATOM     12  C   UNL     1      52.772   7.537   6.904  0.00  0.00    +0.000 C 
ATOM     13  C   UNL     1      53.649   8.683   7.344  0.00  0.00    +0.000 C 
ATOM     14  O   UNL     1      54.391   8.230   8.478  0.00  0.00    +0.000 OA
ENDBRANCH   3  10
ENDBRANCH   1   7
BRANCH   2  15
ATOM     15  C   UNL     1      47.256   6.511  12.550  0.00  0.00    +0.000 A 
ATOM     16  C   UNL     1      46.815   5.380  13.251  0.00  0.00    +0.000 A 
ATOM     17  C   UNL     1      45.456   5.055  13.299  0.00  0.00    +0.000 A 
ATOM     18  C   UNL     1      44.513   5.872  12.673  0.00  0.00    +0.000 A 
ATOM     19  C   UNL     1      44.938   7.016  11.986  0.00  0.00    +0.000 A 
ATOM     20  C   UNL     1      46.302   7.333  11.933  0.00  0.00    +0.000 A 
BRANCH  18  21
ATOM     21  C   UNL     1      43.083   5.472  12.737  0.00  0.00    +0.000 C 
ATOM     22  N   UNL     1      42.228   6.024  11.825  0.00  0.00    +0.000 N 
ATOM     23  O   UNL     1      42.669   4.705  13.598  0.00  0.00    +0.000 OA
ATOM     24  H   UNL     1      42.470   6.833  11.273  0.00  0.00    +0.000 HD
ATOM     25  H   UNL     1      41.246   5.823  11.960  0.00  0.00    +0.000 HD
ENDBRANCH  18  21
ENDBRANCH   2  15
TORSDOF 4
ENDMDL
MODEL 3
REMARK VINA RESULT:    -5.918      5.200      8.486
REMARK INTER + INTRA:          -8.143
REMARK INTER:                  -7.331
REMARK INTRA:                  -0.812
REMARK UNBOUND:                -0.841
REMARK  Name = 
REMARK  5 active torsions:
REMARK  status: ('A' for Active; 'I' for Inactive)
REMARK    1  A    between atoms: C_1  and  C_2
REMARK    2  A    between atoms: C_2  and  C_3
REMARK    3  A    between atoms: C_7  and  C_8
REMARK    4  A    between atoms: C_9  and  C_10
REMARK    5  A    between atoms: C_13  and  C_14
REMARK                            x       y       z     vdW  Elec       q    Type
REMARK                         _______ _______ _______ _____ _____    ______ ____
ROOT
ATOM      1  C   UNL     1      48.078   7.247  11.785  0.00  0.00    +0.000 C 
ATOM      2  C   UNL     1      49.406   7.136  11.956  0.00  0.00    +0.000 C 
ENDROOT
BRANCH   1   7
ATOM      3  C   UNL     1      45.012   5.038  11.945  0.00  0.00    +0.000 A 
ATOM      4  C   UNL     1      45.165   4.468  13.221  0.00  0.00    +0.000 A 
ATOM      5  C   UNL     1      46.253   4.800  14.031  0.00  0.00    +0.000 A 
ATOM      6  C   UNL     1      47.204   5.718  13.586  0.00  0.00    +0.000 A 
ATOM      7  C   UNL     1      47.076   6.316  12.329  0.00  0.00    +0.000 A 
ATOM      8  C   UNL     1      45.990   5.954  11.517  0.00  0.00    +0.000 A 
BRANCH   3  10
ATOM      9  C   UNL     1      42.587   5.382  11.447  0.00  0.00    +0.000 C 
ATOM     10  C   UNL     1      43.851   4.614  11.038  0.00  0.00    +0.000 C 
ATOM     11  C   UNL     1      44.156   4.787   9.545  0.00  0.00    +0.000 C 
ATOM     12  C   UNL     1      44.492   3.402   9.034  0.00  0.00    +0.000 C 
ATOM     13  C   UNL     1      44.295   2.483  10.214  0.00  0.00    +0.000 C 
ATOM     14  O   UNL     1      43.550   3.211  11.192  0.00  0.00    +0.000 OA
ENDBRANCH   3  10
ENDBRANCH   1   7
BRANCH   2  15
ATOM     15  C   UNL     1      50.386   8.076  11.387  0.00  0.00    +0.000 A 
ATOM     16  C   UNL     1      51.510   7.645  10.667  0.00  0.00    +0.000 A 
ATOM     17  C   UNL     1      52.421   8.568  10.146  0.00  0.00    +0.000 A 
ATOM     18  C   UNL     1      52.208   9.939  10.311  0.00  0.00    +0.000 A 
ATOM     19  C   UNL     1      51.080  10.383  11.012  0.00  0.00    +0.000 A 
ATOM     20  C   UNL     1      50.174   9.453  11.539  0.00  0.00    +0.000 A 
BRANCH  18  21
ATOM     21  C   UNL     1      53.217  10.878   9.755  0.00  0.00    +0.000 C 
ATOM     22  N   UNL     1      53.308  10.978   8.395  0.00  0.00    +0.000 N 
ATOM     23  O   UNL     1      53.970  11.516  10.480  0.00  0.00    +0.000 OA
ATOM     24  H   UNL     1      52.894  10.302   7.771  0.00  0.00    +0.000 HD
ATOM     25  H   UNL     1      54.074  11.537   8.042  0.00  0.00    +0.000 HD
ENDBRANCH  18  21
ENDBRANCH   2  15
TORSDOF 4
ENDMDL
MODEL 4
REMARK VINA RESULT:    -5.748      3.611      8.796
REMARK INTER + INTRA:          -7.933
REMARK INTER:                  -7.109
REMARK INTRA:                  -0.824
REMARK UNBOUND:                -0.841
REMARK  Name = 
REMARK  5 active torsions:
REMARK  status: ('A' for Active; 'I' for Inactive)
REMARK    1  A    between atoms: C_1  and  C_2
REMARK    2  A    between atoms: C_2  and  C_3
REMARK    3  A    between atoms: C_7  and  C_8
REMARK    4  A    between atoms: C_9  and  C_10
REMARK    5  A    between atoms: C_13  and  C_14
REMARK                            x       y       z     vdW  Elec       q    Type
REMARK                         _______ _______ _______ _____ _____    ______ ____
ROOT
ATOM      1  C   UNL     1      48.152   6.220  14.231  0.00  0.00    +0.000 C 
ATOM      2  C   UNL     1      47.917   5.907  15.516  0.00  0.00    +0.000 C 
ENDROOT
BRANCH   1   7
ATOM      3  C   UNL     1      45.528   5.937  11.522  0.00  0.00    +0.000 A 
ATOM      4  C   UNL     1      45.082   7.269  11.448  0.00  0.00    +0.000 A 
ATOM      5  C   UNL     1      45.631   8.257  12.268  0.00  0.00    +0.000 A 
ATOM      6  C   UNL     1      46.645   7.936  13.170  0.00  0.00    +0.000 A 
ATOM      7  C   UNL     1      47.125   6.626  13.260  0.00  0.00    +0.000 A 
ATOM      8  C   UNL     1      46.546   5.639  12.446  0.00  0.00    +0.000 A 
BRANCH   3  10
ATOM      9  C   UNL     1      45.454   4.903   9.249  0.00  0.00    +0.000 C 
ATOM     10  C   UNL     1      44.871   4.848  10.667  0.00  0.00    +0.000 C 
ATOM     11  C   UNL     1      44.996   3.445  11.273  0.00  0.00    +0.000 C 
ATOM     12  C   UNL     1      43.652   3.152  11.907  0.00  0.00    +0.000 C 
ATOM     13  C   UNL     1      42.789   4.345  11.580  0.00  0.00    +0.000 C 
ATOM     14  O   UNL     1      43.450   5.068  10.539  0.00  0.00    +0.000 OA
ENDBRANCH   3  10
ENDBRANCH   1   7
BRANCH   2  15
ATOM     15  C   UNL     1      48.964   5.489  16.463  0.00  0.00    +0.000 A 
ATOM     16  C   UNL     1      48.888   4.289  17.186  0.00  0.00    +0.000 A 
ATOM     17  C   UNL     1      49.902   3.929  18.078  0.00  0.00    +0.000 A 
ATOM     18  C   UNL     1      51.021   4.748  18.243  0.00  0.00    +0.000 A 
ATOM     19  C   UNL     1      51.118   5.939  17.513  0.00  0.00    +0.000 A 
ATOM     20  C   UNL     1      50.096   6.300  16.625  0.00  0.00    +0.000 A 
BRANCH  18  21
ATOM     21  C   UNL     1      52.061   4.329  19.219  0.00  0.00    +0.000 C 
ATOM     22  N   UNL     1      52.634   3.100  19.048  0.00  0.00    +0.000 N 
ATOM     23  O   UNL     1      52.372   5.037  20.169  0.00  0.00    +0.000 OA
ATOM     24  H   UNL     1      52.238   2.395  18.444  0.00  0.00    +0.000 HD
ATOM     25  H   UNL     1      53.254   2.793  19.786  0.00  0.00    +0.000 HD
ENDBRANCH  18  21
ENDBRANCH   2  15
TORSDOF 4
ENDMDL
MODEL 5
REMARK VINA RESULT:    -5.698      3.326      9.065
REMARK INTER + INTRA:          -7.872
REMARK INTER:                  -7.015
REMARK INTRA:                  -0.857
REMARK UNBOUND:                -0.841
REMARK  Name = 
REMARK  5 active torsions:
REMARK  status: ('A' for Active; 'I' for Inactive)
REMARK    1  A    between atoms: C_1  and  C_2
REMARK    2  A    between atoms: C_2  and  C_3
REMARK    3  A    between atoms: C_7  and  C_8
REMARK    4  A    between atoms: C_9  and  C_10
REMARK    5  A    between atoms: C_13  and  C_14
REMARK                            x       y       z     vdW  Elec       q    Type
REMARK                         _______ _______ _______ _____ _____    ______ ____
ROOT
ATOM      1  C   UNL     1      47.407   5.788  14.042  0.00  0.00    +0.000 C 
ATOM      2  C   UNL     1      47.333   4.668  14.780  0.00  0.00    +0.000 C 
ENDROOT
BRANCH   1   7
ATOM      3  C   UNL     1      45.390   5.166  10.904  0.00  0.00    +0.000 A 
ATOM      4  C   UNL     1      45.936   6.135  10.044  0.00  0.00    +0.000 A 
ATOM      5  C   UNL     1      46.956   6.985  10.475  0.00  0.00    +0.000 A 
ATOM      6  C   UNL     1      47.460   6.875  11.771  0.00  0.00    +0.000 A 
ATOM      7  C   UNL     1      46.953   5.912  12.648  0.00  0.00    +0.000 A 
ATOM      8  C   UNL     1      45.910   5.081  12.208  0.00  0.00    +0.000 A 
BRANCH   3  10
ATOM      9  C   UNL     1      42.951   4.702  11.191  0.00  0.00    +0.000 C 
ATOM     10  C   UNL     1      44.224   4.285  10.442  0.00  0.00    +0.000 C 
ATOM     11  C   UNL     1      44.014   4.305   8.923  0.00  0.00    +0.000 C 
ATOM     12  C   UNL     1      44.624   3.018   8.409  0.00  0.00    +0.000 C 
ATOM     13  C   UNL     1      45.085   2.276   9.639  0.00  0.00    +0.000 C 
ATOM     14  O   UNL     1      44.456   2.897  10.762  0.00  0.00    +0.000 OA
ENDBRANCH   3  10
ENDBRANCH   1   7
BRANCH   2  15
ATOM     15  C   UNL     1      47.809   4.569  16.170  0.00  0.00    +0.000 A 
ATOM     16  C   UNL     1      47.617   3.419  16.949  0.00  0.00    +0.000 A 
ATOM     17  C   UNL     1      48.080   3.365  18.267  0.00  0.00    +0.000 A 
ATOM     18  C   UNL     1      48.768   4.448  18.818  0.00  0.00    +0.000 A 
ATOM     19  C   UNL     1      48.984   5.595  18.044  0.00  0.00    +0.000 A 
ATOM     20  C   UNL     1      48.510   5.647  16.726  0.00  0.00    +0.000 A 
BRANCH  18  21
ATOM     21  C   UNL     1      49.223   4.347  20.230  0.00  0.00    +0.000 C 
ATOM     22  N   UNL     1      50.556   4.517  20.480  0.00  0.00    +0.000 N 
ATOM     23  O   UNL     1      48.444   4.084  21.138  0.00  0.00    +0.000 OA
ATOM     24  H   UNL     1      51.254   4.484  19.753  0.00  0.00    +0.000 HD
ATOM     25  H   UNL     1      50.855   4.333  21.429  0.00  0.00    +0.000 HD
ENDBRANCH  18  21
ENDBRANCH   2  15
TORSDOF 4
ENDMDL
MODEL 6
REMARK VINA RESULT:    -5.686      1.668      2.892
REMARK INTER + INTRA:          -7.857
REMARK INTER:                  -7.018
REMARK INTRA:                  -0.839
REMARK UNBOUND:                -0.841
REMARK  Name = 
REMARK  5 active torsions:
REMARK  status: ('A' for Active; 'I' for Inactive)
REMARK    1  A    between atoms: C_1  and  C_2
REMARK    2  A    between atoms: C_2  and  C_3
REMARK    3  A    between atoms: C_7  and  C_8
REMARK    4  A    between atoms: C_9  and  C_10
REMARK    5  A    between atoms: C_13  and  C_14
REMARK                            x       y       z     vdW  Elec       q    Type
REMARK                         _______ _______ _______ _____ _____    ______ ____
ROOT
ATOM      1  C   UNL     1      48.241   5.948  14.778  0.00  0.00    +0.000 C 
ATOM      2  C   UNL     1      47.442   6.573  13.897  0.00  0.00    +0.000 C 
ENDROOT
BRANCH   1   7
ATOM      3  C   UNL     1      49.439   7.092  18.178  0.00  0.00    +0.000 A 
ATOM      4  C   UNL     1      50.619   7.771  17.826  0.00  0.00    +0.000 A 
ATOM      5  C   UNL     1      51.024   7.864  16.494  0.00  0.00    +0.000 A 
ATOM      6  C   UNL     1      50.252   7.289  15.484  0.00  0.00    +0.000 A 
ATOM      7  C   UNL     1      49.065   6.621  15.795  0.00  0.00    +0.000 A 
ATOM      8  C   UNL     1      48.683   6.515  17.142  0.00  0.00    +0.000 A 
BRANCH   3  10
ATOM      9  C   UNL     1      48.541   8.288  20.180  0.00  0.00    +0.000 C 
ATOM     10  C   UNL     1      49.040   6.938  19.650  0.00  0.00    +0.000 C 
ATOM     11  C   UNL     1      48.009   5.826  19.884  0.00  0.00    +0.000 C 
ATOM     12  C   UNL     1      48.795   4.648  20.422  0.00  0.00    +0.000 C 
ATOM     13  C   UNL     1      50.214   5.140  20.551  0.00  0.00    +0.000 C 
ATOM     14  O   UNL     1      50.172   6.566  20.465  0.00  0.00    +0.000 OA
ENDBRANCH   3  10
ENDBRANCH   1   7
BRANCH   2  15
ATOM     15  C   UNL     1      46.638   5.875  12.880  0.00  0.00    +0.000 A 
ATOM     16  C   UNL     1      46.461   6.380  11.584  0.00  0.00    +0.000 A 
ATOM     17  C   UNL     1      45.688   5.689  10.648  0.00  0.00    +0.000 A 
ATOM     18  C   UNL     1      45.101   4.466  10.983  0.00  0.00    +0.000 A 
ATOM     19  C   UNL     1      45.286   3.940  12.267  0.00  0.00    +0.000 A 
ATOM     20  C   UNL     1      46.056   4.641  13.205  0.00  0.00    +0.000 A 
BRANCH  18  21
ATOM     21  C   UNL     1      44.271   3.781   9.957  0.00  0.00    +0.000 C 
ATOM     22  N   UNL     1      44.106   4.407   8.753  0.00  0.00    +0.000 N 
ATOM     23  O   UNL     1      43.720   2.711  10.186  0.00  0.00    +0.000 OA
ATOM     24  H   UNL     1      44.326   5.382   8.613  0.00  0.00    +0.000 HD
ATOM     25  H   UNL     1      43.449   3.976   8.116  0.00  0.00    +0.000 HD
ENDBRANCH  18  21
ENDBRANCH   2  15
TORSDOF 4
ENDMDL
MODEL 7
REMARK VINA RESULT:    -5.465      1.821      2.740
REMARK INTER + INTRA:          -7.584
REMARK INTER:                  -6.768
REMARK INTRA:                  -0.816
REMARK UNBOUND:                -0.841
REMARK  Name = 
REMARK  5 active torsions:
REMARK  status: ('A' for Active; 'I' for Inactive)
REMARK    1  A    between atoms: C_1  and  C_2
REMARK    2  A    between atoms: C_2  and  C_3
REMARK    3  A    between atoms: C_7  and  C_8
REMARK    4  A    between atoms: C_9  and  C_10
REMARK    5  A    between atoms: C_13  and  C_14
REMARK                            x       y       z     vdW  Elec       q    Type
REMARK                         _______ _______ _______ _____ _____    ______ ____
ROOT
ATOM      1  C   UNL     1      48.257   6.080  14.931  0.00  0.00    +0.000 C 
ATOM      2  C   UNL     1      47.760   6.652  13.822  0.00  0.00    +0.000 C 
ENDROOT
BRANCH   1   7
ATOM      3  C   UNL     1      49.835   7.107  18.212  0.00  0.00    +0.000 A 
ATOM      4  C   UNL     1      50.952   7.825  17.752  0.00  0.00    +0.000 A 
ATOM      5  C   UNL     1      51.194   7.982  16.387  0.00  0.00    +0.000 A 
ATOM      6  C   UNL     1      50.317   7.433  15.451  0.00  0.00    +0.000 A 
ATOM      7  C   UNL     1      49.186   6.727  15.871  0.00  0.00    +0.000 A 
ATOM      8  C   UNL     1      48.969   6.557  17.248  0.00  0.00    +0.000 A 
BRANCH   3  10
ATOM      9  C   UNL     1      50.275   5.560  20.124  0.00  0.00    +0.000 C 
ATOM     10  C   UNL     1      49.617   6.883  19.712  0.00  0.00    +0.000 C 
ATOM     11  C   UNL     1      50.112   8.050  20.577  0.00  0.00    +0.000 C 
ATOM     12  C   UNL     1      48.871   8.833  20.953  0.00  0.00    +0.000 C 
ATOM     13  C   UNL     1      47.717   8.058  20.369  0.00  0.00    +0.000 C 
ATOM     14  O   UNL     1      48.213   6.762  20.027  0.00  0.00    +0.000 OA
ENDBRANCH   3  10
ENDBRANCH   1   7
BRANCH   2  15
ATOM     15  C   UNL     1      46.843   5.975  12.890  0.00  0.00    +0.000 A 
ATOM     16  C   UNL     1      46.546   6.490  11.620  0.00  0.00    +0.000 A 
ATOM     17  C   UNL     1      45.667   5.818  10.766  0.00  0.00    +0.000 A 
ATOM     18  C   UNL     1      45.091   4.607  11.156  0.00  0.00    +0.000 A 
ATOM     19  C   UNL     1      45.394   4.072  12.414  0.00  0.00    +0.000 A 
ATOM     20  C   UNL     1      46.270   4.753  13.270  0.00  0.00    +0.000 A 
BRANCH  18  21
ATOM     21  C   UNL     1      44.147   3.944  10.218  0.00  0.00    +0.000 C 
ATOM     22  N   UNL     1      44.132   4.377   8.922  0.00  0.00    +0.000 N 
ATOM     23  O   UNL     1      43.380   3.066  10.594  0.00  0.00    +0.000 OA
ATOM     24  H   UNL     1      44.554   5.247   8.634  0.00  0.00    +0.000 HD
ATOM     25  H   UNL     1      43.405   3.989   8.334  0.00  0.00    +0.000 HD
ENDBRANCH  18  21
ENDBRANCH   2  15
TORSDOF 4
ENDMDL
MODEL 8
REMARK VINA RESULT:    -5.379      2.522      3.686
REMARK INTER + INTRA:          -7.478
REMARK INTER:                  -6.656
REMARK INTRA:                  -0.822
REMARK UNBOUND:                -0.841
REMARK  Name = 
REMARK  5 active torsions:
REMARK  status: ('A' for Active; 'I' for Inactive)
REMARK    1  A    between atoms: C_1  and  C_2
REMARK    2  A    between atoms: C_2  and  C_3
REMARK    3  A    between atoms: C_7  and  C_8
REMARK    4  A    between atoms: C_9  and  C_10
REMARK    5  A    between atoms: C_13  and  C_14
REMARK                            x       y       z     vdW  Elec       q    Type
REMARK                         _______ _______ _______ _____ _____    ______ ____
ROOT
ATOM      1  C   UNL     1      48.382   6.253  14.844  0.00  0.00    +0.000 C 
ATOM      2  C   UNL     1      47.915   6.760  13.691  0.00  0.00    +0.000 C 
ENDROOT
BRANCH   1   7
ATOM      3  C   UNL     1      50.930   6.670  17.609  0.00  0.00    +0.000 A 
ATOM      4  C   UNL     1      51.436   7.946  17.308  0.00  0.00    +0.000 A 
ATOM      5  C   UNL     1      50.953   8.673  16.219  0.00  0.00    +0.000 A 
ATOM      6  C   UNL     1      49.945   8.143  15.413  0.00  0.00    +0.000 A 
ATOM      7  C   UNL     1      49.406   6.884  15.691  0.00  0.00    +0.000 A 
ATOM      8  C   UNL     1      49.919   6.155  16.776  0.00  0.00    +0.000 A 
BRANCH   3  10
ATOM      9  C   UNL     1      51.174   6.544  20.092  0.00  0.00    +0.000 C 
ATOM     10  C   UNL     1      51.515   5.853  18.766  0.00  0.00    +0.000 C 
ATOM     11  C   UNL     1      51.061   4.387  18.762  0.00  0.00    +0.000 C 
ATOM     12  C   UNL     1      52.223   3.601  18.190  0.00  0.00    +0.000 C 
ATOM     13  C   UNL     1      53.316   4.615  17.961  0.00  0.00    +0.000 C 
ATOM     14  O   UNL     1      52.955   5.791  18.689  0.00  0.00    +0.000 OA
ENDBRANCH   3  10
ENDBRANCH   1   7
BRANCH   2  15
ATOM     15  C   UNL     1      46.899   6.098  12.856  0.00  0.00    +0.000 A 
ATOM     16  C   UNL     1      46.109   5.041  13.330  0.00  0.00    +0.000 A 
ATOM     17  C   UNL     1      45.157   4.437  12.504  0.00  0.00    +0.000 A 
ATOM     18  C   UNL     1      44.959   4.897  11.200  0.00  0.00    +0.000 A 
ATOM     19  C   UNL     1      45.728   5.964  10.721  0.00  0.00    +0.000 A 
ATOM     20  C   UNL     1      46.687   6.562  11.550  0.00  0.00    +0.000 A 
BRANCH  18  21
ATOM     21  C   UNL     1      43.948   4.206  10.357  0.00  0.00    +0.000 C 
ATOM     22  N   UNL     1      43.958   4.466   9.015  0.00  0.00    +0.000 N 
ATOM     23  O   UNL     1      43.109   3.458  10.843  0.00  0.00    +0.000 OA
ATOM     24  H   UNL     1      44.454   5.249   8.617  0.00  0.00    +0.000 HD
ATOM     25  H   UNL     1      43.193   4.073   8.483  0.00  0.00    +0.000 HD
ENDBRANCH  18  21
ENDBRANCH   2  15
TORSDOF 4
ENDMDL
MODEL 9
REMARK VINA RESULT:    -5.280      4.605      6.152
REMARK INTER + INTRA:          -7.356
REMARK INTER:                  -6.528
REMARK INTRA:                  -0.829
REMARK UNBOUND:                -0.841
REMARK  Name = 
REMARK  5 active torsions:
REMARK  status: ('A' for Active; 'I' for Inactive)
REMARK    1  A    between atoms: C_1  and  C_2
REMARK    2  A    between atoms: C_2  and  C_3
REMARK    3  A    between atoms: C_7  and  C_8
REMARK    4  A    between atoms: C_9  and  C_10
REMARK    5  A    between atoms: C_13  and  C_14
REMARK                            x       y       z     vdW  Elec       q    Type
REMARK                         _______ _______ _______ _____ _____    ______ ____
ROOT
ATOM      1  C   UNL     1      48.903   7.668  11.846  0.00  0.00    +0.000 C 
ATOM      2  C   UNL     1      47.857   7.359  12.631  0.00  0.00    +0.000 C 
ENDROOT
BRANCH   1   7
ATOM      3  C   UNL     1      51.780   9.550  13.424  0.00  0.00    +0.000 A 
ATOM      4  C   UNL     1      51.807  10.705  12.625  0.00  0.00    +0.000 A 
ATOM      5  C   UNL     1      50.896  10.880  11.581  0.00  0.00    +0.000 A 
ATOM      6  C   UNL     1      49.931   9.907  11.323  0.00  0.00    +0.000 A 
ATOM      7  C   UNL     1      49.863   8.752  12.108  0.00  0.00    +0.000 A 
ATOM      8  C   UNL     1      50.802   8.580  13.138  0.00  0.00    +0.000 A 
BRANCH   3  10
ATOM      9  C   UNL     1      52.462  10.196  15.739  0.00  0.00    +0.000 C 
ATOM     10  C   UNL     1      52.828   9.338  14.522  0.00  0.00    +0.000 C 
ATOM     11  C   UNL     1      53.012   7.864  14.908  0.00  0.00    +0.000 C 
ATOM     12  C   UNL     1      54.279   7.415  14.211  0.00  0.00    +0.000 C 
ATOM     13  C   UNL     1      54.815   8.646  13.525  0.00  0.00    +0.000 C 
ATOM     14  O   UNL     1      54.136   9.769  14.090  0.00  0.00    +0.000 OA
ENDBRANCH   3  10
ENDBRANCH   1   7
BRANCH   2  15
ATOM     15  C   UNL     1      46.903   6.277  12.337  0.00  0.00    +0.000 A 
ATOM     16  C   UNL     1      46.690   5.204  13.215  0.00  0.00    +0.000 A 
ATOM     17  C   UNL     1      45.778   4.193  12.898  0.00  0.00    +0.000 A 
ATOM     18  C   UNL     1      45.043   4.253  11.712  0.00  0.00    +0.000 A 
ATOM     19  C   UNL     1      45.232   5.328  10.836  0.00  0.00    +0.000 A 
ATOM     20  C   UNL     1      46.153   6.335  11.154  0.00  0.00    +0.000 A 
BRANCH  18  21
ATOM     21  C   UNL     1      44.101   3.142  11.413  0.00  0.00    +0.000 C 
ATOM     22  N   UNL     1      43.701   2.352  12.455  0.00  0.00    +0.000 N 
ATOM     23  O   UNL     1      43.721   2.911  10.272  0.00  0.00    +0.000 OA
ATOM     24  H   UNL     1      44.173   2.347  13.346  0.00  0.00    +0.000 HD
ATOM     25  H   UNL     1      43.151   1.539  12.208  0.00  0.00    +0.000 HD
ENDBRANCH  18  21
ENDBRANCH   2  15
TORSDOF 4
ENDMDL
