MODEL 1
REMARK VINA RESULT:    -7.990      0.000      0.000
REMARK INTER + INTRA:         -10.971
REMARK INTER:                 -10.326
REMARK INTRA:                  -0.646
REMARK UNBOUND:                -0.646
REMARK  Name = 
REMARK  5 active torsions:
REMARK  status: ('A' for Active; 'I' for Inactive)
REMARK    1  A    between atoms: C_2  and  C_4
REMARK    2  A    between atoms: C_7  and  O_8
REMARK    3  A    between atoms: O_8  and  C_9
REMARK    4  A    between atoms: C_9  and  C_10
REMARK    5  A    between atoms: C_14  and  N_15
REMARK                            x       y       z     vdW  Elec       q    Type
REMARK                         _______ _______ _______ _____ _____    ______ ____
ROOT
ATOM      1  C   UNL     1      43.667   3.564  11.534  0.00  0.00    +0.000 C 
ENDROOT
BRANCH   1   2
ATOM      2  C   UNL     1      44.451   4.775  11.958  0.00  0.00    +0.000 A 
ATOM      3  C   UNL     1      44.060   6.047  11.567  0.00  0.00    +0.000 A 
ATOM      4  N   UNL     1      44.691   7.159  11.989  0.00  0.00    +0.000 NA
ATOM      5  C   UNL     1      45.737   6.936  12.827  0.00  0.00    +0.000 A 
ATOM      6  C   UNL     1      46.170   5.672  13.240  0.00  0.00    +0.000 A 
ATOM      7  N   UNL     1      45.513   4.583  12.785  0.00  0.00    +0.000 NA
BRANCH   6   8
ATOM      8  N   UNL     1      47.198   5.475  14.127  0.00  0.00    +0.000 N 
ATOM      9  C   UNL     1      47.287   4.216  14.874  0.00  0.00    +0.000 C 
ATOM     10  C   UNL     1      47.677   4.505  16.331  0.00  0.00    +0.000 C 
ATOM     11  O   UNL     1      48.867   5.309  16.414  0.00  0.00    +0.000 OA
ATOM     12  C   UNL     1      48.669   6.563  15.741  0.00  0.00    +0.000 C 
ATOM     13  C   UNL     1      48.355   6.359  14.249  0.00  0.00    +0.000 C 
ENDBRANCH   6   8
ENDBRANCH   1   2
BRANCH   1  14
ATOM     14  O   UNL     1      43.400   3.633  10.131  0.00  0.00    +0.000 OA
BRANCH  14  18
ATOM     15  C   UNL     1      46.372   2.628   7.546  0.00  0.00    +0.000 A 
ATOM     16  N   UNL     1      45.984   1.643   8.392  0.00  0.00    +0.000 NA
ATOM     17  C   UNL     1      45.001   1.977   9.258  0.00  0.00    +0.000 A 
ATOM     18  C   UNL     1      44.397   3.218   9.307  0.00  0.00    +0.000 A 
ATOM     19  C   UNL     1      44.882   4.133   8.393  0.00  0.00    +0.000 A 
ATOM     20  N   UNL     1      45.861   3.873   7.502  0.00  0.00    +0.000 NA
BRANCH  15  22
ATOM     21  N   UNL     1      47.518   3.048   5.426  0.00  0.00    +0.000 N 
ATOM     22  C   UNL     1      47.466   2.280   6.565  0.00  0.00    +0.000 C 
ATOM     23  O   UNL     1      48.282   1.379   6.739  0.00  0.00    +0.000 OA
ATOM     24  H   UNL     1      48.256   2.877   4.758  0.00  0.00    +0.000 HD
ATOM     25  H   UNL     1      46.874   3.820   5.298  0.00  0.00    +0.000 HD
ENDBRANCH  15  22
ENDBRANCH  14  18
ENDBRANCH   1  14
TORSDOF 5
ENDMDL
MODEL 2
REMARK VINA RESULT:    -7.985      1.826      2.850
REMARK INTER + INTRA:         -10.965
REMARK INTER:                 -10.337
REMARK INTRA:                  -0.628
REMARK UNBOUND:                -0.646
REMARK  Name = 
REMARK  5 active torsions:
REMARK  status: ('A' for Active; 'I' for Inactive)
REMARK    1  A    between atoms: C_2  and  C_4
REMARK    2  A    between atoms: C_7  and  O_8
REMARK    3  A    between atoms: O_8  and  C_9
REMARK    4  A    between atoms: C_9  and  C_10
REMARK    5  A    between atoms: C_14  and  N_15
REMARK                            x       y       z     vdW  Elec       q    Type
REMARK                         _______ _______ _______ _____ _____    ______ ____
ROOT
ATOM      1  C   UNL     1      43.545   4.517  10.863  0.00  0.00    +0.000 C 
ENDROOT
BRANCH   1   2
ATOM      2  C   UNL     1      44.645   4.661  11.878  0.00  0.00    +0.000 A 
ATOM      3  C   UNL     1      45.005   3.596  12.690  0.00  0.00    +0.000 A 
ATOM      4  N   UNL     1      46.034   3.662  13.556  0.00  0.00    +0.000 NA
ATOM      5  C   UNL     1      46.690   4.852  13.570  0.00  0.00    +0.000 A 
ATOM      6  C   UNL     1      46.356   5.953  12.775  0.00  0.00    +0.000 A 
ATOM      7  N   UNL     1      45.311   5.845  11.926  0.00  0.00    +0.000 NA
BRANCH   6   8
ATOM      8  N   UNL     1      47.065   7.128  12.770  0.00  0.00    +0.000 N 
ATOM      9  C   UNL     1      46.402   8.383  13.136  0.00  0.00    +0.000 C 
ATOM     10  C   UNL     1      46.849   9.502  12.184  0.00  0.00    +0.000 C 
ATOM     11  O   UNL     1      48.283   9.606  12.120  0.00  0.00    +0.000 OA
ATOM     12  C   UNL     1      48.851   8.368  11.663  0.00  0.00    +0.000 C 
ATOM     13  C   UNL     1      48.516   7.208  12.616  0.00  0.00    +0.000 C 
ENDBRANCH   6   8
ENDBRANCH   1   2
BRANCH   1  14
ATOM     14  O   UNL     1      43.629   3.232  10.243  0.00  0.00    +0.000 OA
BRANCH  14  18
ATOM     15  C   UNL     1      46.439   2.593   7.376  0.00  0.00    +0.000 A 
ATOM     16  N   UNL     1      45.881   3.828   7.374  0.00  0.00    +0.000 NA
ATOM     17  C   UNL     1      44.941   4.040   8.321  0.00  0.00    +0.000 A 
ATOM     18  C   UNL     1      44.551   3.099   9.253  0.00  0.00    +0.000 A 
ATOM     19  C   UNL     1      45.195   1.882   9.149  0.00  0.00    +0.000 A 
ATOM     20  N   UNL     1      46.139   1.597   8.229  0.00  0.00    +0.000 NA
BRANCH  15  22
ATOM     21  N   UNL     1      47.543   3.230   5.288  0.00  0.00    +0.000 N 
ATOM     22  C   UNL     1      47.495   2.331   6.328  0.00  0.00    +0.000 C 
ATOM     23  O   UNL     1      48.284   1.392   6.369  0.00  0.00    +0.000 OA
ATOM     24  H   UNL     1      48.257   3.118   4.582  0.00  0.00    +0.000 HD
ATOM     25  H   UNL     1      46.923   4.031   5.273  0.00  0.00    +0.000 HD
ENDBRANCH  15  22
ENDBRANCH  14  18
ENDBRANCH   1  14
TORSDOF 5
ENDMDL
MODEL 3
REMARK VINA RESULT:    -6.997      2.019      7.225
REMARK INTER + INTRA:          -9.688
REMARK INTER:                  -9.516
REMARK INTRA:                  -0.172
REMARK UNBOUND:                -0.646
REMARK  Name = 
REMARK  5 active torsions:
REMARK  status: ('A' for Active; 'I' for Inactive)
REMARK    1  A    between atoms: C_2  and  C_4
REMARK    2  A    between atoms: C_7  and  O_8
REMARK    3  A    between atoms: O_8  and  C_9
REMARK    4  A    between atoms: C_9  and  C_10
REMARK    5  A    between atoms: C_14  and  N_15
REMARK                            x       y       z     vdW  Elec       q    Type
REMARK                         _______ _______ _______ _____ _____    ______ ____
ROOT
ATOM      1  C   UNL     1      46.184   7.174  11.813  0.00  0.00    +0.000 C 
ENDROOT
BRANCH   1   2
ATOM      2  C   UNL     1      45.231   6.151  11.259  0.00  0.00    +0.000 A 
ATOM      3  C   UNL     1      43.906   6.120  11.668  0.00  0.00    +0.000 A 
ATOM      4  N   UNL     1      43.006   5.270  11.138  0.00  0.00    +0.000 NA
ATOM      5  C   UNL     1      43.497   4.449  10.173  0.00  0.00    +0.000 A 
ATOM      6  C   UNL     1      44.825   4.442   9.736  0.00  0.00    +0.000 A 
ATOM      7  N   UNL     1      45.697   5.306  10.301  0.00  0.00    +0.000 NA
BRANCH   6   8
ATOM      8  N   UNL     1      45.287   3.639   8.724  0.00  0.00    +0.000 N 
ATOM      9  C   UNL     1      44.890   2.228   8.672  0.00  0.00    +0.000 C 
ATOM     10  C   UNL     1      46.101   1.363   8.294  0.00  0.00    +0.000 C 
ATOM     11  O   UNL     1      46.732   1.828   7.088  0.00  0.00    +0.000 OA
ATOM     12  C   UNL     1      47.178   3.185   7.251  0.00  0.00    +0.000 C 
ATOM     13  C   UNL     1      46.003   4.132   7.550  0.00  0.00    +0.000 C 
ENDBRANCH   6   8
ENDBRANCH   1   2
BRANCH   1  14
ATOM     14  O   UNL     1      47.392   6.530  12.226  0.00  0.00    +0.000 OA
BRANCH  14  18
ATOM     15  C   UNL     1      47.392   4.518  15.758  0.00  0.00    +0.000 A 
ATOM     16  N   UNL     1      46.553   4.029  14.814  0.00  0.00    +0.000 NA
ATOM     17  C   UNL     1      46.545   4.701  13.641  0.00  0.00    +0.000 A 
ATOM     18  C   UNL     1      47.327   5.807  13.374  0.00  0.00    +0.000 A 
ATOM     19  C   UNL     1      48.140   6.205  14.418  0.00  0.00    +0.000 A 
ATOM     20  N   UNL     1      48.198   5.587  15.615  0.00  0.00    +0.000 NA
BRANCH  15  22
ATOM     21  N   UNL     1      48.478   4.083  17.907  0.00  0.00    +0.000 N 
ATOM     22  C   UNL     1      47.422   3.783  17.077  0.00  0.00    +0.000 C 
ATOM     23  O   UNL     1      46.575   2.967  17.427  0.00  0.00    +0.000 OA
ATOM     24  H   UNL     1      48.521   3.644  18.815  0.00  0.00    +0.000 HD
ATOM     25  H   UNL     1      49.155   4.787  17.641  0.00  0.00    +0.000 HD
ENDBRANCH  15  22
ENDBRANCH  14  18
ENDBRANCH   1  14
TORSDOF 5
ENDMDL
MODEL 4
REMARK VINA RESULT:    -6.631      2.528      7.948
REMARK INTER + INTRA:          -9.215
REMARK INTER:                  -8.771
REMARK INTRA:                  -0.444
REMARK UNBOUND:                -0.646
REMARK  Name = 
REMARK  5 active torsions:
REMARK  status: ('A' for Active; 'I' for Inactive)
REMARK    1  A    between atoms: C_2  and  C_4
REMARK    2  A    between atoms: C_7  and  O_8
REMARK    3  A    between atoms: O_8  and  C_9
REMARK    4  A    between atoms: C_9  and  C_10
REMARK    5  A    between atoms: C_14  and  N_15
REMARK                            x       y       z     vdW  Elec       q    Type
REMARK                         _______ _______ _______ _____ _____    ______ ____
ROOT
ATOM      1  C   UNL     1      46.457   4.905  13.830  0.00  0.00    +0.000 C 
ENDROOT
BRANCH   1   2
ATOM      2  C   UNL     1      45.316   4.631  12.889  0.00  0.00    +0.000 A 
ATOM      3  C   UNL     1      44.015   4.962  13.237  0.00  0.00    +0.000 A 
ATOM      4  N   UNL     1      42.979   4.803  12.391  0.00  0.00    +0.000 NA
ATOM      5  C   UNL     1      43.310   4.296  11.175  0.00  0.00    +0.000 A 
ATOM      6  C   UNL     1      44.606   3.942  10.786  0.00  0.00    +0.000 A 
ATOM      7  N   UNL     1      45.615   4.110  11.670  0.00  0.00    +0.000 NA
BRANCH   6   8
ATOM      8  N   UNL     1      44.923   3.479   9.535  0.00  0.00    +0.000 N 
ATOM      9  C   UNL     1      44.750   2.058   9.216  0.00  0.00    +0.000 C 
ATOM     10  C   UNL     1      45.951   1.561   8.397  0.00  0.00    +0.000 C 
ATOM     11  O   UNL     1      46.184   2.386   7.241  0.00  0.00    +0.000 OA
ATOM     12  C   UNL     1      46.438   3.743   7.641  0.00  0.00    +0.000 C 
ATOM     13  C   UNL     1      45.241   4.341   8.399  0.00  0.00    +0.000 C 
ENDBRANCH   6   8
ENDBRANCH   1   2
BRANCH   1  14
ATOM     14  O   UNL     1      46.354   4.051  14.972  0.00  0.00    +0.000 OA
BRANCH  14  18
ATOM     15  C   UNL     1      49.627   4.191  17.378  0.00  0.00    +0.000 A 
ATOM     16  N   UNL     1      49.041   2.973  17.269  0.00  0.00    +0.000 NA
ATOM     17  C   UNL     1      47.947   2.926  16.476  0.00  0.00    +0.000 A 
ATOM     18  C   UNL     1      47.434   4.013  15.796  0.00  0.00    +0.000 A 
ATOM     19  C   UNL     1      48.122   5.194  15.990  0.00  0.00    +0.000 A 
ATOM     20  N   UNL     1      49.216   5.318  16.768  0.00  0.00    +0.000 NA
BRANCH  15  22
ATOM     21  N   UNL     1      51.547   3.094  18.424  0.00  0.00    +0.000 N 
ATOM     22  C   UNL     1      50.853   4.269  18.257  0.00  0.00    +0.000 C 
ATOM     23  O   UNL     1      51.242   5.298  18.801  0.00  0.00    +0.000 OA
ATOM     24  H   UNL     1      52.395   3.104  18.973  0.00  0.00    +0.000 HD
ATOM     25  H   UNL     1      51.254   2.252  17.942  0.00  0.00    +0.000 HD
ENDBRANCH  15  22
ENDBRANCH  14  18
ENDBRANCH   1  14
TORSDOF 5
ENDMDL
MODEL 5
REMARK VINA RESULT:    -6.222      3.036      4.942
REMARK INTER + INTRA:          -8.687
REMARK INTER:                  -8.062
REMARK INTRA:                  -0.625
REMARK UNBOUND:                -0.646
REMARK  Name = 
REMARK  5 active torsions:
REMARK  status: ('A' for Active; 'I' for Inactive)
REMARK    1  A    between atoms: C_2  and  C_4
REMARK    2  A    between atoms: C_7  and  O_8
REMARK    3  A    between atoms: O_8  and  C_9
REMARK    4  A    between atoms: C_9  and  C_10
REMARK    5  A    between atoms: C_14  and  N_15
REMARK                            x       y       z     vdW  Elec       q    Type
REMARK                         _______ _______ _______ _____ _____    ______ ____
ROOT
ATOM      1  C   UNL     1      48.181   7.204  12.744  0.00  0.00    +0.000 C 
ENDROOT
BRANCH   1   2
ATOM      2  C   UNL     1      48.774   7.310  14.122  0.00  0.00    +0.000 A 
ATOM      3  C   UNL     1      49.359   8.491  14.554  0.00  0.00    +0.000 A 
ATOM      4  N   UNL     1      49.830   8.648  15.806  0.00  0.00    +0.000 NA
ATOM      5  C   UNL     1      49.687   7.561  16.609  0.00  0.00    +0.000 A 
ATOM      6  C   UNL     1      49.111   6.350  16.212  0.00  0.00    +0.000 A 
ATOM      7  N   UNL     1      48.658   6.234  14.945  0.00  0.00    +0.000 NA
BRANCH   6   8
ATOM      8  N   UNL     1      48.931   5.284  17.056  0.00  0.00    +0.000 N 
ATOM      9  C   UNL     1      50.092   4.640  17.678  0.00  0.00    +0.000 C 
ATOM     10  C   UNL     1      49.914   3.114  17.651  0.00  0.00    +0.000 C 
ATOM     11  O   UNL     1      48.658   2.714  18.226  0.00  0.00    +0.000 OA
ATOM     12  C   UNL     1      47.568   3.310  17.504  0.00  0.00    +0.000 C 
ATOM     13  C   UNL     1      47.629   4.846  17.556  0.00  0.00    +0.000 C 
ENDBRANCH   6   8
ENDBRANCH   1   2
BRANCH   1  14
ATOM     14  O   UNL     1      46.756   7.283  12.827  0.00  0.00    +0.000 OA
BRANCH  14  18
ATOM     15  C   UNL     1      44.705   4.001  11.582  0.00  0.00    +0.000 A 
ATOM     16  N   UNL     1      44.907   4.083  12.920  0.00  0.00    +0.000 NA
ATOM     17  C   UNL     1      45.596   5.170  13.336  0.00  0.00    +0.000 A 
ATOM     18  C   UNL     1      46.070   6.157  12.495  0.00  0.00    +0.000 A 
ATOM     19  C   UNL     1      45.799   5.956  11.156  0.00  0.00    +0.000 A 
ATOM     20  N   UNL     1      45.121   4.896  10.668  0.00  0.00    +0.000 NA
BRANCH  15  22
ATOM     21  N   UNL     1      44.429   2.189   9.962  0.00  0.00    +0.000 N 
ATOM     22  C   UNL     1      43.935   2.797  11.093  0.00  0.00    +0.000 C 
ATOM     23  O   UNL     1      42.932   2.354  11.643  0.00  0.00    +0.000 OA
ATOM     24  H   UNL     1      43.970   1.358   9.617  0.00  0.00    +0.000 HD
ATOM     25  H   UNL     1      45.281   2.525   9.530  0.00  0.00    +0.000 HD
ENDBRANCH  15  22
ENDBRANCH  14  18
ENDBRANCH   1  14
TORSDOF 5
ENDMDL
MODEL 6
REMARK VINA RESULT:    -6.202      2.818      8.228
REMARK INTER + INTRA:          -8.660
REMARK INTER:                  -8.082
REMARK INTRA:                  -0.578
REMARK UNBOUND:                -0.646
REMARK  Name = 
REMARK  5 active torsions:
REMARK  status: ('A' for Active; 'I' for Inactive)
REMARK    1  A    between atoms: C_2  and  C_4
REMARK    2  A    between atoms: C_7  and  O_8
REMARK    3  A    between atoms: O_8  and  C_9
REMARK    4  A    between atoms: C_9  and  C_10
REMARK    5  A    between atoms: C_14  and  N_15
REMARK                            x       y       z     vdW  Elec       q    Type
REMARK                         _______ _______ _______ _____ _____    ______ ____
ROOT
ATOM      1  C   UNL     1      47.990   6.752  13.945  0.00  0.00    +0.000 C 
ENDROOT
BRANCH   1   2
ATOM      2  C   UNL     1      46.767   6.998  13.104  0.00  0.00    +0.000 A 
ATOM      3  C   UNL     1      46.374   8.288  12.785  0.00  0.00    +0.000 A 
ATOM      4  N   UNL     1      45.331   8.546  11.972  0.00  0.00    +0.000 NA
ATOM      5  C   UNL     1      44.698   7.443  11.491  0.00  0.00    +0.000 A 
ATOM      6  C   UNL     1      45.057   6.126  11.793  0.00  0.00    +0.000 A 
ATOM      7  N   UNL     1      46.105   5.914  12.620  0.00  0.00    +0.000 NA
BRANCH   6   8
ATOM      8  N   UNL     1      44.435   5.028  11.255  0.00  0.00    +0.000 N 
ATOM      9  C   UNL     1      43.269   4.447  11.927  0.00  0.00    +0.000 C 
ATOM     10  C   UNL     1      43.366   2.914  11.900  0.00  0.00    +0.000 C 
ATOM     11  O   UNL     1      43.569   2.417  10.565  0.00  0.00    +0.000 OA
ATOM     12  C   UNL     1      44.780   2.958  10.011  0.00  0.00    +0.000 C 
ATOM     13  C   UNL     1      44.725   4.493   9.927  0.00  0.00    +0.000 C 
ENDBRANCH   6   8
ENDBRANCH   1   2
BRANCH   1  14
ATOM     14  O   UNL     1      47.970   5.411  14.440  0.00  0.00    +0.000 OA
BRANCH  14  18
ATOM     15  C   UNL     1      48.270   5.189  18.489  0.00  0.00    +0.000 A 
ATOM     16  N   UNL     1      47.535   4.210  17.909  0.00  0.00    +0.000 NA
ATOM     17  C   UNL     1      47.427   4.286  16.563  0.00  0.00    +0.000 A 
ATOM     18  C   UNL     1      48.016   5.268  15.791  0.00  0.00    +0.000 A 
ATOM     19  C   UNL     1      48.739   6.206  16.502  0.00  0.00    +0.000 A 
ATOM     20  N   UNL     1      48.887   6.195  17.842  0.00  0.00    +0.000 NA
BRANCH  15  22
ATOM     21  N   UNL     1      48.511   3.862  20.530  0.00  0.00    +0.000 N 
ATOM     22  C   UNL     1      48.409   5.124  19.991  0.00  0.00    +0.000 C 
ATOM     23  O   UNL     1      48.439   6.110  20.720  0.00  0.00    +0.000 OA
ATOM     24  H   UNL     1      48.642   3.770  21.527  0.00  0.00    +0.000 HD
ATOM     25  H   UNL     1      48.530   3.048  19.928  0.00  0.00    +0.000 HD
ENDBRANCH  15  22
ENDBRANCH  14  18
ENDBRANCH   1  14
TORSDOF 5
ENDMDL
MODEL 7
REMARK VINA RESULT:    -6.113      3.647      6.152
REMARK INTER + INTRA:          -8.546
REMARK INTER:                  -7.988
REMARK INTRA:                  -0.558
REMARK UNBOUND:                -0.646
REMARK  Name = 
REMARK  5 active torsions:
REMARK  status: ('A' for Active; 'I' for Inactive)
REMARK    1  A    between atoms: C_2  and  C_4
REMARK    2  A    between atoms: C_7  and  O_8
REMARK    3  A    between atoms: O_8  and  C_9
REMARK    4  A    between atoms: C_9  and  C_10
REMARK    5  A    between atoms: C_14  and  N_15
REMARK                            x       y       z     vdW  Elec       q    Type
REMARK                         _______ _______ _______ _____ _____    ______ ____
ROOT
ATOM      1  C   UNL     1      48.267   6.968  14.648  0.00  0.00    +0.000 C 
ENDROOT
BRANCH   1   2
ATOM      2  C   UNL     1      48.978   6.779  15.960  0.00  0.00    +0.000 A 
ATOM      3  C   UNL     1      49.052   7.813  16.881  0.00  0.00    +0.000 A 
ATOM      4  N   UNL     1      49.611   7.659  18.097  0.00  0.00    +0.000 NA
ATOM      5  C   UNL     1      50.095   6.414  18.347  0.00  0.00    +0.000 A 
ATOM      6  C   UNL     1      50.048   5.347  17.445  0.00  0.00    +0.000 A 
ATOM      7  N   UNL     1      49.485   5.548  16.233  0.00  0.00    +0.000 NA
BRANCH   6   8
ATOM      8  N   UNL     1      50.497   4.085  17.740  0.00  0.00    +0.000 N 
ATOM      9  C   UNL     1      51.767   3.908  18.451  0.00  0.00    +0.000 C 
ATOM     10  C   UNL     1      52.554   2.747  17.826  0.00  0.00    +0.000 C 
ATOM     11  O   UNL     1      51.763   1.546  17.754  0.00  0.00    +0.000 OA
ATOM     12  C   UNL     1      50.585   1.773  16.963  0.00  0.00    +0.000 C 
ATOM     13  C   UNL     1      49.699   2.872  17.573  0.00  0.00    +0.000 C 
ENDBRANCH   6   8
ENDBRANCH   1   2
BRANCH   1  14
ATOM     14  O   UNL     1      48.183   5.715  13.964  0.00  0.00    +0.000 OA
BRANCH  14  18
ATOM     15  C   UNL     1      44.626   4.597  12.344  0.00  0.00    +0.000 A 
ATOM     16  N   UNL     1      45.041   5.846  12.022  0.00  0.00    +0.000 NA
ATOM     17  C   UNL     1      46.220   6.223  12.565  0.00  0.00    +0.000 A 
ATOM     18  C   UNL     1      46.987   5.423  13.388  0.00  0.00    +0.000 A 
ATOM     19  C   UNL     1      46.454   4.174  13.640  0.00  0.00    +0.000 A 
ATOM     20  N   UNL     1      45.284   3.730  13.135  0.00  0.00    +0.000 NA
BRANCH  15  22
ATOM     21  N   UNL     1      42.317   5.099  11.710  0.00  0.00    +0.000 N 
ATOM     22  C   UNL     1      43.313   4.150  11.746  0.00  0.00    +0.000 C 
ATOM     23  O   UNL     1      43.108   3.024  11.304  0.00  0.00    +0.000 OA
ATOM     24  H   UNL     1      41.433   4.859  11.286  0.00  0.00    +0.000 HD
ATOM     25  H   UNL     1      42.495   6.042  12.034  0.00  0.00    +0.000 HD
ENDBRANCH  15  22
ENDBRANCH  14  18
ENDBRANCH   1  14
TORSDOF 5
ENDMDL
MODEL 8
REMARK VINA RESULT:    -6.064      3.713      6.310
REMARK INTER + INTRA:          -8.482
REMARK INTER:                  -8.017
REMARK INTRA:                  -0.465
REMARK UNBOUND:                -0.646
REMARK  Name = 
REMARK  5 active torsions:
REMARK  status: ('A' for Active; 'I' for Inactive)
REMARK    1  A    between atoms: C_2  and  C_4
REMARK    2  A    between atoms: C_7  and  O_8
REMARK    3  A    between atoms: O_8  and  C_9
REMARK    4  A    between atoms: C_9  and  C_10
REMARK    5  A    between atoms: C_14  and  N_15
REMARK                            x       y       z     vdW  Elec       q    Type
REMARK                         _______ _______ _______ _____ _____    ______ ____
ROOT
ATOM      1  C   UNL     1      47.547   4.749  16.152  0.00  0.00    +0.000 C 
ENDROOT
BRANCH   1   2
ATOM      2  C   UNL     1      48.628   3.784  16.554  0.00  0.00    +0.000 A 
ATOM      3  C   UNL     1      48.584   2.459  16.147  0.00  0.00    +0.000 A 
ATOM      4  N   UNL     1      49.571   1.585  16.421  0.00  0.00    +0.000 NA
ATOM      5  C   UNL     1      50.611   2.104  17.127  0.00  0.00    +0.000 A 
ATOM      6  C   UNL     1      50.692   3.430  17.564  0.00  0.00    +0.000 A 
ATOM      7  N   UNL     1      49.674   4.271  17.273  0.00  0.00    +0.000 NA
BRANCH   6   8
ATOM      8  N   UNL     1      51.774   3.944  18.231  0.00  0.00    +0.000 N 
ATOM      9  C   UNL     1      53.001   3.150  18.355  0.00  0.00    +0.000 C 
ATOM     10  C   UNL     1      53.569   3.293  19.775  0.00  0.00    +0.000 C 
ATOM     11  O   UNL     1      53.738   4.673  20.144  0.00  0.00    +0.000 OA
ATOM     12  C   UNL     1      52.477   5.361  20.089  0.00  0.00    +0.000 C 
ATOM     13  C   UNL     1      51.881   5.333  18.671  0.00  0.00    +0.000 C 
ENDBRANCH   6   8
ENDBRANCH   1   2
BRANCH   1  14
ATOM     14  O   UNL     1      47.761   5.176  14.805  0.00  0.00    +0.000 OA
BRANCH  14  18
ATOM     15  C   UNL     1      44.881   4.304  12.072  0.00  0.00    +0.000 A 
ATOM     16  N   UNL     1      45.554   3.235  12.564  0.00  0.00    +0.000 NA
ATOM     17  C   UNL     1      46.518   3.523  13.467  0.00  0.00    +0.000 A 
ATOM     18  C   UNL     1      46.823   4.800  13.897  0.00  0.00    +0.000 A 
ATOM     19  C   UNL     1      46.066   5.800  13.320  0.00  0.00    +0.000 A 
ATOM     20  N   UNL     1      45.091   5.589  12.412  0.00  0.00    +0.000 NA
BRANCH  15  22
ATOM     21  N   UNL     1      43.750   4.843   9.971  0.00  0.00    +0.000 N 
ATOM     22  C   UNL     1      43.797   4.008  11.063  0.00  0.00    +0.000 C 
ATOM     23  O   UNL     1      42.993   3.087  11.171  0.00  0.00    +0.000 OA
ATOM     24  H   UNL     1      43.066   4.662   9.251  0.00  0.00    +0.000 HD
ATOM     25  H   UNL     1      44.439   5.577   9.857  0.00  0.00    +0.000 HD
ENDBRANCH  15  22
ENDBRANCH  14  18
ENDBRANCH   1  14
TORSDOF 5
ENDMDL
MODEL 9
REMARK VINA RESULT:    -6.022      2.159      7.614
REMARK INTER + INTRA:          -8.428
REMARK INTER:                  -7.909
REMARK INTRA:                  -0.519
REMARK UNBOUND:                -0.646
REMARK  Name = 
REMARK  5 active torsions:
REMARK  status: ('A' for Active; 'I' for Inactive)
REMARK    1  A    between atoms: C_2  and  C_4
REMARK    2  A    between atoms: C_7  and  O_8
REMARK    3  A    between atoms: O_8  and  C_9
REMARK    4  A    between atoms: C_9  and  C_10
REMARK    5  A    between atoms: C_14  and  N_15
REMARK                            x       y       z     vdW  Elec       q    Type
REMARK                         _______ _______ _______ _____ _____    ______ ____
ROOT
ATOM      1  C   UNL     1      45.868   6.949  12.500  0.00  0.00    +0.000 C 
ENDROOT
BRANCH   1   2
ATOM      2  C   UNL     1      45.073   5.742  12.083  0.00  0.00    +0.000 A 
ATOM      3  C   UNL     1      43.973   5.328  12.818  0.00  0.00    +0.000 A 
ATOM      4  N   UNL     1      43.192   4.300  12.434  0.00  0.00    +0.000 NA
ATOM      5  C   UNL     1      43.568   3.703  11.273  0.00  0.00    +0.000 A 
ATOM      6  C   UNL     1      44.674   4.082  10.505  0.00  0.00    +0.000 A 
ATOM      7  N   UNL     1      45.434   5.114  10.932  0.00  0.00    +0.000 NA
BRANCH   6   8
ATOM      8  N   UNL     1      45.004   3.497   9.310  0.00  0.00    +0.000 N 
ATOM      9  C   UNL     1      44.815   2.055   9.125  0.00  0.00    +0.000 C 
ATOM     10  C   UNL     1      46.021   1.465   8.378  0.00  0.00    +0.000 C 
ATOM     11  O   UNL     1      46.286   2.172   7.153  0.00  0.00    +0.000 OA
ATOM     12  C   UNL     1      46.554   3.557   7.427  0.00  0.00    +0.000 C 
ATOM     13  C   UNL     1      45.354   4.242   8.103  0.00  0.00    +0.000 C 
ENDBRANCH   6   8
ENDBRANCH   1   2
BRANCH   1  14
ATOM     14  O   UNL     1      47.252   6.734  12.217  0.00  0.00    +0.000 OA
BRANCH  14  18
ATOM     15  C   UNL     1      49.618   6.636  15.522  0.00  0.00    +0.000 A 
ATOM     16  N   UNL     1      49.999   7.515  14.563  0.00  0.00    +0.000 NA
ATOM     17  C   UNL     1      49.219   7.544  13.460  0.00  0.00    +0.000 A 
ATOM     18  C   UNL     1      48.096   6.759  13.282  0.00  0.00    +0.000 A 
ATOM     19  C   UNL     1      47.815   5.906  14.331  0.00  0.00    +0.000 A 
ATOM     20  N   UNL     1      48.549   5.821  15.459  0.00  0.00    +0.000 NA
BRANCH  15  22
ATOM     21  N   UNL     1      50.003   7.301  17.844  0.00  0.00    +0.000 N 
ATOM     22  C   UNL     1      50.472   6.587  16.766  0.00  0.00    +0.000 C 
ATOM     23  O   UNL     1      51.522   5.957  16.853  0.00  0.00    +0.000 OA
ATOM     24  H   UNL     1      50.520   7.269  18.710  0.00  0.00    +0.000 HD
ATOM     25  H   UNL     1      49.115   7.787  17.790  0.00  0.00    +0.000 HD
ENDBRANCH  15  22
ENDBRANCH  14  18
ENDBRANCH   1  14
TORSDOF 5
ENDMDL
