MODEL 1
REMARK VINA RESULT:    -9.247      0.000      0.000
REMARK INTER + INTRA:         -12.173
REMARK INTER:                 -12.220
REMARK INTRA:                   0.047
REMARK UNBOUND:                 0.047
REMARK  Name = 
REMARK  6 active torsions:
REMARK  status: ('A' for Active; 'I' for Inactive)
REMARK    1  A    between atoms: N_1  and  C_2
REMARK    2  A    between atoms: C_5  and  C_6
REMARK    3  A    between atoms: C_6  and  C_7
REMARK    4  A    between atoms: C_10  and  C_11
REMARK    5  A    between atoms: C_11  and  N_12
REMARK    6  A    between atoms: C_13  and  C_15
REMARK                            x       y       z     vdW  Elec       q    Type
REMARK                         _______ _______ _______ _____ _____    ______ ____
ROOT
ATOM      1  C   UNL     1      44.942   4.068  10.349  0.00  0.00    +0.000 A 
ATOM      2  C   UNL     1      45.142   3.832  11.707  0.00  0.00    +0.000 A 
ATOM      3  C   UNL     1      45.664   4.851  12.506  0.00  0.00    +0.000 A 
ATOM      4  C   UNL     1      45.992   6.080  11.937  0.00  0.00    +0.000 A 
ATOM      5  C   UNL     1      45.759   6.229  10.575  0.00  0.00    +0.000 A 
ATOM      6  N   UNL     1      45.244   5.259   9.776  0.00  0.00    +0.000 NA
ENDROOT
BRANCH   1   7
ATOM      7  C   UNL     1      44.332   2.998   9.469  0.00  0.00    +0.000 C 
BRANCH   7  11
ATOM      8  C   UNL     1      47.744   2.179   6.787  0.00  0.00    +0.000 C 
ATOM      9  C   UNL     1      46.868   3.410   6.535  0.00  0.00    +0.000 C 
ATOM     10  C   UNL     1      46.081   3.794   7.787  0.00  0.00    +0.000 C 
ATOM     11  C   UNL     1      45.195   2.626   8.248  0.00  0.00    +0.000 C 
ATOM     12  C   UNL     1      46.087   1.407   8.552  0.00  0.00    +0.000 C 
ATOM     13  C   UNL     1      46.919   1.005   7.330  0.00  0.00    +0.000 C 
BRANCH   8  14
ATOM     14  N   UNL     1      48.424   1.783   5.553  0.00  0.00    +0.000 NA
ATOM     15  H   UNL     1      47.765   1.304   4.940  0.00  0.00    +0.000 HD
ATOM     16  H   UNL     1      49.147   1.095   5.768  0.00  0.00    +0.000 HD
ENDBRANCH   8  14
ENDBRANCH   7  11
ENDBRANCH   1   7
BRANCH   4  17
ATOM     17  C   UNL     1      46.529   7.208  12.770  0.00  0.00    +0.000 C 
BRANCH  17  18
ATOM     18  N   UNL     1      46.959   6.751  14.070  0.00  0.00    +0.000 N 
ATOM     19  C   UNL     1      48.290   6.558  14.345  0.00  0.00    +0.000 C 
ATOM     20  O   UNL     1      49.162   6.789  13.510  0.00  0.00    +0.000 OA
ATOM     21  H   UNL     1      46.259   6.341  14.681  0.00  0.00    +0.000 HD
BRANCH  19  22
ATOM     22  C   UNL     1      48.633   6.120  15.705  0.00  0.00    +0.000 A 
ATOM     23  C   UNL     1      49.447   6.920  16.497  0.00  0.00    +0.000 A 
ATOM     24  S   UNL     1      49.706   6.298  18.063  0.00  0.00    +0.000 S 
ATOM     25  C   UNL     1      48.784   4.911  17.725  0.00  0.00    +0.000 A 
ATOM     26  N   UNL     1      48.624   3.933  18.657  0.00  0.00    +0.000 NA
ATOM     27  C   UNL     1      47.924   2.924  18.258  0.00  0.00    +0.000 A 
ATOM     28  N   UNL     1      47.366   2.806  17.012  0.00  0.00    +0.000 N 
ATOM     29  C   UNL     1      47.479   3.781  16.047  0.00  0.00    +0.000 A 
ATOM     30  O   UNL     1      46.934   3.664  14.955  0.00  0.00    +0.000 OA
ATOM     31  C   UNL     1      48.266   4.932  16.441  0.00  0.00    +0.000 A 
ATOM     32  H   UNL     1      46.821   1.993  16.766  0.00  0.00    +0.000 HD
ENDBRANCH  19  22
ENDBRANCH  17  18
ENDBRANCH   4  17
TORSDOF 6
ENDMDL
MODEL 2
REMARK VINA RESULT:    -8.912      1.672      2.339
REMARK INTER + INTRA:         -11.731
REMARK INTER:                 -11.540
REMARK INTRA:                  -0.191
REMARK UNBOUND:                 0.047
REMARK  Name = 
REMARK  6 active torsions:
REMARK  status: ('A' for Active; 'I' for Inactive)
REMARK    1  A    between atoms: N_1  and  C_2
REMARK    2  A    between atoms: C_5  and  C_6
REMARK    3  A    between atoms: C_6  and  C_7
REMARK    4  A    between atoms: C_10  and  C_11
REMARK    5  A    between atoms: C_11  and  N_12
REMARK    6  A    between atoms: C_13  and  C_15
REMARK                            x       y       z     vdW  Elec       q    Type
REMARK                         _______ _______ _______ _____ _____    ______ ____
ROOT
ATOM      1  C   UNL     1      44.926   4.228  10.462  0.00  0.00    +0.000 A 
ATOM      2  C   UNL     1      45.302   5.523  10.113  0.00  0.00    +0.000 A 
ATOM      3  C   UNL     1      46.003   6.300  11.036  0.00  0.00    +0.000 A 
ATOM      4  C   UNL     1      46.303   5.782  12.295  0.00  0.00    +0.000 A 
ATOM      5  C   UNL     1      45.891   4.481  12.557  0.00  0.00    +0.000 A 
ATOM      6  N   UNL     1      45.217   3.699  11.676  0.00  0.00    +0.000 NA
ENDROOT
BRANCH   1   7
ATOM      7  C   UNL     1      44.208   3.345   9.463  0.00  0.00    +0.000 C 
BRANCH   7  11
ATOM      8  C   UNL     1      47.671   2.229   6.959  0.00  0.00    +0.000 C 
ATOM      9  C   UNL     1      46.866   3.485   6.612  0.00  0.00    +0.000 C 
ATOM     10  C   UNL     1      46.054   3.970   7.812  0.00  0.00    +0.000 C 
ATOM     11  C   UNL     1      45.096   2.870   8.297  0.00  0.00    +0.000 C 
ATOM     12  C   UNL     1      45.916   1.628   8.695  0.00  0.00    +0.000 C 
ATOM     13  C   UNL     1      46.771   1.125   7.528  0.00  0.00    +0.000 C 
BRANCH   8  14
ATOM     14  N   UNL     1      48.376   1.739   5.774  0.00  0.00    +0.000 NA
ATOM     15  H   UNL     1      49.315   1.440   6.037  0.00  0.00    +0.000 HD
ATOM     16  H   UNL     1      48.507   2.504   5.113  0.00  0.00    +0.000 HD
ENDBRANCH   8  14
ENDBRANCH   7  11
ENDBRANCH   1   7
BRANCH   4  17
ATOM     17  C   UNL     1      47.080   6.579  13.302  0.00  0.00    +0.000 C 
BRANCH  17  18
ATOM     18  N   UNL     1      47.170   5.893  14.569  0.00  0.00    +0.000 N 
ATOM     19  C   UNL     1      48.328   5.920  15.306  0.00  0.00    +0.000 C 
ATOM     20  O   UNL     1      49.317   6.546  14.932  0.00  0.00    +0.000 OA
ATOM     21  H   UNL     1      46.462   5.194  14.777  0.00  0.00    +0.000 HD
BRANCH  19  22
ATOM     22  C   UNL     1      48.312   5.216  16.596  0.00  0.00    +0.000 A 
ATOM     23  C   UNL     1      48.212   3.831  16.619  0.00  0.00    +0.000 A 
ATOM     24  S   UNL     1      48.260   3.165  18.187  0.00  0.00    +0.000 S 
ATOM     25  C   UNL     1      48.363   4.706  18.899  0.00  0.00    +0.000 A 
ATOM     26  N   UNL     1      48.411   4.851  20.250  0.00  0.00    +0.000 NA
ATOM     27  C   UNL     1      48.459   6.075  20.655  0.00  0.00    +0.000 A 
ATOM     28  N   UNL     1      48.469   7.169  19.830  0.00  0.00    +0.000 N 
ATOM     29  C   UNL     1      48.450   7.071  18.458  0.00  0.00    +0.000 A 
ATOM     30  O   UNL     1      48.501   8.067  17.745  0.00  0.00    +0.000 OA
ATOM     31  C   UNL     1      48.383   5.715  17.951  0.00  0.00    +0.000 A 
ATOM     32  H   UNL     1      48.518   8.103  20.211  0.00  0.00    +0.000 HD
ENDBRANCH  19  22
ENDBRANCH  17  18
ENDBRANCH   4  17
TORSDOF 6
ENDMDL
MODEL 3
REMARK VINA RESULT:    -8.887      3.523      4.504
REMARK INTER + INTRA:         -11.698
REMARK INTER:                 -10.686
REMARK INTRA:                  -1.012
REMARK UNBOUND:                 0.047
REMARK  Name = 
REMARK  6 active torsions:
REMARK  status: ('A' for Active; 'I' for Inactive)
REMARK    1  A    between atoms: N_1  and  C_2
REMARK    2  A    between atoms: C_5  and  C_6
REMARK    3  A    between atoms: C_6  and  C_7
REMARK    4  A    between atoms: C_10  and  C_11
REMARK    5  A    between atoms: C_11  and  N_12
REMARK    6  A    between atoms: C_13  and  C_15
REMARK                            x       y       z     vdW  Elec       q    Type
REMARK                         _______ _______ _______ _____ _____    ______ ____
ROOT
ATOM      1  C   UNL     1      44.500   3.353  10.468  0.00  0.00    +0.000 A 
ATOM      2  C   UNL     1      43.713   4.459  10.153  0.00  0.00    +0.000 A 
ATOM      3  C   UNL     1      43.679   5.541  11.033  0.00  0.00    +0.000 A 
ATOM      4  C   UNL     1      44.414   5.499  12.217  0.00  0.00    +0.000 A 
ATOM      5  C   UNL     1      45.171   4.357  12.450  0.00  0.00    +0.000 A 
ATOM      6  N   UNL     1      45.231   3.294  11.608  0.00  0.00    +0.000 NA
ENDROOT
BRANCH   1   7
ATOM      7  C   UNL     1      44.595   2.184   9.509  0.00  0.00    +0.000 C 
BRANCH   7  11
ATOM      8  C   UNL     1      47.217   1.932   5.964  0.00  0.00    +0.000 C 
ATOM      9  C   UNL     1      47.438   0.968   7.133  0.00  0.00    +0.000 C 
ATOM     10  C   UNL     1      46.192   0.869   8.012  0.00  0.00    +0.000 C 
ATOM     11  C   UNL     1      45.807   2.252   8.560  0.00  0.00    +0.000 C 
ATOM     12  C   UNL     1      45.533   3.204   7.380  0.00  0.00    +0.000 C 
ATOM     13  C   UNL     1      46.749   3.309   6.453  0.00  0.00    +0.000 C 
BRANCH   8  14
ATOM     14  N   UNL     1      48.448   2.071   5.185  0.00  0.00    +0.000 NA
ATOM     15  H   UNL     1      49.179   2.472   5.773  0.00  0.00    +0.000 HD
ATOM     16  H   UNL     1      48.302   2.744   4.433  0.00  0.00    +0.000 HD
ENDBRANCH   8  14
ENDBRANCH   7  11
ENDBRANCH   1   7
BRANCH   4  17
ATOM     17  C   UNL     1      44.423   6.656  13.172  0.00  0.00    +0.000 C 
BRANCH  17  18
ATOM     18  N   UNL     1      45.639   7.426  13.065  0.00  0.00    +0.000 N 
ATOM     19  C   UNL     1      45.740   8.467  12.176  0.00  0.00    +0.000 C 
ATOM     20  O   UNL     1      44.797   8.799  11.461  0.00  0.00    +0.000 OA
ATOM     21  H   UNL     1      46.484   7.030  13.467  0.00  0.00    +0.000 HD
BRANCH  19  22
ATOM     22  C   UNL     1      47.008   9.210  12.161  0.00  0.00    +0.000 A 
ATOM     23  C   UNL     1      46.992  10.590  12.007  0.00  0.00    +0.000 A 
ATOM     24  S   UNL     1      48.538  11.306  12.063  0.00  0.00    +0.000 S 
ATOM     25  C   UNL     1      49.292   9.793  12.241  0.00  0.00    +0.000 A 
ATOM     26  N   UNL     1      50.647   9.692  12.323  0.00  0.00    +0.000 NA
ATOM     27  C   UNL     1      51.087   8.483  12.427  0.00  0.00    +0.000 A 
ATOM     28  N   UNL     1      50.295   7.366  12.463  0.00  0.00    +0.000 N 
ATOM     29  C   UNL     1      48.921   7.421  12.410  0.00  0.00    +0.000 A 
ATOM     30  O   UNL     1      48.238   6.406  12.484  0.00  0.00    +0.000 OA
ATOM     31  C   UNL     1      48.375   8.757  12.280  0.00  0.00    +0.000 A 
ATOM     32  H   UNL     1      50.703   6.447  12.556  0.00  0.00    +0.000 HD
ENDBRANCH  19  22
ENDBRANCH  17  18
ENDBRANCH   4  17
TORSDOF 6
ENDMDL
MODEL 4
REMARK VINA RESULT:    -8.270      2.980      4.177
REMARK INTER + INTRA:         -10.882
REMARK INTER:                 -10.322
REMARK INTRA:                  -0.560
REMARK UNBOUND:                 0.047
REMARK  Name = 
REMARK  6 active torsions:
REMARK  status: ('A' for Active; 'I' for Inactive)
REMARK    1  A    between atoms: N_1  and  C_2
REMARK    2  A    between atoms: C_5  and  C_6
REMARK    3  A    between atoms: C_6  and  C_7
REMARK    4  A    between atoms: C_10  and  C_11
REMARK    5  A    between atoms: C_11  and  N_12
REMARK    6  A    between atoms: C_13  and  C_15
REMARK                            x       y       z     vdW  Elec       q    Type
REMARK                         _______ _______ _______ _____ _____    ______ ____
ROOT
ATOM      1  C   UNL     1      44.862   4.280  10.355  0.00  0.00    +0.000 A 
ATOM      2  C   UNL     1      45.505   5.512  10.270  0.00  0.00    +0.000 A 
ATOM      3  C   UNL     1      46.205   5.993  11.377  0.00  0.00    +0.000 A 
ATOM      4  C   UNL     1      46.241   5.246  12.554  0.00  0.00    +0.000 A 
ATOM      5  C   UNL     1      45.573   4.028  12.550  0.00  0.00    +0.000 A 
ATOM      6  N   UNL     1      44.892   3.532  11.485  0.00  0.00    +0.000 NA
ENDROOT
BRANCH   1   7
ATOM      7  C   UNL     1      44.135   3.712   9.154  0.00  0.00    +0.000 C 
BRANCH   7  11
ATOM      8  C   UNL     1      47.686   2.245   6.975  0.00  0.00    +0.000 C 
ATOM      9  C   UNL     1      46.957   3.493   6.471  0.00  0.00    +0.000 C 
ATOM     10  C   UNL     1      46.098   4.115   7.571  0.00  0.00    +0.000 C 
ATOM     11  C   UNL     1      45.068   3.100   8.091  0.00  0.00    +0.000 C 
ATOM     12  C   UNL     1      45.809   1.870   8.647  0.00  0.00    +0.000 C 
ATOM     13  C   UNL     1      46.708   1.231   7.584  0.00  0.00    +0.000 C 
BRANCH   8  14
ATOM     14  N   UNL     1      48.436   1.622   5.884  0.00  0.00    +0.000 NA
ATOM     15  H   UNL     1      48.425   2.236   5.070  0.00  0.00    +0.000 HD
ATOM     16  H   UNL     1      47.964   0.768   5.588  0.00  0.00    +0.000 HD
ENDBRANCH   8  14
ENDBRANCH   7  11
ENDBRANCH   1   7
BRANCH   4  17
ATOM     17  C   UNL     1      47.008   5.718  13.755  0.00  0.00    +0.000 C 
BRANCH  17  18
ATOM     18  N   UNL     1      48.173   6.481  13.376  0.00  0.00    +0.000 N 
ATOM     19  C   UNL     1      48.157   7.854  13.402  0.00  0.00    +0.000 C 
ATOM     20  O   UNL     1      47.166   8.480  13.771  0.00  0.00    +0.000 OA
ATOM     21  H   UNL     1      48.903   6.000  12.858  0.00  0.00    +0.000 HD
BRANCH  19  22
ATOM     22  C   UNL     1      49.401   8.542  13.028  0.00  0.00    +0.000 A 
ATOM     23  C   UNL     1      49.416   9.369  11.913  0.00  0.00    +0.000 A 
ATOM     24  S   UNL     1      50.916  10.132  11.644  0.00  0.00    +0.000 S 
ATOM     25  C   UNL     1      51.618   9.344  12.976  0.00  0.00    +0.000 A 
ATOM     26  N   UNL     1      52.926   9.540  13.296  0.00  0.00    +0.000 NA
ATOM     27  C   UNL     1      53.335   8.858  14.313  0.00  0.00    +0.000 A 
ATOM     28  N   UNL     1      52.554   8.001  15.043  0.00  0.00    +0.000 N 
ATOM     29  C   UNL     1      51.221   7.792  14.773  0.00  0.00    +0.000 A 
ATOM     30  O   UNL     1      50.538   7.050  15.469  0.00  0.00    +0.000 OA
ATOM     31  C   UNL     1      50.714   8.526  13.632  0.00  0.00    +0.000 A 
ATOM     32  H   UNL     1      52.934   7.504  15.834  0.00  0.00    +0.000 HD
ENDBRANCH  19  22
ENDBRANCH  17  18
ENDBRANCH   4  17
TORSDOF 6
ENDMDL
MODEL 5
REMARK VINA RESULT:    -8.109      2.378      3.219
REMARK INTER + INTRA:         -10.669
REMARK INTER:                 -10.407
REMARK INTRA:                  -0.262
REMARK UNBOUND:                 0.047
REMARK  Name = 
REMARK  6 active torsions:
REMARK  status: ('A' for Active; 'I' for Inactive)
REMARK    1  A    between atoms: N_1  and  C_2
REMARK    2  A    between atoms: C_5  and  C_6
REMARK    3  A    between atoms: C_6  and  C_7
REMARK    4  A    between atoms: C_10  and  C_11
REMARK    5  A    between atoms: C_11  and  N_12
REMARK    6  A    between atoms: C_13  and  C_15
REMARK                            x       y       z     vdW  Elec       q    Type
REMARK                         _______ _______ _______ _____ _____    ______ ____
ROOT
ATOM      1  C   UNL     1      44.805   4.354  10.669  0.00  0.00    +0.000 A 
ATOM      2  C   UNL     1      45.468   5.517  11.054  0.00  0.00    +0.000 A 
ATOM      3  C   UNL     1      46.082   5.568  12.307  0.00  0.00    +0.000 A 
ATOM      4  C   UNL     1      46.013   4.467  13.159  0.00  0.00    +0.000 A 
ATOM      5  C   UNL     1      45.333   3.348  12.693  0.00  0.00    +0.000 A 
ATOM      6  N   UNL     1      44.735   3.268  11.477  0.00  0.00    +0.000 NA
ENDROOT
BRANCH   1   7
ATOM      7  C   UNL     1      44.172   4.254   9.297  0.00  0.00    +0.000 C 
BRANCH   7  11
ATOM      8  C   UNL     1      47.489   2.193   7.234  0.00  0.00    +0.000 C 
ATOM      9  C   UNL     1      46.944   3.503   6.658  0.00  0.00    +0.000 C 
ATOM     10  C   UNL     1      46.177   4.296   7.716  0.00  0.00    +0.000 C 
ATOM     11  C   UNL     1      45.013   3.463   8.277  0.00  0.00    +0.000 C 
ATOM     12  C   UNL     1      45.573   2.172   8.902  0.00  0.00    +0.000 C 
ATOM     13  C   UNL     1      46.377   1.359   7.882  0.00  0.00    +0.000 C 
BRANCH   8  14
ATOM     14  N   UNL     1      48.149   1.417   6.184  0.00  0.00    +0.000 NA
ATOM     15  H   UNL     1      49.110   1.217   6.461  0.00  0.00    +0.000 HD
ATOM     16  H   UNL     1      48.220   1.979   5.336  0.00  0.00    +0.000 HD
ENDBRANCH   8  14
ENDBRANCH   7  11
ENDBRANCH   1   7
BRANCH   4  17
ATOM     17  C   UNL     1      46.686   4.475  14.501  0.00  0.00    +0.000 C 
BRANCH  17  18
ATOM     18  N   UNL     1      47.652   5.542  14.606  0.00  0.00    +0.000 N 
ATOM     19  C   UNL     1      48.225   5.860  15.812  0.00  0.00    +0.000 C 
ATOM     20  O   UNL     1      47.960   5.235  16.837  0.00  0.00    +0.000 OA
ATOM     21  H   UNL     1      47.706   6.205  13.837  0.00  0.00    +0.000 HD
BRANCH  19  22
ATOM     22  C   UNL     1      49.219   6.942  15.812  0.00  0.00    +0.000 A 
ATOM     23  C   UNL     1      48.865   8.197  15.334  0.00  0.00    +0.000 A 
ATOM     24  S   UNL     1      50.111   9.354  15.451  0.00  0.00    +0.000 S 
ATOM     25  C   UNL     1      51.189   8.208  16.095  0.00  0.00    +0.000 A 
ATOM     26  N   UNL     1      52.470   8.548  16.403  0.00  0.00    +0.000 NA
ATOM     27  C   UNL     1      53.187   7.576  16.857  0.00  0.00    +0.000 A 
ATOM     28  N   UNL     1      52.737   6.294  17.038  0.00  0.00    +0.000 N 
ATOM     29  C   UNL     1      51.444   5.910  16.766  0.00  0.00    +0.000 A 
ATOM     30  O   UNL     1      51.060   4.765  16.976  0.00  0.00    +0.000 OA
ATOM     31  C   UNL     1      50.599   6.965  16.241  0.00  0.00    +0.000 A 
ATOM     32  H   UNL     1      53.347   5.580  17.407  0.00  0.00    +0.000 HD
ENDBRANCH  19  22
ENDBRANCH  17  18
ENDBRANCH   4  17
TORSDOF 6
ENDMDL
MODEL 6
REMARK VINA RESULT:    -8.059      1.650      2.065
REMARK INTER + INTRA:         -10.603
REMARK INTER:                  -9.986
REMARK INTRA:                  -0.617
REMARK UNBOUND:                 0.047
REMARK  Name = 
REMARK  6 active torsions:
REMARK  status: ('A' for Active; 'I' for Inactive)
REMARK    1  A    between atoms: N_1  and  C_2
REMARK    2  A    between atoms: C_5  and  C_6
REMARK    3  A    between atoms: C_6  and  C_7
REMARK    4  A    between atoms: C_10  and  C_11
REMARK    5  A    between atoms: C_11  and  N_12
REMARK    6  A    between atoms: C_13  and  C_15
REMARK                            x       y       z     vdW  Elec       q    Type
REMARK                         _______ _______ _______ _____ _____    ______ ____
ROOT
ATOM      1  C   UNL     1      45.182   5.404  11.373  0.00  0.00    +0.000 A 
ATOM      2  C   UNL     1      45.810   4.732  12.420  0.00  0.00    +0.000 A 
ATOM      3  C   UNL     1      46.813   5.382  13.140  0.00  0.00    +0.000 A 
ATOM      4  C   UNL     1      47.185   6.682  12.798  0.00  0.00    +0.000 A 
ATOM      5  C   UNL     1      46.505   7.275  11.741  0.00  0.00    +0.000 A 
ATOM      6  N   UNL     1      45.519   6.671  11.029  0.00  0.00    +0.000 NA
ENDROOT
BRANCH   1   7
ATOM      7  C   UNL     1      44.058   4.741  10.605  0.00  0.00    +0.000 C 
BRANCH   7  11
ATOM      8  C   UNL     1      46.491   2.298   7.846  0.00  0.00    +0.000 C 
ATOM      9  C   UNL     1      46.095   3.721   7.440  0.00  0.00    +0.000 C 
ATOM     10  C   UNL     1      45.701   4.553   8.659  0.00  0.00    +0.000 C 
ATOM     11  C   UNL     1      44.532   3.894   9.409  0.00  0.00    +0.000 C 
ATOM     12  C   UNL     1      44.955   2.484   9.861  0.00  0.00    +0.000 C 
ATOM     13  C   UNL     1      45.389   1.622   8.671  0.00  0.00    +0.000 C 
BRANCH   8  14
ATOM     14  N   UNL     1      46.787   1.498   6.657  0.00  0.00    +0.000 NA
ATOM     15  H   UNL     1      47.769   1.611   6.407  0.00  0.00    +0.000 HD
ATOM     16  H   UNL     1      46.260   1.860   5.862  0.00  0.00    +0.000 HD
ENDBRANCH   8  14
ENDBRANCH   7  11
ENDBRANCH   1   7
BRANCH   4  17
ATOM     17  C   UNL     1      48.239   7.421  13.568  0.00  0.00    +0.000 C 
BRANCH  17  18
ATOM     18  N   UNL     1      48.024   7.324  14.992  0.00  0.00    +0.000 N 
ATOM     19  C   UNL     1      49.034   6.927  15.833  0.00  0.00    +0.000 C 
ATOM     20  O   UNL     1      50.159   6.666  15.413  0.00  0.00    +0.000 OA
ATOM     21  H   UNL     1      47.063   7.309  15.323  0.00  0.00    +0.000 HD
BRANCH  19  22
ATOM     22  C   UNL     1      48.727   6.888  17.270  0.00  0.00    +0.000 A 
ATOM     23  C   UNL     1      48.319   8.048  17.915  0.00  0.00    +0.000 A 
ATOM     24  S   UNL     1      47.952   7.825  19.564  0.00  0.00    +0.000 S 
ATOM     25  C   UNL     1      48.375   6.180  19.492  0.00  0.00    +0.000 A 
ATOM     26  N   UNL     1      48.312   5.392  20.600  0.00  0.00    +0.000 NA
ATOM     27  C   UNL     1      48.689   4.172  20.409  0.00  0.00    +0.000 A 
ATOM     28  N   UNL     1      49.117   3.666  19.210  0.00  0.00    +0.000 N 
ATOM     29  C   UNL     1      49.171   4.417  18.059  0.00  0.00    +0.000 A 
ATOM     30  O   UNL     1      49.521   3.926  16.991  0.00  0.00    +0.000 OA
ATOM     31  C   UNL     1      48.770   5.800  18.221  0.00  0.00    +0.000 A 
ATOM     32  H   UNL     1      49.389   2.698  19.126  0.00  0.00    +0.000 HD
ENDBRANCH  19  22
ENDBRANCH  17  18
ENDBRANCH   4  17
TORSDOF 6
ENDMDL
MODEL 7
REMARK VINA RESULT:    -8.034      2.266      2.960
REMARK INTER + INTRA:         -10.571
REMARK INTER:                  -9.779
REMARK INTRA:                  -0.792
REMARK UNBOUND:                 0.047
REMARK  Name = 
REMARK  6 active torsions:
REMARK  status: ('A' for Active; 'I' for Inactive)
REMARK    1  A    between atoms: N_1  and  C_2
REMARK    2  A    between atoms: C_5  and  C_6
REMARK    3  A    between atoms: C_6  and  C_7
REMARK    4  A    between atoms: C_10  and  C_11
REMARK    5  A    between atoms: C_11  and  N_12
REMARK    6  A    between atoms: C_13  and  C_15
REMARK                            x       y       z     vdW  Elec       q    Type
REMARK                         _______ _______ _______ _____ _____    ______ ____
ROOT
ATOM      1  C   UNL     1      45.125   5.348  11.393  0.00  0.00    +0.000 A 
ATOM      2  C   UNL     1      45.664   4.620  12.452  0.00  0.00    +0.000 A 
ATOM      3  C   UNL     1      46.654   5.203  13.244  0.00  0.00    +0.000 A 
ATOM      4  C   UNL     1      47.103   6.492  12.960  0.00  0.00    +0.000 A 
ATOM      5  C   UNL     1      46.509   7.145  11.886  0.00  0.00    +0.000 A 
ATOM      6  N   UNL     1      45.538   6.607  11.105  0.00  0.00    +0.000 NA
ENDROOT
BRANCH   1   7
ATOM      7  C   UNL     1      44.015   4.760  10.547  0.00  0.00    +0.000 C 
BRANCH   7  11
ATOM      8  C   UNL     1      46.504   2.296   7.857  0.00  0.00    +0.000 C 
ATOM      9  C   UNL     1      46.130   3.721   7.440  0.00  0.00    +0.000 C 
ATOM     10  C   UNL     1      45.709   4.558   8.646  0.00  0.00    +0.000 C 
ATOM     11  C   UNL     1      44.516   3.908   9.365  0.00  0.00    +0.000 C 
ATOM     12  C   UNL     1      44.916   2.496   9.830  0.00  0.00    +0.000 C 
ATOM     13  C   UNL     1      45.375   1.629   8.653  0.00  0.00    +0.000 C 
BRANCH   8  14
ATOM     14  N   UNL     1      46.826   1.492   6.677  0.00  0.00    +0.000 NA
ATOM     15  H   UNL     1      47.816   1.597   6.454  0.00  0.00    +0.000 HD
ATOM     16  H   UNL     1      46.323   1.857   5.868  0.00  0.00    +0.000 HD
ENDBRANCH   8  14
ENDBRANCH   7  11
ENDBRANCH   1   7
BRANCH   4  17
ATOM     17  C   UNL     1      48.145   7.161  13.807  0.00  0.00    +0.000 C 
BRANCH  17  18
ATOM     18  N   UNL     1      47.968   6.858  15.207  0.00  0.00    +0.000 N 
ATOM     19  C   UNL     1      49.034   6.494  15.992  0.00  0.00    +0.000 C 
ATOM     20  O   UNL     1      50.176   6.436  15.542  0.00  0.00    +0.000 OA
ATOM     21  H   UNL     1      47.023   6.677  15.533  0.00  0.00    +0.000 HD
BRANCH  19  22
ATOM     22  C   UNL     1      48.757   6.234  17.412  0.00  0.00    +0.000 A 
ATOM     23  C   UNL     1      48.990   4.969  17.935  0.00  0.00    +0.000 A 
ATOM     24  S   UNL     1      48.670   4.845  19.604  0.00  0.00    +0.000 S 
ATOM     25  C   UNL     1      48.157   6.464  19.681  0.00  0.00    +0.000 A 
ATOM     26  N   UNL     1      47.714   7.003  20.850  0.00  0.00    +0.000 NA
ATOM     27  C   UNL     1      47.329   8.232  20.759  0.00  0.00    +0.000 A 
ATOM     28  N   UNL     1      47.352   8.973  19.607  0.00  0.00    +0.000 N 
ATOM     29  C   UNL     1      47.816   8.480  18.410  0.00  0.00    +0.000 A 
ATOM     30  O   UNL     1      47.862   9.180  17.405  0.00  0.00    +0.000 OA
ATOM     31  C   UNL     1      48.250   7.098  18.454  0.00  0.00    +0.000 A 
ATOM     32  H   UNL     1      47.045   9.935  19.606  0.00  0.00    +0.000 HD
ENDBRANCH  19  22
ENDBRANCH  17  18
ENDBRANCH   4  17
TORSDOF 6
ENDMDL
MODEL 8
REMARK VINA RESULT:    -7.619      2.948      8.576
REMARK INTER + INTRA:         -10.022
REMARK INTER:                  -9.196
REMARK INTRA:                  -0.826
REMARK UNBOUND:                 0.047
REMARK  Name = 
REMARK  6 active torsions:
REMARK  status: ('A' for Active; 'I' for Inactive)
REMARK    1  A    between atoms: N_1  and  C_2
REMARK    2  A    between atoms: C_5  and  C_6
REMARK    3  A    between atoms: C_6  and  C_7
REMARK    4  A    between atoms: C_10  and  C_11
REMARK    5  A    between atoms: C_11  and  N_12
REMARK    6  A    between atoms: C_13  and  C_15
REMARK                            x       y       z     vdW  Elec       q    Type
REMARK                         _______ _______ _______ _____ _____    ______ ____
ROOT
ATOM      1  C   UNL     1      49.480   7.901  15.624  0.00  0.00    +0.000 A 
ATOM      2  C   UNL     1      48.479   8.856  15.463  0.00  0.00    +0.000 A 
ATOM      3  C   UNL     1      47.745   8.880  14.276  0.00  0.00    +0.000 A 
ATOM      4  C   UNL     1      48.030   7.965  13.264  0.00  0.00    +0.000 A 
ATOM      5  C   UNL     1      49.044   7.047  13.510  0.00  0.00    +0.000 A 
ATOM      6  N   UNL     1      49.768   6.994  14.658  0.00  0.00    +0.000 NA
ENDROOT
BRANCH   1   7
ATOM      7  C   UNL     1      50.259   7.820  16.919  0.00  0.00    +0.000 C 
BRANCH   7  11
ATOM      8  C   UNL     1      48.629   4.009  18.445  0.00  0.00    +0.000 C 
ATOM      9  C   UNL     1      47.915   5.321  18.782  0.00  0.00    +0.000 C 
ATOM     10  C   UNL     1      48.309   6.432  17.809  0.00  0.00    +0.000 C 
ATOM     11  C   UNL     1      49.829   6.659  17.836  0.00  0.00    +0.000 C 
ATOM     12  C   UNL     1      50.541   5.350  17.443  0.00  0.00    +0.000 C 
ATOM     13  C   UNL     1      50.149   4.199  18.376  0.00  0.00    +0.000 C 
BRANCH   8  14
ATOM     14  N   UNL     1      48.298   2.985  19.436  0.00  0.00    +0.000 NA
ATOM     15  H   UNL     1      48.351   3.388  20.371  0.00  0.00    +0.000 HD
ATOM     16  H   UNL     1      49.003   2.249  19.415  0.00  0.00    +0.000 HD
ENDBRANCH   8  14
ENDBRANCH   7  11
ENDBRANCH   1   7
BRANCH   4  17
ATOM     17  C   UNL     1      47.242   7.943  11.987  0.00  0.00    +0.000 C 
BRANCH  17  18
ATOM     18  N   UNL     1      46.645   6.650  11.752  0.00  0.00    +0.000 N 
ATOM     19  C   UNL     1      45.281   6.501  11.707  0.00  0.00    +0.000 C 
ATOM     20  O   UNL     1      44.522   7.459  11.838  0.00  0.00    +0.000 OA
ATOM     21  H   UNL     1      47.233   5.831  11.873  0.00  0.00    +0.000 HD
BRANCH  19  22
ATOM     22  C   UNL     1      44.767   5.151  11.434  0.00  0.00    +0.000 A 
ATOM     23  C   UNL     1      44.030   4.489  12.407  0.00  0.00    +0.000 A 
ATOM     24  S   UNL     1      43.463   2.958  11.916  0.00  0.00    +0.000 S 
ATOM     25  C   UNL     1      44.227   3.099  10.404  0.00  0.00    +0.000 A 
ATOM     26  N   UNL     1      44.157   2.095   9.488  0.00  0.00    +0.000 NA
ATOM     27  C   UNL     1      44.804   2.323   8.395  0.00  0.00    +0.000 A 
ATOM     28  N   UNL     1      45.511   3.467   8.131  0.00  0.00    +0.000 N 
ATOM     29  C   UNL     1      45.588   4.519   9.015  0.00  0.00    +0.000 A 
ATOM     30  O   UNL     1      46.195   5.546   8.735  0.00  0.00    +0.000 OA
ATOM     31  C   UNL     1      44.886   4.309  10.266  0.00  0.00    +0.000 A 
ATOM     32  H   UNL     1      45.989   3.587   7.250  0.00  0.00    +0.000 HD
ENDBRANCH  19  22
ENDBRANCH  17  18
ENDBRANCH   4  17
TORSDOF 6
ENDMDL
MODEL 9
REMARK VINA RESULT:    -7.541      4.260      9.316
REMARK INTER + INTRA:          -9.919
REMARK INTER:                  -9.343
REMARK INTRA:                  -0.575
REMARK UNBOUND:                 0.047
REMARK  Name = 
REMARK  6 active torsions:
REMARK  status: ('A' for Active; 'I' for Inactive)
REMARK    1  A    between atoms: N_1  and  C_2
REMARK    2  A    between atoms: C_5  and  C_6
REMARK    3  A    between atoms: C_6  and  C_7
REMARK    4  A    between atoms: C_10  and  C_11
REMARK    5  A    between atoms: C_11  and  N_12
REMARK    6  A    between atoms: C_13  and  C_15
REMARK                            x       y       z     vdW  Elec       q    Type
REMARK                         _______ _______ _______ _____ _____    ______ ____
ROOT
ATOM      1  C   UNL     1      51.377   3.548  17.660  0.00  0.00    +0.000 A 
ATOM      2  C   UNL     1      50.599   4.672  17.925  0.00  0.00    +0.000 A 
ATOM      3  C   UNL     1      49.231   4.633  17.651  0.00  0.00    +0.000 A 
ATOM      4  C   UNL     1      48.664   3.482  17.104  0.00  0.00    +0.000 A 
ATOM      5  C   UNL     1      49.515   2.408  16.873  0.00  0.00    +0.000 A 
ATOM      6  N   UNL     1      50.846   2.415  17.139  0.00  0.00    +0.000 NA
ENDROOT
BRANCH   1   7
ATOM      7  C   UNL     1      52.854   3.545  17.993  0.00  0.00    +0.000 C 
BRANCH   7  11
ATOM      8  C   UNL     1      55.407   0.074  18.967  0.00  0.00    +0.000 C 
ATOM      9  C   UNL     1      54.272  -0.088  17.952  0.00  0.00    +0.000 C 
ATOM     10  C   UNL     1      53.833   1.263  17.392  0.00  0.00    +0.000 C 
ATOM     11  C   UNL     1      53.372   2.194  18.525  0.00  0.00    +0.000 C 
ATOM     12  C   UNL     1      54.535   2.398  19.514  0.00  0.00    +0.000 C 
ATOM     13  C   UNL     1      55.029   1.062  20.079  0.00  0.00    +0.000 C 
BRANCH   8  14
ATOM     14  N   UNL     1      55.755  -1.222  19.548  0.00  0.00    +0.000 NA
ATOM     15  H   UNL     1      56.770  -1.320  19.579  0.00  0.00    +0.000 HD
ATOM     16  H   UNL     1      55.427  -1.970  18.936  0.00  0.00    +0.000 HD
ENDBRANCH   8  14
ENDBRANCH   7  11
ENDBRANCH   1   7
BRANCH   4  17
ATOM     17  C   UNL     1      47.193   3.394  16.823  0.00  0.00    +0.000 C 
BRANCH  17  18
ATOM     18  N   UNL     1      46.772   4.392  15.869  0.00  0.00    +0.000 N 
ATOM     19  C   UNL     1      46.803   4.138  14.520  0.00  0.00    +0.000 C 
ATOM     20  O   UNL     1      47.162   3.049  14.077  0.00  0.00    +0.000 OA
ATOM     21  H   UNL     1      46.698   5.352  16.194  0.00  0.00    +0.000 HD
BRANCH  19  22
ATOM     22  C   UNL     1      46.327   5.206  13.630  0.00  0.00    +0.000 A 
ATOM     23  C   UNL     1      47.141   6.303  13.381  0.00  0.00    +0.000 A 
ATOM     24  S   UNL     1      46.468   7.425  12.289  0.00  0.00    +0.000 S 
ATOM     25  C   UNL     1      45.039   6.514  12.149  0.00  0.00    +0.000 A 
ATOM     26  N   UNL     1      44.011   6.940  11.366  0.00  0.00    +0.000 NA
ATOM     27  C   UNL     1      42.977   6.167  11.374  0.00  0.00    +0.000 A 
ATOM     28  N   UNL     1      42.880   5.003  12.089  0.00  0.00    +0.000 N 
ATOM     29  C   UNL     1      43.903   4.519  12.872  0.00  0.00    +0.000 A 
ATOM     30  O   UNL     1      43.801   3.453  13.468  0.00  0.00    +0.000 OA
ATOM     31  C   UNL     1      45.084   5.357  12.908  0.00  0.00    +0.000 A 
ATOM     32  H   UNL     1      42.045   4.438  12.044  0.00  0.00    +0.000 HD
ENDBRANCH  19  22
ENDBRANCH  17  18
ENDBRANCH   4  17
TORSDOF 6
ENDMDL
