MODEL 1
REMARK VINA RESULT:    -8.496      0.000      0.000
REMARK INTER + INTRA:         -13.490
REMARK INTER:                 -12.718
REMARK INTRA:                  -0.772
REMARK UNBOUND:                -0.772
REMARK  Name = 
REMARK  9 active torsions:
REMARK  status: ('A' for Active; 'I' for Inactive)
REMARK    1  A    between atoms: N_1  and  C_2
REMARK    2  A    between atoms: C_2  and  N_3
REMARK    3  A    between atoms: C_2  and  C_19
REMARK    4  A    between atoms: N_3  and  C_4
REMARK    5  A    between atoms: C_4  and  C_5
REMARK    6  A    between atoms: C_8  and  C_9
REMARK    7  A    between atoms: C_9  and  N_10
REMARK    8  A    between atoms: N_10  and  C_11
REMARK    9  A    between atoms: C_11  and  C_12
REMARK                            x       y       z     vdW  Elec       q    Type
REMARK                         _______ _______ _______ _____ _____    ______ ____
ROOT
ATOM      1  N   UNL     1      47.124   5.041  15.915  0.00  0.00    +0.000 NA
ATOM      2  H   UNL     1      47.353   5.785  16.578  0.00  0.00    +0.000 HD
ENDROOT
BRANCH   1   3
ATOM      3  C   UNL     1      47.673   3.829  16.485  0.00  0.00    +0.000 C 
BRANCH   3   4
ATOM      4  C   UNL     1      48.860   4.216  17.349  0.00  0.00    +0.000 A 
ATOM      5  C   UNL     1      48.965   5.373  18.118  0.00  0.00    +0.000 A 
ATOM      6  S   UNL     1      50.452   5.525  18.942  0.00  0.00    +0.000 S 
ATOM      7  C   UNL     1      51.005   4.038  18.332  0.00  0.00    +0.000 A 
ATOM      8  N   UNL     1      52.242   3.565  18.640  0.00  0.00    +0.000 NA
ATOM      9  C   UNL     1      52.517   2.418  18.112  0.00  0.00    +0.000 A 
ATOM     10  N   UNL     1      51.665   1.696  17.313  0.00  0.00    +0.000 N 
ATOM     11  C   UNL     1      50.412   2.147  16.955  0.00  0.00    +0.000 A 
ATOM     12  O   UNL     1      49.679   1.509  16.201  0.00  0.00    +0.000 OA
ATOM     13  C   UNL     1      50.062   3.431  17.523  0.00  0.00    +0.000 A 
ATOM     14  H   UNL     1      51.949   0.808  16.934  0.00  0.00    +0.000 HD
ENDBRANCH   3   4
BRANCH   3  15
ATOM     15  N   UNL     1      46.645   3.284  17.336  0.00  0.00    +0.000 NA
ATOM     16  H   UNL     1      46.000   2.739  16.777  0.00  0.00    +0.000 HD
ATOM     17  H   UNL     1      46.114   4.093  17.659  0.00  0.00    +0.000 HD
ENDBRANCH   3  15
ENDBRANCH   1   3
BRANCH   1  18
ATOM     18  C   UNL     1      47.718   5.435  14.636  0.00  0.00    +0.000 C 
BRANCH  18  19
ATOM     19  C   UNL     1      46.731   5.298  13.507  0.00  0.00    +0.000 A 
ATOM     20  C   UNL     1      46.795   6.111  12.371  0.00  0.00    +0.000 A 
ATOM     21  C   UNL     1      45.837   5.980  11.369  0.00  0.00    +0.000 A 
ATOM     22  C   UNL     1      44.831   5.032  11.524  0.00  0.00    +0.000 A 
ATOM     23  N   UNL     1      44.772   4.200  12.600  0.00  0.00    +0.000 NA
ATOM     24  C   UNL     1      45.705   4.363  13.562  0.00  0.00    +0.000 A 
BRANCH  22  25
ATOM     25  C   UNL     1      43.745   4.898  10.472  0.00  0.00    +0.000 C 
BRANCH  25  26
ATOM     26  N   UNL     1      44.238   4.430   9.165  0.00  0.00    +0.000 NA
ATOM     27  H   UNL     1      45.155   4.869   9.045  0.00  0.00    +0.000 HD
BRANCH  26  28
ATOM     28  C   UNL     1      44.444   2.971   9.153  0.00  0.00    +0.000 C 
BRANCH  28  29
ATOM     29  C   UNL     1      45.829   2.624   8.581  0.00  0.00    +0.000 C 
ATOM     30  C   UNL     1      46.057   3.189   7.187  0.00  0.00    +0.000 C 
ATOM     31  C   UNL     1      47.231   2.372   6.688  0.00  0.00    +0.000 C 
ATOM     32  C   UNL     1      47.085   1.025   7.387  0.00  0.00    +0.000 C 
ATOM     33  N   UNL     1      46.016   1.179   8.375  0.00  0.00    +0.000 NA
ATOM     34  H   UNL     1      46.265   0.724   9.252  0.00  0.00    +0.000 HD
ENDBRANCH  28  29
ENDBRANCH  26  28
ENDBRANCH  25  26
ENDBRANCH  22  25
ENDBRANCH  18  19
ENDBRANCH   1  18
TORSDOF 9
ENDMDL
MODEL 2
REMARK VINA RESULT:    -7.756      1.803      2.472
REMARK INTER + INTRA:         -12.382
REMARK INTER:                 -11.591
REMARK INTRA:                  -0.791
REMARK UNBOUND:                -0.772
REMARK  Name = 
REMARK  9 active torsions:
REMARK  status: ('A' for Active; 'I' for Inactive)
REMARK    1  A    between atoms: N_1  and  C_2
REMARK    2  A    between atoms: C_2  and  N_3
REMARK    3  A    between atoms: C_2  and  C_19
REMARK    4  A    between atoms: N_3  and  C_4
REMARK    5  A    between atoms: C_4  and  C_5
REMARK    6  A    between atoms: C_8  and  C_9
REMARK    7  A    between atoms: C_9  and  N_10
REMARK    8  A    between atoms: N_10  and  C_11
REMARK    9  A    between atoms: C_11  and  C_12
REMARK                            x       y       z     vdW  Elec       q    Type
REMARK                         _______ _______ _______ _____ _____    ______ ____
ROOT
ATOM      1  N   UNL     1      46.864   4.372  16.075  0.00  0.00    +0.000 NA
ATOM      2  H   UNL     1      46.857   5.158  16.731  0.00  0.00    +0.000 HD
ENDROOT
BRANCH   1   3
ATOM      3  C   UNL     1      47.550   3.298  16.761  0.00  0.00    +0.000 C 
BRANCH   3   4
ATOM      4  C   UNL     1      48.750   3.892  17.476  0.00  0.00    +0.000 A 
ATOM      5  C   UNL     1      50.079   3.520  17.284  0.00  0.00    +0.000 A 
ATOM      6  S   UNL     1      51.184   4.358  18.278  0.00  0.00    +0.000 S 
ATOM      7  C   UNL     1      49.939   5.277  18.983  0.00  0.00    +0.000 A 
ATOM      8  N   UNL     1      50.201   6.197  19.948  0.00  0.00    +0.000 NA
ATOM      9  C   UNL     1      49.156   6.823  20.381  0.00  0.00    +0.000 A 
ATOM     10  N   UNL     1      47.875   6.621  19.927  0.00  0.00    +0.000 N 
ATOM     11  C   UNL     1      47.560   5.683  18.967  0.00  0.00    +0.000 A 
ATOM     12  O   UNL     1      46.402   5.482  18.605  0.00  0.00    +0.000 OA
ATOM     13  C   UNL     1      48.702   4.955  18.456  0.00  0.00    +0.000 A 
ATOM     14  H   UNL     1      47.108   7.146  20.313  0.00  0.00    +0.000 HD
ENDBRANCH   3   4
BRANCH   3  15
ATOM     15  N   UNL     1      46.627   2.801  17.752  0.00  0.00    +0.000 NA
ATOM     16  H   UNL     1      47.102   2.720  18.642  0.00  0.00    +0.000 HD
ATOM     17  H   UNL     1      46.420   1.844  17.462  0.00  0.00    +0.000 HD
ENDBRANCH   3  15
ENDBRANCH   1   3
BRANCH   1  18
ATOM     18  C   UNL     1      47.540   4.851  14.868  0.00  0.00    +0.000 C 
BRANCH  18  19
ATOM     19  C   UNL     1      46.609   4.859  13.684  0.00  0.00    +0.000 A 
ATOM     20  C   UNL     1      46.404   6.010  12.917  0.00  0.00    +0.000 A 
ATOM     21  C   UNL     1      45.503   5.987  11.856  0.00  0.00    +0.000 A 
ATOM     22  C   UNL     1      44.824   4.804  11.582  0.00  0.00    +0.000 A 
ATOM     23  N   UNL     1      45.039   3.659  12.286  0.00  0.00    +0.000 NA
ATOM     24  C   UNL     1      45.905   3.719  13.320  0.00  0.00    +0.000 A 
BRANCH  22  25
ATOM     25  C   UNL     1      43.800   4.759  10.462  0.00  0.00    +0.000 C 
BRANCH  25  26
ATOM     26  N   UNL     1      44.371   4.413   9.148  0.00  0.00    +0.000 NA
ATOM     27  H   UNL     1      45.309   4.823   9.141  0.00  0.00    +0.000 HD
BRANCH  26  28
ATOM     28  C   UNL     1      44.525   2.957   8.989  0.00  0.00    +0.000 C 
BRANCH  28  29
ATOM     29  C   UNL     1      45.938   2.614   8.487  0.00  0.00    +0.000 C 
ATOM     30  C   UNL     1      46.251   3.219   7.127  0.00  0.00    +0.000 C 
ATOM     31  C   UNL     1      47.445   2.406   6.671  0.00  0.00    +0.000 C 
ATOM     32  C   UNL     1      47.248   1.040   7.318  0.00  0.00    +0.000 C 
ATOM     33  N   UNL     1      46.125   1.174   8.247  0.00  0.00    +0.000 NA
ATOM     34  H   UNL     1      46.318   0.690   9.123  0.00  0.00    +0.000 HD
ENDBRANCH  28  29
ENDBRANCH  26  28
ENDBRANCH  25  26
ENDBRANCH  22  25
ENDBRANCH  18  19
ENDBRANCH   1  18
TORSDOF 9
ENDMDL
MODEL 3
REMARK VINA RESULT:    -7.491      2.819      3.418
REMARK INTER + INTRA:         -11.986
REMARK INTER:                 -10.863
REMARK INTRA:                  -1.122
REMARK UNBOUND:                -0.772
REMARK  Name = 
REMARK  9 active torsions:
REMARK  status: ('A' for Active; 'I' for Inactive)
REMARK    1  A    between atoms: N_1  and  C_2
REMARK    2  A    between atoms: C_2  and  N_3
REMARK    3  A    between atoms: C_2  and  C_19
REMARK    4  A    between atoms: N_3  and  C_4
REMARK    5  A    between atoms: C_4  and  C_5
REMARK    6  A    between atoms: C_8  and  C_9
REMARK    7  A    between atoms: C_9  and  N_10
REMARK    8  A    between atoms: N_10  and  C_11
REMARK    9  A    between atoms: C_11  and  C_12
REMARK                            x       y       z     vdW  Elec       q    Type
REMARK                         _______ _______ _______ _____ _____    ______ ____
ROOT
ATOM      1  N   UNL     1      48.658   6.247  14.049  0.00  0.00    +0.000 NA
ATOM      2  H   UNL     1      48.211   5.389  14.383  0.00  0.00    +0.000 HD
ENDROOT
BRANCH   1   3
ATOM      3  C   UNL     1      49.089   6.949  15.239  0.00  0.00    +0.000 C 
BRANCH   3   4
ATOM      4  C   UNL     1      48.641   6.142  16.445  0.00  0.00    +0.000 A 
ATOM      5  C   UNL     1      48.177   4.829  16.419  0.00  0.00    +0.000 A 
ATOM      6  S   UNL     1      47.715   4.227  17.948  0.00  0.00    +0.000 S 
ATOM      7  C   UNL     1      48.147   5.682  18.713  0.00  0.00    +0.000 A 
ATOM      8  N   UNL     1      47.987   5.850  20.053  0.00  0.00    +0.000 NA
ATOM      9  C   UNL     1      48.370   7.004  20.491  0.00  0.00    +0.000 A 
ATOM     10  N   UNL     1      48.908   8.002  19.715  0.00  0.00    +0.000 N 
ATOM     11  C   UNL     1      49.066   7.885  18.350  0.00  0.00    +0.000 A 
ATOM     12  O   UNL     1      49.506   8.804  17.662  0.00  0.00    +0.000 OA
ATOM     13  C   UNL     1      48.648   6.606  17.814  0.00  0.00    +0.000 A 
ATOM     14  H   UNL     1      49.182   8.878  20.126  0.00  0.00    +0.000 HD
ENDBRANCH   3   4
BRANCH   3  15
ATOM     15  N   UNL     1      50.530   6.955  15.202  0.00  0.00    +0.000 NA
ATOM     16  H   UNL     1      50.891   6.796  16.135  0.00  0.00    +0.000 HD
ATOM     17  H   UNL     1      50.783   7.916  14.969  0.00  0.00    +0.000 HD
ENDBRANCH   3  15
ENDBRANCH   1   3
BRANCH   1  18
ATOM     18  C   UNL     1      47.649   6.954  13.258  0.00  0.00    +0.000 C 
BRANCH  18  19
ATOM     19  C   UNL     1      46.679   5.993  12.621  0.00  0.00    +0.000 A 
ATOM     20  C   UNL     1      46.207   6.180  11.318  0.00  0.00    +0.000 A 
ATOM     21  C   UNL     1      45.278   5.293  10.782  0.00  0.00    +0.000 A 
ATOM     22  C   UNL     1      44.841   4.229  11.565  0.00  0.00    +0.000 A 
ATOM     23  N   UNL     1      45.318   4.000  12.819  0.00  0.00    +0.000 NA
ATOM     24  C   UNL     1      46.204   4.889  13.317  0.00  0.00    +0.000 A 
BRANCH  22  25
ATOM     25  C   UNL     1      43.794   3.271  11.025  0.00  0.00    +0.000 C 
BRANCH  25  26
ATOM     26  N   UNL     1      43.819   3.126   9.560  0.00  0.00    +0.000 NA
ATOM     27  H   UNL     1      44.425   3.878   9.221  0.00  0.00    +0.000 HD
BRANCH  26  28
ATOM     28  C   UNL     1      44.429   1.850   9.149  0.00  0.00    +0.000 C 
BRANCH  28  29
ATOM     29  C   UNL     1      45.856   2.077   8.621  0.00  0.00    +0.000 C 
ATOM     30  C   UNL     1      45.917   3.083   7.481  0.00  0.00    +0.000 C 
ATOM     31  C   UNL     1      47.272   2.802   6.866  0.00  0.00    +0.000 C 
ATOM     32  C   UNL     1      47.508   1.318   7.121  0.00  0.00    +0.000 C 
ATOM     33  N   UNL     1      46.439   0.870   8.014  0.00  0.00    +0.000 NA
ATOM     34  H   UNL     1      46.805   0.251   8.736  0.00  0.00    +0.000 HD
ENDBRANCH  28  29
ENDBRANCH  26  28
ENDBRANCH  25  26
ENDBRANCH  22  25
ENDBRANCH  18  19
ENDBRANCH   1  18
TORSDOF 9
ENDMDL
MODEL 4
REMARK VINA RESULT:    -7.317      2.402      3.203
REMARK INTER + INTRA:         -11.725
REMARK INTER:                 -10.713
REMARK INTRA:                  -1.012
REMARK UNBOUND:                -0.772
REMARK  Name = 
REMARK  9 active torsions:
REMARK  status: ('A' for Active; 'I' for Inactive)
REMARK    1  A    between atoms: N_1  and  C_2
REMARK    2  A    between atoms: C_2  and  N_3
REMARK    3  A    between atoms: C_2  and  C_19
REMARK    4  A    between atoms: N_3  and  C_4
REMARK    5  A    between atoms: C_4  and  C_5
REMARK    6  A    between atoms: C_8  and  C_9
REMARK    7  A    between atoms: C_9  and  N_10
REMARK    8  A    between atoms: N_10  and  C_11
REMARK    9  A    between atoms: C_11  and  C_12
REMARK                            x       y       z     vdW  Elec       q    Type
REMARK                         _______ _______ _______ _____ _____    ______ ____
ROOT
ATOM      1  N   UNL     1      48.845   6.650  14.224  0.00  0.00    +0.000 NA
ATOM      2  H   UNL     1      48.525   6.010  14.956  0.00  0.00    +0.000 HD
ENDROOT
BRANCH   1   3
ATOM      3  C   UNL     1      49.687   7.617  14.895  0.00  0.00    +0.000 C 
BRANCH   3   4
ATOM      4  C   UNL     1      49.034   7.964  16.222  0.00  0.00    +0.000 A 
ATOM      5  C   UNL     1      48.635   9.236  16.625  0.00  0.00    +0.000 A 
ATOM      6  S   UNL     1      47.969   9.289  18.195  0.00  0.00    +0.000 S 
ATOM      7  C   UNL     1      48.155   7.610  18.390  0.00  0.00    +0.000 A 
ATOM      8  N   UNL     1      47.789   6.989  19.542  0.00  0.00    +0.000 NA
ATOM      9  C   UNL     1      47.980   5.710  19.538  0.00  0.00    +0.000 A 
ATOM     10  N   UNL     1      48.492   4.995  18.483  0.00  0.00    +0.000 N 
ATOM     11  C   UNL     1      48.898   5.586  17.305  0.00  0.00    +0.000 A 
ATOM     12  O   UNL     1      49.398   4.939  16.387  0.00  0.00    +0.000 OA
ATOM     13  C   UNL     1      48.704   7.021  17.266  0.00  0.00    +0.000 A 
ATOM     14  H   UNL     1      48.615   3.999  18.552  0.00  0.00    +0.000 HD
ENDBRANCH   3   4
BRANCH   3  15
ATOM     15  N   UNL     1      50.935   6.947  15.161  0.00  0.00    +0.000 NA
ATOM     16  H   UNL     1      51.651   7.314  14.546  0.00  0.00    +0.000 HD
ATOM     17  H   UNL     1      50.785   5.983  14.865  0.00  0.00    +0.000 HD
ENDBRANCH   3  15
ENDBRANCH   1   3
BRANCH   1  18
ATOM     18  C   UNL     1      47.639   7.213  13.615  0.00  0.00    +0.000 C 
BRANCH  18  19
ATOM     19  C   UNL     1      46.803   6.144  12.962  0.00  0.00    +0.000 A 
ATOM     20  C   UNL     1      46.359   6.261  11.641  0.00  0.00    +0.000 A 
ATOM     21  C   UNL     1      45.552   5.269  11.090  0.00  0.00    +0.000 A 
ATOM     22  C   UNL     1      45.207   4.174  11.875  0.00  0.00    +0.000 A 
ATOM     23  N   UNL     1      45.663   4.016  13.148  0.00  0.00    +0.000 NA
ATOM     24  C   UNL     1      46.428   5.003  13.660  0.00  0.00    +0.000 A 
BRANCH  22  25
ATOM     25  C   UNL     1      44.291   3.100  11.318  0.00  0.00    +0.000 C 
BRANCH  25  26
ATOM     26  N   UNL     1      43.980   3.267   9.887  0.00  0.00    +0.000 NA
ATOM     27  H   UNL     1      44.542   4.064   9.577  0.00  0.00    +0.000 HD
BRANCH  26  28
ATOM     28  C   UNL     1      44.402   2.096   9.099  0.00  0.00    +0.000 C 
BRANCH  28  29
ATOM     29  C   UNL     1      45.848   2.269   8.603  0.00  0.00    +0.000 C 
ATOM     30  C   UNL     1      45.971   3.271   7.464  0.00  0.00    +0.000 C 
ATOM     31  C   UNL     1      47.328   2.940   6.879  0.00  0.00    +0.000 C 
ATOM     32  C   UNL     1      47.503   1.448   7.139  0.00  0.00    +0.000 C 
ATOM     33  N   UNL     1      46.399   1.041   8.008  0.00  0.00    +0.000 NA
ATOM     34  H   UNL     1      46.725   0.409   8.738  0.00  0.00    +0.000 HD
ENDBRANCH  28  29
ENDBRANCH  26  28
ENDBRANCH  25  26
ENDBRANCH  22  25
ENDBRANCH  18  19
ENDBRANCH   1  18
TORSDOF 9
ENDMDL
MODEL 5
REMARK VINA RESULT:    -7.269      2.447      3.018
REMARK INTER + INTRA:         -11.653
REMARK INTER:                 -10.836
REMARK INTRA:                  -0.817
REMARK UNBOUND:                -0.772
REMARK  Name = 
REMARK  9 active torsions:
REMARK  status: ('A' for Active; 'I' for Inactive)
REMARK    1  A    between atoms: N_1  and  C_2
REMARK    2  A    between atoms: C_2  and  N_3
REMARK    3  A    between atoms: C_2  and  C_19
REMARK    4  A    between atoms: N_3  and  C_4
REMARK    5  A    between atoms: C_4  and  C_5
REMARK    6  A    between atoms: C_8  and  C_9
REMARK    7  A    between atoms: C_9  and  N_10
REMARK    8  A    between atoms: N_10  and  C_11
REMARK    9  A    between atoms: C_11  and  C_12
REMARK                            x       y       z     vdW  Elec       q    Type
REMARK                         _______ _______ _______ _____ _____    ______ ____
ROOT
ATOM      1  N   UNL     1      47.167   4.801  15.886  0.00  0.00    +0.000 NA
ATOM      2  H   UNL     1      47.687   5.622  15.564  0.00  0.00    +0.000 HD
ENDROOT
BRANCH   1   3
ATOM      3  C   UNL     1      47.744   4.454  17.167  0.00  0.00    +0.000 C 
BRANCH   3   4
ATOM      4  C   UNL     1      47.914   5.735  17.965  0.00  0.00    +0.000 A 
ATOM      5  C   UNL     1      47.312   6.017  19.189  0.00  0.00    +0.000 A 
ATOM      6  S   UNL     1      47.680   7.567  19.801  0.00  0.00    +0.000 S 
ATOM      7  C   UNL     1      48.684   7.913  18.473  0.00  0.00    +0.000 A 
ATOM      8  N   UNL     1      49.316   9.112  18.360  0.00  0.00    +0.000 NA
ATOM      9  C   UNL     1      50.053   9.224  17.304  0.00  0.00    +0.000 A 
ATOM     10  N   UNL     1      50.224   8.244  16.357  0.00  0.00    +0.000 N 
ATOM     11  C   UNL     1      49.584   7.024  16.418  0.00  0.00    +0.000 A 
ATOM     12  O   UNL     1      49.711   6.175  15.538  0.00  0.00    +0.000 OA
ATOM     13  C   UNL     1      48.745   6.855  17.586  0.00  0.00    +0.000 A 
ATOM     14  H   UNL     1      50.813   8.404  15.557  0.00  0.00    +0.000 HD
ENDBRANCH   3   4
BRANCH   3  15
ATOM     15  N   UNL     1      46.771   3.624  17.834  0.00  0.00    +0.000 NA
ATOM     16  H   UNL     1      46.552   4.025  18.738  0.00  0.00    +0.000 HD
ATOM     17  H   UNL     1      47.261   2.751  18.031  0.00  0.00    +0.000 HD
ENDBRANCH   3  15
ENDBRANCH   1   3
BRANCH   1  18
ATOM     18  C   UNL     1      47.332   3.780  14.849  0.00  0.00    +0.000 C 
BRANCH  18  19
ATOM     19  C   UNL     1      46.519   4.106  13.624  0.00  0.00    +0.000 A 
ATOM     20  C   UNL     1      46.305   5.425  13.212  0.00  0.00    +0.000 A 
ATOM     21  C   UNL     1      45.512   5.684  12.098  0.00  0.00    +0.000 A 
ATOM     22  C   UNL     1      44.948   4.612  11.414  0.00  0.00    +0.000 A 
ATOM     23  N   UNL     1      45.177   3.318  11.768  0.00  0.00    +0.000 NA
ATOM     24  C   UNL     1      45.936   3.100  12.864  0.00  0.00    +0.000 A 
BRANCH  22  25
ATOM     25  C   UNL     1      44.040   4.865  10.223  0.00  0.00    +0.000 C 
BRANCH  25  26
ATOM     26  N   UNL     1      44.741   4.852   8.928  0.00  0.00    +0.000 NA
ATOM     27  H   UNL     1      45.726   5.026   9.148  0.00  0.00    +0.000 HD
BRANCH  26  28
ATOM     28  C   UNL     1      44.662   3.531   8.280  0.00  0.00    +0.000 C 
BRANCH  28  29
ATOM     29  C   UNL     1      46.070   2.988   7.983  0.00  0.00    +0.000 C 
ATOM     30  C   UNL     1      46.525   3.256   6.556  0.00  0.00    +0.000 C 
ATOM     31  C   UNL     1      47.672   2.281   6.387  0.00  0.00    +0.000 C 
ATOM     32  C   UNL     1      47.314   1.108   7.293  0.00  0.00    +0.000 C 
ATOM     33  N   UNL     1      46.147   1.521   8.073  0.00  0.00    +0.000 NA
ATOM     34  H   UNL     1      46.239   1.229   9.046  0.00  0.00    +0.000 HD
ENDBRANCH  28  29
ENDBRANCH  26  28
ENDBRANCH  25  26
ENDBRANCH  22  25
ENDBRANCH  18  19
ENDBRANCH   1  18
TORSDOF 9
ENDMDL
MODEL 6
REMARK VINA RESULT:    -7.231      3.454      9.208
REMARK INTER + INTRA:         -11.596
REMARK INTER:                 -10.043
REMARK INTRA:                  -1.553
REMARK UNBOUND:                -0.772
REMARK  Name = 
REMARK  9 active torsions:
REMARK  status: ('A' for Active; 'I' for Inactive)
REMARK    1  A    between atoms: N_1  and  C_2
REMARK    2  A    between atoms: C_2  and  N_3
REMARK    3  A    between atoms: C_2  and  C_19
REMARK    4  A    between atoms: N_3  and  C_4
REMARK    5  A    between atoms: C_4  and  C_5
REMARK    6  A    between atoms: C_8  and  C_9
REMARK    7  A    between atoms: C_9  and  N_10
REMARK    8  A    between atoms: N_10  and  C_11
REMARK    9  A    between atoms: C_11  and  C_12
REMARK                            x       y       z     vdW  Elec       q    Type
REMARK                         _______ _______ _______ _____ _____    ______ ____
ROOT
ATOM      1  N   UNL     1      45.779   7.001  12.651  0.00  0.00    +0.000 NA
ATOM      2  H   UNL     1      45.276   6.410  13.317  0.00  0.00    +0.000 HD
ENDROOT
BRANCH   1   3
ATOM      3  C   UNL     1      45.136   6.781  11.373  0.00  0.00    +0.000 C 
BRANCH   3   4
ATOM      4  C   UNL     1      44.620   5.353  11.350  0.00  0.00    +0.000 A 
ATOM      5  C   UNL     1      43.853   4.748  12.343  0.00  0.00    +0.000 A 
ATOM      6  S   UNL     1      43.472   3.115  12.027  0.00  0.00    +0.000 S 
ATOM      7  C   UNL     1      44.287   3.156  10.536  0.00  0.00    +0.000 A 
ATOM      8  N   UNL     1      44.362   2.055   9.742  0.00  0.00    +0.000 NA
ATOM      9  C   UNL     1      45.004   2.242   8.637  0.00  0.00    +0.000 A 
ATOM     10  N   UNL     1      45.569   3.432   8.247  0.00  0.00    +0.000 N 
ATOM     11  C   UNL     1      45.538   4.567   9.030  0.00  0.00    +0.000 A 
ATOM     12  O   UNL     1      46.088   5.612   8.687  0.00  0.00    +0.000 OA
ATOM     13  C   UNL     1      44.829   4.402  10.281  0.00  0.00    +0.000 A 
ATOM     14  H   UNL     1      46.057   3.504   7.370  0.00  0.00    +0.000 HD
ENDBRANCH   3   4
BRANCH   3  15
ATOM     15  N   UNL     1      44.007   7.676  11.332  0.00  0.00    +0.000 NA
ATOM     16  H   UNL     1      43.381   7.394  10.587  0.00  0.00    +0.000 HD
ATOM     17  H   UNL     1      44.393   8.574  11.041  0.00  0.00    +0.000 HD
ENDBRANCH   3  15
ENDBRANCH   1   3
BRANCH   1  18
ATOM     18  C   UNL     1      47.180   6.580  12.706  0.00  0.00    +0.000 C 
BRANCH  18  19
ATOM     19  C   UNL     1      47.480   5.837  13.981  0.00  0.00    +0.000 A 
ATOM     20  C   UNL     1      46.874   4.612  14.278  0.00  0.00    +0.000 A 
ATOM     21  C   UNL     1      47.146   3.978  15.487  0.00  0.00    +0.000 A 
ATOM     22  C   UNL     1      48.026   4.585  16.378  0.00  0.00    +0.000 A 
ATOM     23  N   UNL     1      48.662   5.754  16.093  0.00  0.00    +0.000 NA
ATOM     24  C   UNL     1      48.363   6.353  14.920  0.00  0.00    +0.000 A 
BRANCH  22  25
ATOM     25  C   UNL     1      48.307   3.941  17.724  0.00  0.00    +0.000 C 
BRANCH  25  26
ATOM     26  N   UNL     1      47.700   4.653  18.861  0.00  0.00    +0.000 NA
ATOM     27  H   UNL     1      47.199   3.938  19.396  0.00  0.00    +0.000 HD
BRANCH  26  28
ATOM     28  C   UNL     1      48.723   5.231  19.750  0.00  0.00    +0.000 C 
BRANCH  28  29
ATOM     29  C   UNL     1      48.735   6.765  19.636  0.00  0.00    +0.000 C 
ATOM     30  C   UNL     1      47.407   7.339  19.167  0.00  0.00    +0.000 C 
ATOM     31  C   UNL     1      47.791   8.733  18.716  0.00  0.00    +0.000 C 
ATOM     32  C   UNL     1      49.232   8.598  18.239  0.00  0.00    +0.000 C 
ATOM     33  N   UNL     1      49.673   7.254  18.613  0.00  0.00    +0.000 NA
ATOM     34  H   UNL     1      50.623   7.274  18.983  0.00  0.00    +0.000 HD
ENDBRANCH  28  29
ENDBRANCH  26  28
ENDBRANCH  25  26
ENDBRANCH  22  25
ENDBRANCH  18  19
ENDBRANCH   1  18
TORSDOF 9
ENDMDL
MODEL 7
REMARK VINA RESULT:    -6.965      2.495      2.979
REMARK INTER + INTRA:         -11.198
REMARK INTER:                 -10.305
REMARK INTRA:                  -0.893
REMARK UNBOUND:                -0.772
REMARK  Name = 
REMARK  9 active torsions:
REMARK  status: ('A' for Active; 'I' for Inactive)
REMARK    1  A    between atoms: N_1  and  C_2
REMARK    2  A    between atoms: C_2  and  N_3
REMARK    3  A    between atoms: C_2  and  C_19
REMARK    4  A    between atoms: N_3  and  C_4
REMARK    5  A    between atoms: C_4  and  C_5
REMARK    6  A    between atoms: C_8  and  C_9
REMARK    7  A    between atoms: C_9  and  N_10
REMARK    8  A    between atoms: N_10  and  C_11
REMARK    9  A    between atoms: C_11  and  C_12
REMARK                            x       y       z     vdW  Elec       q    Type
REMARK                         _______ _______ _______ _____ _____    ______ ____
ROOT
ATOM      1  N   UNL     1      47.689   7.411  14.237  0.00  0.00    +0.000 NA
ATOM      2  H   UNL     1      48.233   7.900  13.520  0.00  0.00    +0.000 HD
ENDROOT
BRANCH   1   3
ATOM      3  C   UNL     1      48.207   7.881  15.504  0.00  0.00    +0.000 C 
BRANCH   3   4
ATOM      4  C   UNL     1      49.722   7.894  15.414  0.00  0.00    +0.000 A 
ATOM      5  C   UNL     1      50.487   8.797  14.680  0.00  0.00    +0.000 A 
ATOM      6  S   UNL     1      52.167   8.508  14.760  0.00  0.00    +0.000 S 
ATOM      7  C   UNL     1      51.946   7.186  15.806  0.00  0.00    +0.000 A 
ATOM      8  N   UNL     1      53.003   6.460  16.258  0.00  0.00    +0.000 NA
ATOM      9  C   UNL     1      52.679   5.493  17.052  0.00  0.00    +0.000 A 
ATOM     10  N   UNL     1      51.397   5.193  17.445  0.00  0.00    +0.000 N 
ATOM     11  C   UNL     1      50.295   5.887  16.993  0.00  0.00    +0.000 A 
ATOM     12  O   UNL     1      49.150   5.577  17.317  0.00  0.00    +0.000 OA
ATOM     13  C   UNL     1      50.610   6.979  16.097  0.00  0.00    +0.000 A 
ATOM     14  H   UNL     1      51.220   4.422  18.066  0.00  0.00    +0.000 HD
ENDBRANCH   3   4
BRANCH   3  15
ATOM     15  N   UNL     1      47.745   9.240  15.648  0.00  0.00    +0.000 NA
ATOM     16  H   UNL     1      48.251   9.836  15.004  0.00  0.00    +0.000 HD
ATOM     17  H   UNL     1      48.046   9.523  16.580  0.00  0.00    +0.000 HD
ENDBRANCH   3  15
ENDBRANCH   1   3
BRANCH   1  18
ATOM     18  C   UNL     1      47.884   5.981  13.993  0.00  0.00    +0.000 C 
BRANCH  18  19
ATOM     19  C   UNL     1      46.792   5.419  13.123  0.00  0.00    +0.000 A 
ATOM     20  C   UNL     1      46.262   6.140  12.048  0.00  0.00    +0.000 A 
ATOM     21  C   UNL     1      45.224   5.601  11.294  0.00  0.00    +0.000 A 
ATOM     22  C   UNL     1      44.735   4.343  11.631  0.00  0.00    +0.000 A 
ATOM     23  N   UNL     1      45.263   3.602  12.645  0.00  0.00    +0.000 NA
ATOM     24  C   UNL     1      46.257   4.160  13.368  0.00  0.00    +0.000 A 
BRANCH  22  25
ATOM     25  C   UNL     1      43.572   3.748  10.858  0.00  0.00    +0.000 C 
BRANCH  25  26
ATOM     26  N   UNL     1      43.881   3.462   9.446  0.00  0.00    +0.000 NA
ATOM     27  H   UNL     1      44.573   4.164   9.170  0.00  0.00    +0.000 HD
BRANCH  26  28
ATOM     28  C   UNL     1      44.508   2.138   9.284  0.00  0.00    +0.000 C 
BRANCH  28  29
ATOM     29  C   UNL     1      45.905   2.274   8.654  0.00  0.00    +0.000 C 
ATOM     30  C   UNL     1      45.924   3.186   7.437  0.00  0.00    +0.000 C 
ATOM     31  C   UNL     1      47.228   2.811   6.765  0.00  0.00    +0.000 C 
ATOM     32  C   UNL     1      47.435   1.344   7.121  0.00  0.00    +0.000 C 
ATOM     33  N   UNL     1      46.411   1.004   8.110  0.00  0.00    +0.000 NA
ATOM     34  H   UNL     1      46.803   0.429   8.855  0.00  0.00    +0.000 HD
ENDBRANCH  28  29
ENDBRANCH  26  28
ENDBRANCH  25  26
ENDBRANCH  22  25
ENDBRANCH  18  19
ENDBRANCH   1  18
TORSDOF 9
ENDMDL
MODEL 8
REMARK VINA RESULT:    -6.904      3.123      9.031
REMARK INTER + INTRA:         -11.107
REMARK INTER:                  -9.932
REMARK INTRA:                  -1.175
REMARK UNBOUND:                -0.772
REMARK  Name = 
REMARK  9 active torsions:
REMARK  status: ('A' for Active; 'I' for Inactive)
REMARK    1  A    between atoms: N_1  and  C_2
REMARK    2  A    between atoms: C_2  and  N_3
REMARK    3  A    between atoms: C_2  and  C_19
REMARK    4  A    between atoms: N_3  and  C_4
REMARK    5  A    between atoms: C_4  and  C_5
REMARK    6  A    between atoms: C_8  and  C_9
REMARK    7  A    between atoms: C_9  and  N_10
REMARK    8  A    between atoms: N_10  and  C_11
REMARK    9  A    between atoms: C_11  and  C_12
REMARK                            x       y       z     vdW  Elec       q    Type
REMARK                         _______ _______ _______ _____ _____    ______ ____
ROOT
ATOM      1  N   UNL     1      45.748   7.324  12.205  0.00  0.00    +0.000 NA
ATOM      2  H   UNL     1      45.272   6.891  13.002  0.00  0.00    +0.000 HD
ENDROOT
BRANCH   1   3
ATOM      3  C   UNL     1      44.919   7.035  11.054  0.00  0.00    +0.000 C 
BRANCH   3   4
ATOM      4  C   UNL     1      44.417   5.608  11.186  0.00  0.00    +0.000 A 
ATOM      5  C   UNL     1      43.592   5.125  12.199  0.00  0.00    +0.000 A 
ATOM      6  S   UNL     1      43.246   3.459  12.076  0.00  0.00    +0.000 S 
ATOM      7  C   UNL     1      44.156   3.319  10.647  0.00  0.00    +0.000 A 
ATOM      8  N   UNL     1      44.292   2.125  10.011  0.00  0.00    +0.000 NA
ATOM      9  C   UNL     1      45.003   2.177   8.933  0.00  0.00    +0.000 A 
ATOM     10  N   UNL     1      45.582   3.316   8.427  0.00  0.00    +0.000 N 
ATOM     11  C   UNL     1      45.491   4.543   9.051  0.00  0.00    +0.000 A 
ATOM     12  O   UNL     1      46.054   5.543   8.611  0.00  0.00    +0.000 OA
ATOM     13  C   UNL     1      44.703   4.530  10.266  0.00  0.00    +0.000 A 
ATOM     14  H   UNL     1      46.126   3.281   7.582  0.00  0.00    +0.000 HD
ENDBRANCH   3   4
BRANCH   3  15
ATOM     15  N   UNL     1      43.789   7.927  11.139  0.00  0.00    +0.000 NA
ATOM     16  H   UNL     1      43.758   8.342  12.063  0.00  0.00    +0.000 HD
ATOM     17  H   UNL     1      42.970   7.321  11.082  0.00  0.00    +0.000 HD
ENDBRANCH   3  15
ENDBRANCH   1   3
BRANCH   1  18
ATOM     18  C   UNL     1      47.085   6.731  12.155  0.00  0.00    +0.000 C 
BRANCH  18  19
ATOM     19  C   UNL     1      47.413   6.006  13.433  0.00  0.00    +0.000 A 
ATOM     20  C   UNL     1      46.820   4.782  13.758  0.00  0.00    +0.000 A 
ATOM     21  C   UNL     1      47.119   4.166  14.969  0.00  0.00    +0.000 A 
ATOM     22  C   UNL     1      48.012   4.789  15.835  0.00  0.00    +0.000 A 
ATOM     23  N   UNL     1      48.636   5.958  15.523  0.00  0.00    +0.000 NA
ATOM     24  C   UNL     1      48.311   6.540  14.349  0.00  0.00    +0.000 A 
BRANCH  22  25
ATOM     25  C   UNL     1      48.322   4.165  17.184  0.00  0.00    +0.000 C 
BRANCH  25  26
ATOM     26  N   UNL     1      48.978   2.849  17.094  0.00  0.00    +0.000 NA
ATOM     27  H   UNL     1      48.908   2.576  16.110  0.00  0.00    +0.000 HD
BRANCH  26  28
ATOM     28  C   UNL     1      50.410   2.932  17.427  0.00  0.00    +0.000 C 
BRANCH  28  29
ATOM     29  C   UNL     1      50.732   4.275  18.105  0.00  0.00    +0.000 C 
ATOM     30  C   UNL     1      51.910   4.997  17.466  0.00  0.00    +0.000 C 
ATOM     31  C   UNL     1      52.297   6.001  18.532  0.00  0.00    +0.000 C 
ATOM     32  C   UNL     1      51.920   5.329  19.847  0.00  0.00    +0.000 C 
ATOM     33  N   UNL     1      51.171   4.121  19.501  0.00  0.00    +0.000 NA
ATOM     34  H   UNL     1      50.366   4.004  20.115  0.00  0.00    +0.000 HD
ENDBRANCH  28  29
ENDBRANCH  26  28
ENDBRANCH  25  26
ENDBRANCH  22  25
ENDBRANCH  18  19
ENDBRANCH   1  18
TORSDOF 9
ENDMDL
MODEL 9
REMARK VINA RESULT:    -6.368      3.762      4.703
REMARK INTER + INTRA:         -10.305
REMARK INTER:                  -9.544
REMARK INTRA:                  -0.761
REMARK UNBOUND:                -0.772
REMARK  Name = 
REMARK  9 active torsions:
REMARK  status: ('A' for Active; 'I' for Inactive)
REMARK    1  A    between atoms: N_1  and  C_2
REMARK    2  A    between atoms: C_2  and  N_3
REMARK    3  A    between atoms: C_2  and  C_19
REMARK    4  A    between atoms: N_3  and  C_4
REMARK    5  A    between atoms: C_4  and  C_5
REMARK    6  A    between atoms: C_8  and  C_9
REMARK    7  A    between atoms: C_9  and  N_10
REMARK    8  A    between atoms: N_10  and  C_11
REMARK    9  A    between atoms: C_11  and  C_12
REMARK                            x       y       z     vdW  Elec       q    Type
REMARK                         _______ _______ _______ _____ _____    ______ ____
ROOT
ATOM      1  N   UNL     1      49.641   6.840  13.239  0.00  0.00    +0.000 NA
ATOM      2  H   UNL     1      50.261   6.101  13.582  0.00  0.00    +0.000 HD
ENDROOT
BRANCH   1   3
ATOM      3  C   UNL     1      50.323   8.084  13.526  0.00  0.00    +0.000 C 
BRANCH   3   4
ATOM      4  C   UNL     1      50.629   8.116  15.013  0.00  0.00    +0.000 A 
ATOM      5  C   UNL     1      51.486   7.248  15.687  0.00  0.00    +0.000 A 
ATOM      6  S   UNL     1      51.577   7.531  17.367  0.00  0.00    +0.000 S 
ATOM      7  C   UNL     1      50.503   8.845  17.261  0.00  0.00    +0.000 A 
ATOM      8  N   UNL     1      50.130   9.543  18.366  0.00  0.00    +0.000 NA
ATOM      9  C   UNL     1      49.318  10.519  18.126  0.00  0.00    +0.000 A 
ATOM     10  N   UNL     1      48.853  10.868  16.881  0.00  0.00    +0.000 N 
ATOM     11  C   UNL     1      49.185  10.174  15.737  0.00  0.00    +0.000 A 
ATOM     12  O   UNL     1      48.724  10.470  14.636  0.00  0.00    +0.000 OA
ATOM     13  C   UNL     1      50.093   9.069  15.959  0.00  0.00    +0.000 A 
ATOM     14  H   UNL     1      48.219  11.642  16.771  0.00  0.00    +0.000 HD
ENDBRANCH   3   4
BRANCH   3  15
ATOM     15  N   UNL     1      51.569   8.035  12.802  0.00  0.00    +0.000 NA
ATOM     16  H   UNL     1      52.079   7.201  13.068  0.00  0.00    +0.000 HD
ATOM     17  H   UNL     1      52.115   8.818  13.164  0.00  0.00    +0.000 HD
ENDBRANCH   3  15
ENDBRANCH   1   3
BRANCH   1  18
ATOM     18  C   UNL     1      48.369   6.668  13.942  0.00  0.00    +0.000 C 
BRANCH  18  19
ATOM     19  C   UNL     1      47.304   6.126  13.026  0.00  0.00    +0.000 A 
ATOM     20  C   UNL     1      46.510   5.032  13.385  0.00  0.00    +0.000 A 
ATOM     21  C   UNL     1      45.565   4.536  12.491  0.00  0.00    +0.000 A 
ATOM     22  C   UNL     1      45.432   5.150  11.250  0.00  0.00    +0.000 A 
ATOM     23  N   UNL     1      46.162   6.242  10.893  0.00  0.00    +0.000 NA
ATOM     24  C   UNL     1      47.082   6.688  11.775  0.00  0.00    +0.000 A 
BRANCH  22  25
ATOM     25  C   UNL     1      44.444   4.603  10.235  0.00  0.00    +0.000 C 
BRANCH  25  26
ATOM     26  N   UNL     1      44.844   4.826   8.835  0.00  0.00    +0.000 NA
ATOM     27  H   UNL     1      45.829   5.103   8.873  0.00  0.00    +0.000 HD
BRANCH  26  28
ATOM     28  C   UNL     1      44.765   3.586   8.043  0.00  0.00    +0.000 C 
BRANCH  28  29
ATOM     29  C   UNL     1      46.174   3.071   7.703  0.00  0.00    +0.000 C 
ATOM     30  C   UNL     1      46.480   3.112   6.213  0.00  0.00    +0.000 C 
ATOM     31  C   UNL     1      47.669   2.181   6.095  0.00  0.00    +0.000 C 
ATOM     32  C   UNL     1      47.473   1.165   7.214  0.00  0.00    +0.000 C 
ATOM     33  N   UNL     1      46.356   1.647   8.027  0.00  0.00    +0.000 NA
ATOM     34  H   UNL     1      46.553   1.532   9.020  0.00  0.00    +0.000 HD
ENDBRANCH  28  29
ENDBRANCH  26  28
ENDBRANCH  25  26
ENDBRANCH  22  25
ENDBRANCH  18  19
ENDBRANCH   1  18
TORSDOF 9
ENDMDL
