MODEL 1
REMARK VINA RESULT:    -7.894      0.000      0.000
REMARK INTER + INTRA:         -12.748
REMARK INTER:                 -11.586
REMARK INTRA:                  -1.163
REMARK UNBOUND:                -1.163
REMARK  Name = 
REMARK  9 active torsions:
REMARK  status: ('A' for Active; 'I' for Inactive)
REMARK    1  A    between atoms: C_1  and  O_2
REMARK    2  A    between atoms: O_2  and  C_3
REMARK    3  A    between atoms: C_10  and  C_11
REMARK    4  A    between atoms: N_13  and  C_14
REMARK    5  A    between atoms: C_14  and  C_15
REMARK    6  A    between atoms: C_18  and  C_19
REMARK    7  A    between atoms: C_19  and  O_20
REMARK    8  A    between atoms: O_20  and  C_21
REMARK    9  A    between atoms: C_21  and  C_22
REMARK                            x       y       z     vdW  Elec       q    Type
REMARK                         _______ _______ _______ _____ _____    ______ ____
ROOT
ATOM      1  C   UNL     1      47.978   7.129  13.113  0.00  0.00    +0.000 C 
ENDROOT
BRANCH   1   2
ATOM      2  C   UNL     1      46.932   6.178  12.574  0.00  0.00    +0.000 A 
ATOM      3  C   UNL     1      46.362   6.387  11.312  0.00  0.00    +0.000 A 
ATOM      4  C   UNL     1      45.346   5.549  10.836  0.00  0.00    +0.000 A 
ATOM      5  C   UNL     1      44.858   4.497  11.623  0.00  0.00    +0.000 A 
ATOM      6  C   UNL     1      45.442   4.277  12.879  0.00  0.00    +0.000 A 
ATOM      7  C   UNL     1      46.469   5.103  13.346  0.00  0.00    +0.000 A 
BRANCH   5   8
ATOM      8  C   UNL     1      43.716   3.636  11.143  0.00  0.00    +0.000 C 
BRANCH   8   9
ATOM      9  O   UNL     1      43.873   3.368   9.756  0.00  0.00    +0.000 OA
BRANCH   9  10
ATOM     10  C   UNL     1      44.502   2.100   9.534  0.00  0.00    +0.000 C 
BRANCH  10  11
ATOM     11  C   UNL     1      45.569   2.218   8.469  0.00  0.00    +0.000 A 
ATOM     12  N   UNL     1      46.295   1.116   8.177  0.00  0.00    +0.000 NA
ATOM     13  C   UNL     1      47.264   1.263   7.255  0.00  0.00    +0.000 A 
ATOM     14  C   UNL     1      47.525   2.449   6.610  0.00  0.00    +0.000 A 
ATOM     15  C   UNL     1      46.724   3.507   6.966  0.00  0.00    +0.000 A 
ATOM     16  N   UNL     1      45.741   3.422   7.881  0.00  0.00    +0.000 NA
ENDBRANCH  10  11
ENDBRANCH   9  10
ENDBRANCH   8   9
ENDBRANCH   5   8
ENDBRANCH   1   2
BRANCH   1  19
ATOM     17  C   UNL     1      48.974   7.040  15.375  0.00  0.00    +0.000 C 
ATOM     18  O   UNL     1      50.086   6.784  14.921  0.00  0.00    +0.000 OA
ATOM     19  N   UNL     1      47.896   7.228  14.551  0.00  0.00    +0.000 N 
ATOM     20  H   UNL     1      47.014   7.529  14.943  0.00  0.00    +0.000 HD
BRANCH  17  28
ATOM     21  C   UNL     1      48.878   4.700  17.902  0.00  0.00    +0.000 A 
ATOM     22  N   UNL     1      48.897   4.023  19.068  0.00  0.00    +0.000 NA
ATOM     23  C   UNL     1      48.758   4.717  20.201  0.00  0.00    +0.000 A 
ATOM     24  N   UNL     1      48.580   6.030  20.319  0.00  0.00    +0.000 NA
ATOM     25  C   UNL     1      48.575   6.668  19.136  0.00  0.00    +0.000 A 
ATOM     26  S   UNL     1      48.341   8.346  19.090  0.00  0.00    +0.000 S 
ATOM     27  C   UNL     1      48.492   8.373  17.397  0.00  0.00    +0.000 A 
ATOM     28  C   UNL     1      48.742   7.127  16.833  0.00  0.00    +0.000 A 
ATOM     29  C   UNL     1      48.740   6.098  17.872  0.00  0.00    +0.000 A 
BRANCH  21  31
ATOM     30  C   UNL     1      47.761   3.326  16.357  0.00  0.00    +0.000 C 
ATOM     31  O   UNL     1      48.967   3.986  16.727  0.00  0.00    +0.000 OA
ENDBRANCH  21  31
ENDBRANCH  17  28
ENDBRANCH   1  19
TORSDOF 8
ENDMDL
MODEL 2
REMARK VINA RESULT:    -7.294      1.465      2.690
REMARK INTER + INTRA:         -11.868
REMARK INTER:                 -10.994
REMARK INTRA:                  -0.875
REMARK UNBOUND:                -1.163
REMARK  Name = 
REMARK  9 active torsions:
REMARK  status: ('A' for Active; 'I' for Inactive)
REMARK    1  A    between atoms: C_1  and  O_2
REMARK    2  A    between atoms: O_2  and  C_3
REMARK    3  A    between atoms: C_10  and  C_11
REMARK    4  A    between atoms: N_13  and  C_14
REMARK    5  A    between atoms: C_14  and  C_15
REMARK    6  A    between atoms: C_18  and  C_19
REMARK    7  A    between atoms: C_19  and  O_20
REMARK    8  A    between atoms: O_20  and  C_21
REMARK    9  A    between atoms: C_21  and  C_22
REMARK                            x       y       z     vdW  Elec       q    Type
REMARK                         _______ _______ _______ _____ _____    ______ ____
ROOT
ATOM      1  C   UNL     1      48.038   6.514  13.926  0.00  0.00    +0.000 C 
ENDROOT
BRANCH   1   2
ATOM      2  C   UNL     1      46.859   5.883  13.217  0.00  0.00    +0.000 A 
ATOM      3  C   UNL     1      46.474   4.568  13.508  0.00  0.00    +0.000 A 
ATOM      4  C   UNL     1      45.426   3.956  12.809  0.00  0.00    +0.000 A 
ATOM      5  C   UNL     1      44.755   4.638  11.785  0.00  0.00    +0.000 A 
ATOM      6  C   UNL     1      45.129   5.961  11.507  0.00  0.00    +0.000 A 
ATOM      7  C   UNL     1      46.164   6.578  12.217  0.00  0.00    +0.000 A 
BRANCH   5   8
ATOM      8  C   UNL     1      43.673   3.959  10.982  0.00  0.00    +0.000 C 
BRANCH   8   9
ATOM      9  O   UNL     1      44.137   3.726   9.660  0.00  0.00    +0.000 OA
BRANCH   9  10
ATOM     10  C   UNL     1      44.537   2.362   9.476  0.00  0.00    +0.000 C 
BRANCH  10  11
ATOM     11  C   UNL     1      45.639   2.268   8.446  0.00  0.00    +0.000 A 
ATOM     12  N   UNL     1      45.940   3.378   7.738  0.00  0.00    +0.000 NA
ATOM     13  C   UNL     1      46.897   3.252   6.800  0.00  0.00    +0.000 A 
ATOM     14  C   UNL     1      47.568   2.077   6.554  0.00  0.00    +0.000 A 
ATOM     15  C   UNL     1      47.201   1.009   7.335  0.00  0.00    +0.000 A 
ATOM     16  N   UNL     1      46.251   1.073   8.287  0.00  0.00    +0.000 NA
ENDBRANCH  10  11
ENDBRANCH   9  10
ENDBRANCH   8   9
ENDBRANCH   5   8
ENDBRANCH   1   2
BRANCH   1  19
ATOM     17  C   UNL     1      49.055   6.239  16.163  0.00  0.00    +0.000 C 
ATOM     18  O   UNL     1      50.190   6.356  15.708  0.00  0.00    +0.000 OA
ATOM     19  N   UNL     1      47.953   6.311  15.353  0.00  0.00    +0.000 N 
ATOM     20  H   UNL     1      47.030   6.306  15.764  0.00  0.00    +0.000 HD
BRANCH  17  28
ATOM     21  C   UNL     1      48.060   8.230  18.792  0.00  0.00    +0.000 A 
ATOM     22  N   UNL     1      47.592   8.746  19.947  0.00  0.00    +0.000 NA
ATOM     23  C   UNL     1      47.457   7.927  20.993  0.00  0.00    +0.000 A 
ATOM     24  N   UNL     1      47.753   6.631  21.038  0.00  0.00    +0.000 NA
ATOM     25  C   UNL     1      48.208   6.155  19.867  0.00  0.00    +0.000 A 
ATOM     26  S   UNL     1      48.656   4.524  19.742  0.00  0.00    +0.000 S 
ATOM     27  C   UNL     1      49.045   4.703  18.097  0.00  0.00    +0.000 A 
ATOM     28  C   UNL     1      48.829   5.985  17.602  0.00  0.00    +0.000 A 
ATOM     29  C   UNL     1      48.376   6.866  18.677  0.00  0.00    +0.000 A 
BRANCH  21  31
ATOM     30  C   UNL     1      47.697  10.377  17.908  0.00  0.00    +0.000 C 
ATOM     31  O   UNL     1      48.253   9.080  17.724  0.00  0.00    +0.000 OA
ENDBRANCH  21  31
ENDBRANCH  17  28
ENDBRANCH   1  19
TORSDOF 8
ENDMDL
MODEL 3
REMARK VINA RESULT:    -6.973      1.844      2.208
REMARK INTER + INTRA:         -11.397
REMARK INTER:                 -10.406
REMARK INTRA:                  -0.991
REMARK UNBOUND:                -1.163
REMARK  Name = 
REMARK  9 active torsions:
REMARK  status: ('A' for Active; 'I' for Inactive)
REMARK    1  A    between atoms: C_1  and  O_2
REMARK    2  A    between atoms: O_2  and  C_3
REMARK    3  A    between atoms: C_10  and  C_11
REMARK    4  A    between atoms: N_13  and  C_14
REMARK    5  A    between atoms: C_14  and  C_15
REMARK    6  A    between atoms: C_18  and  C_19
REMARK    7  A    between atoms: C_19  and  O_20
REMARK    8  A    between atoms: O_20  and  C_21
REMARK    9  A    between atoms: C_21  and  C_22
REMARK                            x       y       z     vdW  Elec       q    Type
REMARK                         _______ _______ _______ _____ _____    ______ ____
ROOT
ATOM      1  C   UNL     1      47.390   8.499  13.510  0.00  0.00    +0.000 C 
ENDROOT
BRANCH   1   2
ATOM      2  C   UNL     1      46.502   7.463  12.856  0.00  0.00    +0.000 A 
ATOM      3  C   UNL     1      46.792   6.098  12.976  0.00  0.00    +0.000 A 
ATOM      4  C   UNL     1      46.013   5.138  12.318  0.00  0.00    +0.000 A 
ATOM      5  C   UNL     1      44.940   5.524  11.503  0.00  0.00    +0.000 A 
ATOM      6  C   UNL     1      44.639   6.890  11.397  0.00  0.00    +0.000 A 
ATOM      7  C   UNL     1      45.406   7.847  12.070  0.00  0.00    +0.000 A 
BRANCH   5   8
ATOM      8  C   UNL     1      44.142   4.498  10.737  0.00  0.00    +0.000 C 
BRANCH   8   9
ATOM      9  O   UNL     1      44.918   3.319  10.572  0.00  0.00    +0.000 OA
BRANCH   9  10
ATOM     10  C   UNL     1      44.452   2.533   9.469  0.00  0.00    +0.000 C 
BRANCH  10  11
ATOM     11  C   UNL     1      45.548   2.359   8.442  0.00  0.00    +0.000 A 
ATOM     12  N   UNL     1      46.120   1.140   8.328  0.00  0.00    +0.000 NA
ATOM     13  C   UNL     1      47.120   1.027   7.435  0.00  0.00    +0.000 A 
ATOM     14  C   UNL     1      47.558   2.067   6.651  0.00  0.00    +0.000 A 
ATOM     15  C   UNL     1      46.905   3.262   6.830  0.00  0.00    +0.000 A 
ATOM     16  N   UNL     1      45.900   3.437   7.708  0.00  0.00    +0.000 NA
ENDBRANCH  10  11
ENDBRANCH   9  10
ENDBRANCH   8   9
ENDBRANCH   5   8
ENDBRANCH   1   2
BRANCH   1  19
ATOM     17  C   UNL     1      48.834   8.093  15.476  0.00  0.00    +0.000 C 
ATOM     18  O   UNL     1      48.154   8.834  16.182  0.00  0.00    +0.000 OA
ATOM     19  N   UNL     1      48.518   7.876  14.162  0.00  0.00    +0.000 N 
ATOM     20  H   UNL     1      49.037   7.191  13.630  0.00  0.00    +0.000 HD
BRANCH  17  28
ATOM     21  C   UNL     1      49.368   5.102  17.099  0.00  0.00    +0.000 A 
ATOM     22  N   UNL     1      49.861   3.966  17.634  0.00  0.00    +0.000 NA
ATOM     23  C   UNL     1      51.185   3.856  17.766  0.00  0.00    +0.000 A 
ATOM     24  N   UNL     1      52.101   4.764  17.440  0.00  0.00    +0.000 NA
ATOM     25  C   UNL     1      51.570   5.875  16.903  0.00  0.00    +0.000 A 
ATOM     26  S   UNL     1      52.587   7.152  16.444  0.00  0.00    +0.000 S 
ATOM     27  C   UNL     1      51.270   8.068  15.881  0.00  0.00    +0.000 A 
ATOM     28  C   UNL     1      50.042   7.427  16.007  0.00  0.00    +0.000 A 
ATOM     29  C   UNL     1      50.218   6.134  16.667  0.00  0.00    +0.000 A 
BRANCH  21  31
ATOM     30  C   UNL     1      47.373   4.299  16.151  0.00  0.00    +0.000 C 
ATOM     31  O   UNL     1      48.001   5.246  17.009  0.00  0.00    +0.000 OA
ENDBRANCH  21  31
ENDBRANCH  17  28
ENDBRANCH   1  19
TORSDOF 8
ENDMDL
MODEL 4
REMARK VINA RESULT:    -6.907      4.882      9.439
REMARK INTER + INTRA:         -11.301
REMARK INTER:                 -10.479
REMARK INTRA:                  -0.821
REMARK UNBOUND:                -1.163
REMARK  Name = 
REMARK  9 active torsions:
REMARK  status: ('A' for Active; 'I' for Inactive)
REMARK    1  A    between atoms: C_1  and  O_2
REMARK    2  A    between atoms: O_2  and  C_3
REMARK    3  A    between atoms: C_10  and  C_11
REMARK    4  A    between atoms: N_13  and  C_14
REMARK    5  A    between atoms: C_14  and  C_15
REMARK    6  A    between atoms: C_18  and  C_19
REMARK    7  A    between atoms: C_19  and  O_20
REMARK    8  A    between atoms: O_20  and  C_21
REMARK    9  A    between atoms: C_21  and  C_22
REMARK                            x       y       z     vdW  Elec       q    Type
REMARK                         _______ _______ _______ _____ _____    ______ ____
ROOT
ATOM      1  C   UNL     1      47.348   3.537  17.072  0.00  0.00    +0.000 C 
ENDROOT
BRANCH   1   2
ATOM      2  C   UNL     1      48.835   3.344  17.269  0.00  0.00    +0.000 A 
ATOM      3  C   UNL     1      49.439   2.116  16.971  0.00  0.00    +0.000 A 
ATOM      4  C   UNL     1      50.803   1.909  17.214  0.00  0.00    +0.000 A 
ATOM      5  C   UNL     1      51.589   2.919  17.785  0.00  0.00    +0.000 A 
ATOM      6  C   UNL     1      50.988   4.154  18.067  0.00  0.00    +0.000 A 
ATOM      7  C   UNL     1      49.630   4.366  17.807  0.00  0.00    +0.000 A 
BRANCH   5   8
ATOM      8  C   UNL     1      53.042   2.677  18.113  0.00  0.00    +0.000 C 
BRANCH   8   9
ATOM      9  O   UNL     1      53.222   1.321  18.499  0.00  0.00    +0.000 OA
BRANCH   9  10
ATOM     10  C   UNL     1      54.294   0.707  17.773  0.00  0.00    +0.000 C 
BRANCH  10  11
ATOM     11  C   UNL     1      54.372  -0.769  18.093  0.00  0.00    +0.000 A 
ATOM     12  N   UNL     1      54.892  -1.592  17.156  0.00  0.00    +0.000 NA
ATOM     13  C   UNL     1      54.910  -2.904  17.454  0.00  0.00    +0.000 A 
ATOM     14  C   UNL     1      54.449  -3.420  18.641  0.00  0.00    +0.000 A 
ATOM     15  C   UNL     1      53.953  -2.501  19.534  0.00  0.00    +0.000 A 
ATOM     16  N   UNL     1      53.907  -1.178  19.294  0.00  0.00    +0.000 NA
ENDBRANCH  10  11
ENDBRANCH   9  10
ENDBRANCH   8   9
ENDBRANCH   5   8
ENDBRANCH   1   2
BRANCH   1  19
ATOM     17  C   UNL     1      47.083   4.237  14.715  0.00  0.00    +0.000 C 
ATOM     18  O   UNL     1      47.298   3.098  14.309  0.00  0.00    +0.000 OA
ATOM     19  N   UNL     1      47.085   4.527  16.054  0.00  0.00    +0.000 N 
ATOM     20  H   UNL     1      46.814   5.449  16.366  0.00  0.00    +0.000 HD
BRANCH  17  28
ATOM     21  C   UNL     1      44.429   5.106  12.699  0.00  0.00    +0.000 A 
ATOM     22  N   UNL     1      43.514   5.722  11.922  0.00  0.00    +0.000 NA
ATOM     23  C   UNL     1      43.836   6.901  11.385  0.00  0.00    +0.000 A 
ATOM     24  N   UNL     1      44.990   7.551  11.513  0.00  0.00    +0.000 NA
ATOM     25  C   UNL     1      45.870   6.909  12.300  0.00  0.00    +0.000 A 
ATOM     26  S   UNL     1      47.404   7.580  12.563  0.00  0.00    +0.000 S 
ATOM     27  C   UNL     1      47.845   6.300  13.592  0.00  0.00    +0.000 A 
ATOM     28  C   UNL     1      46.843   5.353  13.776  0.00  0.00    +0.000 A 
ATOM     29  C   UNL     1      45.678   5.693  12.960  0.00  0.00    +0.000 A 
BRANCH  21  31
ATOM     30  C   UNL     1      43.612   2.949  12.251  0.00  0.00    +0.000 C 
ATOM     31  O   UNL     1      44.124   3.865  13.213  0.00  0.00    +0.000 OA
ENDBRANCH  21  31
ENDBRANCH  17  28
ENDBRANCH   1  19
TORSDOF 8
ENDMDL
MODEL 5
REMARK VINA RESULT:    -6.018      2.937      3.769
REMARK INTER + INTRA:          -9.995
REMARK INTER:                  -8.894
REMARK INTRA:                  -1.101
REMARK UNBOUND:                -1.163
REMARK  Name = 
REMARK  9 active torsions:
REMARK  status: ('A' for Active; 'I' for Inactive)
REMARK    1  A    between atoms: C_1  and  O_2
REMARK    2  A    between atoms: O_2  and  C_3
REMARK    3  A    between atoms: C_10  and  C_11
REMARK    4  A    between atoms: N_13  and  C_14
REMARK    5  A    between atoms: C_14  and  C_15
REMARK    6  A    between atoms: C_18  and  C_19
REMARK    7  A    between atoms: C_19  and  O_20
REMARK    8  A    between atoms: O_20  and  C_21
REMARK    9  A    between atoms: C_21  and  C_22
REMARK                            x       y       z     vdW  Elec       q    Type
REMARK                         _______ _______ _______ _____ _____    ______ ____
ROOT
ATOM      1  C   UNL     1      48.352   8.300  14.053  0.00  0.00    +0.000 C 
ENDROOT
BRANCH   1   2
ATOM      2  C   UNL     1      47.371   7.417  13.313  0.00  0.00    +0.000 A 
ATOM      3  C   UNL     1      46.350   7.981  12.538  0.00  0.00    +0.000 A 
ATOM      4  C   UNL     1      45.399   7.171  11.905  0.00  0.00    +0.000 A 
ATOM      5  C   UNL     1      45.433   5.777  12.053  0.00  0.00    +0.000 A 
ATOM      6  C   UNL     1      46.467   5.213  12.814  0.00  0.00    +0.000 A 
ATOM      7  C   UNL     1      47.427   6.021  13.431  0.00  0.00    +0.000 A 
BRANCH   5   8
ATOM      8  C   UNL     1      44.371   4.906  11.431  0.00  0.00    +0.000 C 
BRANCH   8   9
ATOM      9  O   UNL     1      44.614   4.782  10.037  0.00  0.00    +0.000 OA
BRANCH   9  10
ATOM     10  C   UNL     1      44.290   3.470   9.561  0.00  0.00    +0.000 C 
BRANCH  10  11
ATOM     11  C   UNL     1      45.301   3.014   8.534  0.00  0.00    +0.000 A 
ATOM     12  N   UNL     1      45.751   1.742   8.611  0.00  0.00    +0.000 NA
ATOM     13  C   UNL     1      46.681   1.379   7.709  0.00  0.00    +0.000 A 
ATOM     14  C   UNL     1      47.164   2.221   6.736  0.00  0.00    +0.000 A 
ATOM     15  C   UNL     1      46.635   3.488   6.731  0.00  0.00    +0.000 A 
ATOM     16  N   UNL     1      45.705   3.910   7.607  0.00  0.00    +0.000 NA
ENDBRANCH  10  11
ENDBRANCH   9  10
ENDBRANCH   8   9
ENDBRANCH   5   8
ENDBRANCH   1   2
BRANCH   1  19
ATOM     17  C   UNL     1      49.663   7.367  15.931  0.00  0.00    +0.000 C 
ATOM     18  O   UNL     1      48.916   7.880  16.761  0.00  0.00    +0.000 OA
ATOM     19  N   UNL     1      49.446   7.524  14.588  0.00  0.00    +0.000 N 
ATOM     20  H   UNL     1      50.017   7.016  13.927  0.00  0.00    +0.000 HD
BRANCH  17  28
ATOM     21  C   UNL     1      53.019   7.569  15.183  0.00  0.00    +0.000 A 
ATOM     22  N   UNL     1      54.366   7.495  15.149  0.00  0.00    +0.000 NA
ATOM     23  C   UNL     1      54.964   6.580  15.916  0.00  0.00    +0.000 A 
ATOM     24  N   UNL     1      54.375   5.698  16.719  0.00  0.00    +0.000 NA
ATOM     25  C   UNL     1      53.036   5.811  16.730  0.00  0.00    +0.000 A 
ATOM     26  S   UNL     1      52.114   4.754  17.683  0.00  0.00    +0.000 S 
ATOM     27  C   UNL     1      50.666   5.509  17.211  0.00  0.00    +0.000 A 
ATOM     28  C   UNL     1      50.845   6.582  16.345  0.00  0.00    +0.000 A 
ATOM     29  C   UNL     1      52.263   6.729  16.017  0.00  0.00    +0.000 A 
BRANCH  21  31
ATOM     30  C   UNL     1      52.323   9.794  14.883  0.00  0.00    +0.000 C 
ATOM     31  O   UNL     1      52.390   8.474  14.355  0.00  0.00    +0.000 OA
ENDBRANCH  21  31
ENDBRANCH  17  28
ENDBRANCH   1  19
TORSDOF 8
ENDMDL
MODEL 6
REMARK VINA RESULT:    -5.938      3.562      8.275
REMARK INTER + INTRA:          -9.877
REMARK INTER:                  -8.393
REMARK INTRA:                  -1.485
REMARK UNBOUND:                -1.163
REMARK  Name = 
REMARK  9 active torsions:
REMARK  status: ('A' for Active; 'I' for Inactive)
REMARK    1  A    between atoms: C_1  and  O_2
REMARK    2  A    between atoms: O_2  and  C_3
REMARK    3  A    between atoms: C_10  and  C_11
REMARK    4  A    between atoms: N_13  and  C_14
REMARK    5  A    between atoms: C_14  and  C_15
REMARK    6  A    between atoms: C_18  and  C_19
REMARK    7  A    between atoms: C_19  and  O_20
REMARK    8  A    between atoms: O_20  and  C_21
REMARK    9  A    between atoms: C_21  and  C_22
REMARK                            x       y       z     vdW  Elec       q    Type
REMARK                         _______ _______ _______ _____ _____    ______ ____
ROOT
ATOM      1  C   UNL     1      47.950   9.045  14.007  0.00  0.00    +0.000 C 
ENDROOT
BRANCH   1   2
ATOM      2  C   UNL     1      48.328   8.587  15.399  0.00  0.00    +0.000 A 
ATOM      3  C   UNL     1      48.060   9.395  16.512  0.00  0.00    +0.000 A 
ATOM      4  C   UNL     1      48.467   9.007  17.794  0.00  0.00    +0.000 A 
ATOM      5  C   UNL     1      49.175   7.813  17.991  0.00  0.00    +0.000 A 
ATOM      6  C   UNL     1      49.426   6.996  16.879  0.00  0.00    +0.000 A 
ATOM      7  C   UNL     1      49.004   7.375  15.600  0.00  0.00    +0.000 A 
BRANCH   5   8
ATOM      8  C   UNL     1      49.676   7.426  19.360  0.00  0.00    +0.000 C 
BRANCH   8   9
ATOM      9  O   UNL     1      48.787   6.483  19.942  0.00  0.00    +0.000 OA
BRANCH   9  10
ATOM     10  C   UNL     1      49.470   5.282  20.322  0.00  0.00    +0.000 C 
BRANCH  10  11
ATOM     11  C   UNL     1      49.543   4.322  19.156  0.00  0.00    +0.000 A 
ATOM     12  N   UNL     1      48.389   3.775  18.714  0.00  0.00    +0.000 NA
ATOM     13  C   UNL     1      48.491   2.895  17.702  0.00  0.00    +0.000 A 
ATOM     14  C   UNL     1      49.684   2.552  17.112  0.00  0.00    +0.000 A 
ATOM     15  C   UNL     1      50.799   3.172  17.622  0.00  0.00    +0.000 A 
ATOM     16  N   UNL     1      50.761   4.060  18.632  0.00  0.00    +0.000 NA
ENDBRANCH  10  11
ENDBRANCH   9  10
ENDBRANCH   8   9
ENDBRANCH   5   8
ENDBRANCH   1   2
BRANCH   1  19
ATOM     17  C   UNL     1      46.881   7.328  12.586  0.00  0.00    +0.000 C 
ATOM     18  O   UNL     1      47.962   6.983  12.115  0.00  0.00    +0.000 OA
ATOM     19  N   UNL     1      46.797   8.325  13.521  0.00  0.00    +0.000 N 
ATOM     20  H   UNL     1      45.910   8.524  13.960  0.00  0.00    +0.000 HD
BRANCH  17  28
ATOM     21  C   UNL     1      45.606   4.137  12.831  0.00  0.00    +0.000 A 
ATOM     22  N   UNL     1      44.841   3.027  12.887  0.00  0.00    +0.000 NA
ATOM     23  C   UNL     1      43.600   3.093  12.399  0.00  0.00    +0.000 A 
ATOM     24  N   UNL     1      43.018   4.146  11.832  0.00  0.00    +0.000 NA
ATOM     25  C   UNL     1      43.809   5.232  11.803  0.00  0.00    +0.000 A 
ATOM     26  S   UNL     1      43.240   6.665  11.098  0.00  0.00    +0.000 S 
ATOM     27  C   UNL     1      44.686   7.481  11.466  0.00  0.00    +0.000 A 
ATOM     28  C   UNL     1      45.617   6.701  12.142  0.00  0.00    +0.000 A 
ATOM     29  C   UNL     1      45.111   5.338  12.298  0.00  0.00    +0.000 A 
BRANCH  21  31
ATOM     30  C   UNL     1      47.051   4.334  14.674  0.00  0.00    +0.000 C 
ATOM     31  O   UNL     1      46.905   4.062  13.284  0.00  0.00    +0.000 OA
ENDBRANCH  21  31
ENDBRANCH  17  28
ENDBRANCH   1  19
TORSDOF 8
ENDMDL
MODEL 7
REMARK VINA RESULT:    -5.381      5.397     10.029
REMARK INTER + INTRA:          -9.060
REMARK INTER:                  -8.115
REMARK INTRA:                  -0.945
REMARK UNBOUND:                -1.163
REMARK  Name = 
REMARK  9 active torsions:
REMARK  status: ('A' for Active; 'I' for Inactive)
REMARK    1  A    between atoms: C_1  and  O_2
REMARK    2  A    between atoms: O_2  and  C_3
REMARK    3  A    between atoms: C_10  and  C_11
REMARK    4  A    between atoms: N_13  and  C_14
REMARK    5  A    between atoms: C_14  and  C_15
REMARK    6  A    between atoms: C_18  and  C_19
REMARK    7  A    between atoms: C_19  and  O_20
REMARK    8  A    between atoms: O_20  and  C_21
REMARK    9  A    between atoms: C_21  and  C_22
REMARK                            x       y       z     vdW  Elec       q    Type
REMARK                         _______ _______ _______ _____ _____    ______ ____
ROOT
ATOM      1  C   UNL     1      49.147   4.451  17.862  0.00  0.00    +0.000 C 
ENDROOT
BRANCH   1   2
ATOM      2  C   UNL     1      50.329   3.515  17.736  0.00  0.00    +0.000 A 
ATOM      3  C   UNL     1      50.149   2.196  17.299  0.00  0.00    +0.000 A 
ATOM      4  C   UNL     1      51.229   1.305  17.245  0.00  0.00    +0.000 A 
ATOM      5  C   UNL     1      52.509   1.706  17.651  0.00  0.00    +0.000 A 
ATOM      6  C   UNL     1      52.691   3.031  18.071  0.00  0.00    +0.000 A 
ATOM      7  C   UNL     1      51.617   3.926  18.108  0.00  0.00    +0.000 A 
BRANCH   5   8
ATOM      8  C   UNL     1      53.659   0.730  17.661  0.00  0.00    +0.000 C 
BRANCH   8   9
ATOM      9  O   UNL     1      53.603  -0.059  18.841  0.00  0.00    +0.000 OA
BRANCH   9  10
ATOM     10  C   UNL     1      54.719  -0.953  18.930  0.00  0.00    +0.000 C 
BRANCH  10  11
ATOM     11  C   UNL     1      54.303  -2.258  19.570  0.00  0.00    +0.000 A 
ATOM     12  N   UNL     1      53.043  -2.353  20.050  0.00  0.00    +0.000 NA
ATOM     13  C   UNL     1      52.716  -3.512  20.650  0.00  0.00    +0.000 A 
ATOM     14  C   UNL     1      53.582  -4.572  20.778  0.00  0.00    +0.000 A 
ATOM     15  C   UNL     1      54.834  -4.383  20.246  0.00  0.00    +0.000 A 
ATOM     16  N   UNL     1      55.221  -3.248  19.635  0.00  0.00    +0.000 NA
ENDBRANCH  10  11
ENDBRANCH   9  10
ENDBRANCH   8   9
ENDBRANCH   5   8
ENDBRANCH   1   2
BRANCH   1  19
ATOM     17  C   UNL     1      47.406   4.398  16.105  0.00  0.00    +0.000 C 
ATOM     18  O   UNL     1      46.669   3.701  16.798  0.00  0.00    +0.000 OA
ATOM     19  N   UNL     1      48.631   4.809  16.561  0.00  0.00    +0.000 N 
ATOM     20  H   UNL     1      49.176   5.458  16.011  0.00  0.00    +0.000 HD
BRANCH  17  28
ATOM     21  C   UNL     1      48.251   7.060  14.089  0.00  0.00    +0.000 A 
ATOM     22  N   UNL     1      48.491   7.919  13.077  0.00  0.00    +0.000 NA
ATOM     23  C   UNL     1      47.908   7.682  11.899  0.00  0.00    +0.000 A 
ATOM     24  N   UNL     1      47.081   6.683  11.601  0.00  0.00    +0.000 NA
ATOM     25  C   UNL     1      46.874   5.847  12.633  0.00  0.00    +0.000 A 
ATOM     26  S   UNL     1      45.831   4.524  12.443  0.00  0.00    +0.000 S 
ATOM     27  C   UNL     1      46.118   4.004  14.036  0.00  0.00    +0.000 A 
ATOM     28  C   UNL     1      47.017   4.800  14.737  0.00  0.00    +0.000 A 
ATOM     29  C   UNL     1      47.430   5.934  13.911  0.00  0.00    +0.000 A 
BRANCH  21  31
ATOM     30  C   UNL     1      50.168   7.735  15.268  0.00  0.00    +0.000 C 
ATOM     31  O   UNL     1      48.805   7.327  15.322  0.00  0.00    +0.000 OA
ENDBRANCH  21  31
ENDBRANCH  17  28
ENDBRANCH   1  19
TORSDOF 8
ENDMDL
MODEL 8
REMARK VINA RESULT:    -5.369      4.793      9.037
REMARK INTER + INTRA:          -9.042
REMARK INTER:                  -7.997
REMARK INTRA:                  -1.046
REMARK UNBOUND:                -1.163
REMARK  Name = 
REMARK  9 active torsions:
REMARK  status: ('A' for Active; 'I' for Inactive)
REMARK    1  A    between atoms: C_1  and  O_2
REMARK    2  A    between atoms: O_2  and  C_3
REMARK    3  A    between atoms: C_10  and  C_11
REMARK    4  A    between atoms: N_13  and  C_14
REMARK    5  A    between atoms: C_14  and  C_15
REMARK    6  A    between atoms: C_18  and  C_19
REMARK    7  A    between atoms: C_19  and  O_20
REMARK    8  A    between atoms: O_20  and  C_21
REMARK    9  A    between atoms: C_21  and  C_22
REMARK                            x       y       z     vdW  Elec       q    Type
REMARK                         _______ _______ _______ _____ _____    ______ ____
ROOT
ATOM      1  C   UNL     1      48.402   5.502  17.637  0.00  0.00    +0.000 C 
ENDROOT
BRANCH   1   2
ATOM      2  C   UNL     1      49.382   4.357  17.501  0.00  0.00    +0.000 A 
ATOM      3  C   UNL     1      48.951   3.099  17.062  0.00  0.00    +0.000 A 
ATOM      4  C   UNL     1      49.839   2.017  16.999  0.00  0.00    +0.000 A 
ATOM      5  C   UNL     1      51.175   2.164  17.397  0.00  0.00    +0.000 A 
ATOM      6  C   UNL     1      51.610   3.429  17.819  0.00  0.00    +0.000 A 
ATOM      7  C   UNL     1      50.727   4.513  17.865  0.00  0.00    +0.000 A 
BRANCH   5   8
ATOM      8  C   UNL     1      52.116   0.986  17.397  0.00  0.00    +0.000 C 
BRANCH   8   9
ATOM      9  O   UNL     1      53.000   1.084  18.505  0.00  0.00    +0.000 OA
BRANCH   9  10
ATOM     10  C   UNL     1      54.304   0.583  18.183  0.00  0.00    +0.000 C 
BRANCH  10  11
ATOM     11  C   UNL     1      54.332  -0.925  18.284  0.00  0.00    +0.000 A 
ATOM     12  N   UNL     1      54.906  -1.616  17.274  0.00  0.00    +0.000 NA
ATOM     13  C   UNL     1      54.879  -2.957  17.373  0.00  0.00    +0.000 A 
ATOM     14  C   UNL     1      54.319  -3.629  18.434  0.00  0.00    +0.000 A 
ATOM     15  C   UNL     1      53.773  -2.839  19.416  0.00  0.00    +0.000 A 
ATOM     16  N   UNL     1      53.769  -1.494  19.373  0.00  0.00    +0.000 NA
ENDBRANCH  10  11
ENDBRANCH   9  10
ENDBRANCH   8   9
ENDBRANCH   5   8
ENDBRANCH   1   2
BRANCH   1  19
ATOM     17  C   UNL     1      48.762   6.997  15.700  0.00  0.00    +0.000 C 
ATOM     18  O   UNL     1      49.781   7.467  16.199  0.00  0.00    +0.000 OA
ATOM     19  N   UNL     1      48.038   6.027  16.342  0.00  0.00    +0.000 N 
ATOM     20  H   UNL     1      47.259   5.590  15.869  0.00  0.00    +0.000 HD
BRANCH  17  28
ATOM     21  C   UNL     1      46.775   5.585  13.265  0.00  0.00    +0.000 A 
ATOM     22  N   UNL     1      45.947   5.321  12.234  0.00  0.00    +0.000 NA
ATOM     23  C   UNL     1      45.738   6.283  11.332  0.00  0.00    +0.000 A 
ATOM     24  N   UNL     1      46.276   7.500  11.320  0.00  0.00    +0.000 NA
ATOM     25  C   UNL     1      47.087   7.726  12.367  0.00  0.00    +0.000 A 
ATOM     26  S   UNL     1      47.879   9.219  12.507  0.00  0.00    +0.000 S 
ATOM     27  C   UNL     1      48.606   8.754  13.972  0.00  0.00    +0.000 A 
ATOM     28  C   UNL     1      48.254   7.477  14.397  0.00  0.00    +0.000 A 
ATOM     29  C   UNL     1      47.385   6.843  13.408  0.00  0.00    +0.000 A 
BRANCH  21  31
ATOM     30  C   UNL     1      46.830   3.269  13.656  0.00  0.00    +0.000 C 
ATOM     31  O   UNL     1      47.039   4.580  14.170  0.00  0.00    +0.000 OA
ENDBRANCH  21  31
ENDBRANCH  17  28
ENDBRANCH   1  19
TORSDOF 8
ENDMDL
MODEL 9
REMARK VINA RESULT:    -5.295      2.790      8.880
REMARK INTER + INTRA:          -8.934
REMARK INTER:                  -7.827
REMARK INTRA:                  -1.106
REMARK UNBOUND:                -1.163
REMARK  Name = 
REMARK  9 active torsions:
REMARK  status: ('A' for Active; 'I' for Inactive)
REMARK    1  A    between atoms: C_1  and  O_2
REMARK    2  A    between atoms: O_2  and  C_3
REMARK    3  A    between atoms: C_10  and  C_11
REMARK    4  A    between atoms: N_13  and  C_14
REMARK    5  A    between atoms: C_14  and  C_15
REMARK    6  A    between atoms: C_18  and  C_19
REMARK    7  A    between atoms: C_19  and  O_20
REMARK    8  A    between atoms: O_20  and  C_21
REMARK    9  A    between atoms: C_21  and  C_22
REMARK                            x       y       z     vdW  Elec       q    Type
REMARK                         _______ _______ _______ _____ _____    ______ ____
ROOT
ATOM      1  C   UNL     1      47.692   7.432  12.173  0.00  0.00    +0.000 C 
ENDROOT
BRANCH   1   2
ATOM      2  C   UNL     1      48.046   7.481  13.643  0.00  0.00    +0.000 A 
ATOM      3  C   UNL     1      48.253   8.708  14.285  0.00  0.00    +0.000 A 
ATOM      4  C   UNL     1      48.646   8.758  15.628  0.00  0.00    +0.000 A 
ATOM      5  C   UNL     1      48.865   7.579  16.354  0.00  0.00    +0.000 A 
ATOM      6  C   UNL     1      48.639   6.351  15.716  0.00  0.00    +0.000 A 
ATOM      7  C   UNL     1      48.229   6.302  14.380  0.00  0.00    +0.000 A 
BRANCH   5   8
ATOM      8  C   UNL     1      49.355   7.628  17.780  0.00  0.00    +0.000 C 
BRANCH   8   9
ATOM      9  O   UNL     1      49.022   6.414  18.439  0.00  0.00    +0.000 OA
BRANCH   9  10
ATOM     10  C   UNL     1      50.183   5.780  18.991  0.00  0.00    +0.000 C 
BRANCH  10  11
ATOM     11  C   UNL     1      50.413   4.435  18.339  0.00  0.00    +0.000 A 
ATOM     12  N   UNL     1      49.337   3.774  17.856  0.00  0.00    +0.000 NA
ATOM     13  C   UNL     1      49.569   2.563  17.319  0.00  0.00    +0.000 A 
ATOM     14  C   UNL     1      50.819   1.997  17.233  0.00  0.00    +0.000 A 
ATOM     15  C   UNL     1      51.848   2.752  17.738  0.00  0.00    +0.000 A 
ATOM     16  N   UNL     1      51.680   3.969  18.288  0.00  0.00    +0.000 NA
ENDBRANCH  10  11
ENDBRANCH   9  10
ENDBRANCH   8   9
ENDBRANCH   5   8
ENDBRANCH   1   2
BRANCH   1  19
ATOM     17  C   UNL     1      45.525   6.269  11.917  0.00  0.00    +0.000 C 
ATOM     18  O   UNL     1      44.898   7.284  12.211  0.00  0.00    +0.000 OA
ATOM     19  N   UNL     1      46.894   6.267  11.871  0.00  0.00    +0.000 N 
ATOM     20  H   UNL     1      47.381   5.448  11.536  0.00  0.00    +0.000 HD
BRANCH  17  28
ATOM     21  C   UNL     1      45.405   4.210   9.157  0.00  0.00    +0.000 A 
ATOM     22  N   UNL     1      45.274   3.195   8.279  0.00  0.00    +0.000 NA
ATOM     23  C   UNL     1      44.568   2.126   8.654  0.00  0.00    +0.000 A 
ATOM     24  N   UNL     1      43.944   1.945   9.815  0.00  0.00    +0.000 NA
ATOM     25  C   UNL     1      44.105   2.974  10.664  0.00  0.00    +0.000 A 
ATOM     26  S   UNL     1      43.364   2.927  12.188  0.00  0.00    +0.000 S 
ATOM     27  C   UNL     1      44.024   4.436  12.613  0.00  0.00    +0.000 A 
ATOM     28  C   UNL     1      44.830   4.996  11.628  0.00  0.00    +0.000 A 
ATOM     29  C   UNL     1      44.836   4.143  10.440  0.00  0.00    +0.000 A 
BRANCH  21  31
ATOM     30  C   UNL     1      47.153   5.082   7.852  0.00  0.00    +0.000 C 
ATOM     31  O   UNL     1      46.087   5.339   8.759  0.00  0.00    +0.000 OA
ENDBRANCH  21  31
ENDBRANCH  17  28
ENDBRANCH   1  19
TORSDOF 8
ENDMDL
