MODEL 1
REMARK VINA RESULT:    -7.224      0.000      0.000
REMARK INTER + INTRA:          -9.507
REMARK INTER:                  -9.124
REMARK INTRA:                  -0.383
REMARK UNBOUND:                -0.383
REMARK  Name = 
REMARK  5 active torsions:
REMARK  status: ('A' for Active; 'I' for Inactive)
REMARK    1  A    between atoms: N_1  and  C_2
REMARK    2  A    between atoms: C_2  and  C_3
REMARK    3  A    between atoms: C_6  and  O_7
REMARK    4  A    between atoms: O_7  and  C_8
REMARK    5  A    between atoms: C_8  and  C_9
REMARK                            x       y       z     vdW  Elec       q    Type
REMARK                         _______ _______ _______ _____ _____    ______ ____
ROOT
ATOM      1  C   UNL     1      46.544   2.288   7.546  0.00  0.00    +0.000 A 
ATOM      2  C   UNL     1      46.354   3.676   7.593  0.00  0.00    +0.000 A 
ATOM      3  C   UNL     1      45.419   4.245   8.463  0.00  0.00    +0.000 A 
ATOM      4  C   UNL     1      44.654   3.432   9.298  0.00  0.00    +0.000 A 
ATOM      5  C   UNL     1      44.846   2.049   9.266  0.00  0.00    +0.000 A 
ATOM      6  C   UNL     1      45.776   1.478   8.391  0.00  0.00    +0.000 A 
ENDROOT
BRANCH   1   7
ATOM      7  C   UNL     1      47.557   1.690   6.604  0.00  0.00    +0.000 C 
BRANCH   7   8
ATOM      8  N   UNL     1      48.642   2.624   6.323  0.00  0.00    +0.000 NA
ATOM      9  H   UNL     1      48.250   3.528   6.071  0.00  0.00    +0.000 HD
ATOM     10  H   UNL     1      49.155   2.291   5.507  0.00  0.00    +0.000 HD
ENDBRANCH   7   8
ENDBRANCH   1   7
BRANCH   4  11
ATOM     11  O   UNL     1      43.740   3.876  10.215  0.00  0.00    +0.000 OA
BRANCH  11  12
ATOM     12  C   UNL     1      43.827   3.277  11.513  0.00  0.00    +0.000 C 
BRANCH  12  13
ATOM     13  C   UNL     1      44.914   3.951  12.322  0.00  0.00    +0.000 A 
ATOM     14  N   UNL     1      45.830   3.155  12.919  0.00  0.00    +0.000 NA
ATOM     15  C   UNL     1      46.794   3.771  13.629  0.00  0.00    +0.000 A 
ATOM     16  C   UNL     1      46.885   5.135  13.758  0.00  0.00    +0.000 A 
ATOM     17  C   UNL     1      45.914   5.859  13.109  0.00  0.00    +0.000 A 
ATOM     18  N   UNL     1      44.926   5.301  12.385  0.00  0.00    +0.000 NA
ENDBRANCH  12  13
ENDBRANCH  11  12
ENDBRANCH   4  11
TORSDOF 5
ENDMDL
MODEL 2
REMARK VINA RESULT:    -6.452      1.876      5.717
REMARK INTER + INTRA:          -8.533
REMARK INTER:                  -8.201
REMARK INTRA:                  -0.332
REMARK UNBOUND:                -0.383
REMARK  Name = 
REMARK  5 active torsions:
REMARK  status: ('A' for Active; 'I' for Inactive)
REMARK    1  A    between atoms: N_1  and  C_2
REMARK    2  A    between atoms: C_2  and  C_3
REMARK    3  A    between atoms: C_6  and  O_7
REMARK    4  A    between atoms: O_7  and  C_8
REMARK    5  A    between atoms: C_8  and  C_9
REMARK                            x       y       z     vdW  Elec       q    Type
REMARK                         _______ _______ _______ _____ _____    ______ ____
ROOT
ATOM      1  C   UNL     1      46.554   5.765  12.656  0.00  0.00    +0.000 A 
ATOM      2  C   UNL     1      45.887   4.574  12.977  0.00  0.00    +0.000 A 
ATOM      3  C   UNL     1      45.087   3.921  12.034  0.00  0.00    +0.000 A 
ATOM      4  C   UNL     1      44.935   4.455  10.756  0.00  0.00    +0.000 A 
ATOM      5  C   UNL     1      45.604   5.635  10.425  0.00  0.00    +0.000 A 
ATOM      6  C   UNL     1      46.400   6.292  11.369  0.00  0.00    +0.000 A 
ENDROOT
BRANCH   1   7
ATOM      7  C   UNL     1      47.414   6.455  13.683  0.00  0.00    +0.000 C 
BRANCH   7   8
ATOM      8  N   UNL     1      47.761   5.558  14.780  0.00  0.00    +0.000 NA
ATOM      9  H   UNL     1      48.773   5.527  14.880  0.00  0.00    +0.000 HD
ATOM     10  H   UNL     1      47.464   4.614  14.535  0.00  0.00    +0.000 HD
ENDBRANCH   7   8
ENDBRANCH   1   7
BRANCH   4  11
ATOM     11  O   UNL     1      44.212   3.888   9.742  0.00  0.00    +0.000 OA
BRANCH  11  12
ATOM     12  C   UNL     1      44.492   2.508   9.479  0.00  0.00    +0.000 C 
BRANCH  12  13
ATOM     13  C   UNL     1      45.521   2.390   8.375  0.00  0.00    +0.000 A 
ATOM     14  N   UNL     1      46.235   1.243   8.309  0.00  0.00    +0.000 NA
ATOM     15  C   UNL     1      47.140   1.152   7.318  0.00  0.00    +0.000 A 
ATOM     16  C   UNL     1      47.354   2.145   6.393  0.00  0.00    +0.000 A 
ATOM     17  C   UNL     1      46.574   3.267   6.537  0.00  0.00    +0.000 A 
ATOM     18  N   UNL     1      45.653   3.417   7.507  0.00  0.00    +0.000 NA
ENDBRANCH  12  13
ENDBRANCH  11  12
ENDBRANCH   4  11
TORSDOF 5
ENDMDL
MODEL 3
REMARK VINA RESULT:    -6.370      1.844      5.620
REMARK INTER + INTRA:          -8.429
REMARK INTER:                  -8.121
REMARK INTRA:                  -0.309
REMARK UNBOUND:                -0.383
REMARK  Name = 
REMARK  5 active torsions:
REMARK  status: ('A' for Active; 'I' for Inactive)
REMARK    1  A    between atoms: N_1  and  C_2
REMARK    2  A    between atoms: C_2  and  C_3
REMARK    3  A    between atoms: C_6  and  O_7
REMARK    4  A    between atoms: O_7  and  C_8
REMARK    5  A    between atoms: C_8  and  C_9
REMARK                            x       y       z     vdW  Elec       q    Type
REMARK                         _______ _______ _______ _____ _____    ______ ____
ROOT
ATOM      1  C   UNL     1      46.553   5.429  12.897  0.00  0.00    +0.000 A 
ATOM      2  C   UNL     1      46.391   6.163  11.714  0.00  0.00    +0.000 A 
ATOM      3  C   UNL     1      45.605   5.674  10.666  0.00  0.00    +0.000 A 
ATOM      4  C   UNL     1      44.973   4.437  10.783  0.00  0.00    +0.000 A 
ATOM      5  C   UNL     1      45.120   3.705  11.963  0.00  0.00    +0.000 A 
ATOM      6  C   UNL     1      45.911   4.190  13.010  0.00  0.00    +0.000 A 
ENDROOT
BRANCH   1   7
ATOM      7  C   UNL     1      47.402   5.971  14.018  0.00  0.00    +0.000 C 
BRANCH   7   8
ATOM      8  N   UNL     1      47.217   5.205  15.246  0.00  0.00    +0.000 NA
ATOM      9  H   UNL     1      47.412   4.224  15.061  0.00  0.00    +0.000 HD
ATOM     10  H   UNL     1      46.237   5.260  15.521  0.00  0.00    +0.000 HD
ENDBRANCH   7   8
ENDBRANCH   1   7
BRANCH   4  11
ATOM     11  O   UNL     1      44.152   3.876   9.844  0.00  0.00    +0.000 OA
BRANCH  11  12
ATOM     12  C   UNL     1      44.396   2.494   9.555  0.00  0.00    +0.000 C 
BRANCH  12  13
ATOM     13  C   UNL     1      45.416   2.371   8.443  0.00  0.00    +0.000 A 
ATOM     14  N   UNL     1      46.122   1.219   8.370  0.00  0.00    +0.000 NA
ATOM     15  C   UNL     1      47.019   1.124   7.371  0.00  0.00    +0.000 A 
ATOM     16  C   UNL     1      47.233   2.116   6.446  0.00  0.00    +0.000 A 
ATOM     17  C   UNL     1      46.462   3.244   6.599  0.00  0.00    +0.000 A 
ATOM     18  N   UNL     1      45.549   3.398   7.576  0.00  0.00    +0.000 NA
ENDBRANCH  12  13
ENDBRANCH  11  12
ENDBRANCH   4  11
TORSDOF 5
ENDMDL
MODEL 4
REMARK VINA RESULT:    -6.214      1.990      5.962
REMARK INTER + INTRA:          -8.232
REMARK INTER:                  -7.988
REMARK INTRA:                  -0.243
REMARK UNBOUND:                -0.383
REMARK  Name = 
REMARK  5 active torsions:
REMARK  status: ('A' for Active; 'I' for Inactive)
REMARK    1  A    between atoms: N_1  and  C_2
REMARK    2  A    between atoms: C_2  and  C_3
REMARK    3  A    between atoms: C_6  and  O_7
REMARK    4  A    between atoms: O_7  and  C_8
REMARK    5  A    between atoms: C_8  and  C_9
REMARK                            x       y       z     vdW  Elec       q    Type
REMARK                         _______ _______ _______ _____ _____    ______ ____
ROOT
ATOM      1  C   UNL     1      45.695   6.535  12.394  0.00  0.00    +0.000 A 
ATOM      2  C   UNL     1      45.836   5.372  13.165  0.00  0.00    +0.000 A 
ATOM      3  C   UNL     1      45.552   4.113  12.626  0.00  0.00    +0.000 A 
ATOM      4  C   UNL     1      45.116   3.999  11.307  0.00  0.00    +0.000 A 
ATOM      5  C   UNL     1      44.984   5.151  10.529  0.00  0.00    +0.000 A 
ATOM      6  C   UNL     1      45.261   6.411  11.069  0.00  0.00    +0.000 A 
ENDROOT
BRANCH   1   7
ATOM      7  C   UNL     1      46.006   7.884  12.989  0.00  0.00    +0.000 C 
BRANCH   7   8
ATOM      8  N   UNL     1      44.936   8.842  12.731  0.00  0.00    +0.000 NA
ATOM      9  H   UNL     1      45.315   9.639  12.226  0.00  0.00    +0.000 HD
ATOM     10  H   UNL     1      44.595   9.198  13.623  0.00  0.00    +0.000 HD
ENDBRANCH   7   8
ENDBRANCH   1   7
BRANCH   4  11
ATOM     11  O   UNL     1      44.846   2.823  10.662  0.00  0.00    +0.000 OA
BRANCH  11  12
ATOM     12  C   UNL     1      44.473   2.945   9.284  0.00  0.00    +0.000 C 
BRANCH  12  13
ATOM     13  C   UNL     1      45.605   2.473   8.397  0.00  0.00    +0.000 A 
ATOM     14  N   UNL     1      46.233   3.403   7.641  0.00  0.00    +0.000 NA
ATOM     15  C   UNL     1      47.242   2.967   6.864  0.00  0.00    +0.000 A 
ATOM     16  C   UNL     1      47.652   1.657   6.817  0.00  0.00    +0.000 A 
ATOM     17  C   UNL     1      46.958   0.789   7.627  0.00  0.00    +0.000 A 
ATOM     18  N   UNL     1      45.941   1.165   8.426  0.00  0.00    +0.000 NA
ENDBRANCH  12  13
ENDBRANCH  11  12
ENDBRANCH   4  11
TORSDOF 5
ENDMDL
MODEL 5
REMARK VINA RESULT:    -5.309      3.576      5.419
REMARK INTER + INTRA:          -7.089
REMARK INTER:                  -6.836
REMARK INTRA:                  -0.253
REMARK UNBOUND:                -0.383
REMARK  Name = 
REMARK  5 active torsions:
REMARK  status: ('A' for Active; 'I' for Inactive)
REMARK    1  A    between atoms: N_1  and  C_2
REMARK    2  A    between atoms: C_2  and  C_3
REMARK    3  A    between atoms: C_6  and  O_7
REMARK    4  A    between atoms: O_7  and  C_8
REMARK    5  A    between atoms: C_8  and  C_9
REMARK                            x       y       z     vdW  Elec       q    Type
REMARK                         _______ _______ _______ _____ _____    ______ ____
ROOT
ATOM      1  C   UNL     1      45.068   4.570  11.186  0.00  0.00    +0.000 A 
ATOM      2  C   UNL     1      45.273   3.486  12.051  0.00  0.00    +0.000 A 
ATOM      3  C   UNL     1      46.094   3.610  13.176  0.00  0.00    +0.000 A 
ATOM      4  C   UNL     1      46.729   4.820  13.449  0.00  0.00    +0.000 A 
ATOM      5  C   UNL     1      46.520   5.908  12.599  0.00  0.00    +0.000 A 
ATOM      6  C   UNL     1      45.704   5.784  11.470  0.00  0.00    +0.000 A 
ENDROOT
BRANCH   1   7
ATOM      7  C   UNL     1      44.178   4.421   9.978  0.00  0.00    +0.000 C 
BRANCH   7   8
ATOM      8  N   UNL     1      44.876   4.792   8.752  0.00  0.00    +0.000 NA
ATOM      9  H   UNL     1      45.128   3.949   8.242  0.00  0.00    +0.000 HD
ATOM     10  H   UNL     1      45.750   5.253   9.001  0.00  0.00    +0.000 HD
ENDBRANCH   7   8
ENDBRANCH   1   7
BRANCH   4  11
ATOM     11  O   UNL     1      47.522   5.071  14.537  0.00  0.00    +0.000 OA
BRANCH  11  12
ATOM     12  C   UNL     1      47.214   4.315  15.714  0.00  0.00    +0.000 C 
BRANCH  12  13
ATOM     13  C   UNL     1      48.490   3.819  16.359  0.00  0.00    +0.000 A 
ATOM     14  N   UNL     1      49.297   4.740  16.933  0.00  0.00    +0.000 NA
ATOM     15  C   UNL     1      50.424   4.280  17.507  0.00  0.00    +0.000 A 
ATOM     16  C   UNL     1      50.771   2.951  17.541  0.00  0.00    +0.000 A 
ATOM     17  C   UNL     1      49.883   2.092  16.938  0.00  0.00    +0.000 A 
ATOM     18  N   UNL     1      48.741   2.491  16.348  0.00  0.00    +0.000 NA
ENDBRANCH  12  13
ENDBRANCH  11  12
ENDBRANCH   4  11
TORSDOF 5
ENDMDL
MODEL 6
REMARK VINA RESULT:    -5.211      4.285      5.614
REMARK INTER + INTRA:          -6.965
REMARK INTER:                  -6.620
REMARK INTRA:                  -0.345
REMARK UNBOUND:                -0.383
REMARK  Name = 
REMARK  5 active torsions:
REMARK  status: ('A' for Active; 'I' for Inactive)
REMARK    1  A    between atoms: N_1  and  C_2
REMARK    2  A    between atoms: C_2  and  C_3
REMARK    3  A    between atoms: C_6  and  O_7
REMARK    4  A    between atoms: O_7  and  C_8
REMARK    5  A    between atoms: C_8  and  C_9
REMARK                            x       y       z     vdW  Elec       q    Type
REMARK                         _______ _______ _______ _____ _____    ______ ____
ROOT
ATOM      1  C   UNL     1      44.234   4.943  11.929  0.00  0.00    +0.000 A 
ATOM      2  C   UNL     1      44.933   5.984  12.555  0.00  0.00    +0.000 A 
ATOM      3  C   UNL     1      46.077   5.727  13.317  0.00  0.00    +0.000 A 
ATOM      4  C   UNL     1      46.536   4.420  13.472  0.00  0.00    +0.000 A 
ATOM      5  C   UNL     1      45.852   3.378  12.842  0.00  0.00    +0.000 A 
ATOM      6  C   UNL     1      44.704   3.633  12.084  0.00  0.00    +0.000 A 
ENDROOT
BRANCH   1   7
ATOM      7  C   UNL     1      43.005   5.236  11.109  0.00  0.00    +0.000 C 
BRANCH   7   8
ATOM      8  N   UNL     1      42.152   6.226  11.759  0.00  0.00    +0.000 NA
ATOM      9  H   UNL     1      42.725   7.004  12.079  0.00  0.00    +0.000 HD
ATOM     10  H   UNL     1      41.743   5.805  12.593  0.00  0.00    +0.000 HD
ENDBRANCH   7   8
ENDBRANCH   1   7
BRANCH   4  11
ATOM     11  O   UNL     1      47.660   4.052  14.160  0.00  0.00    +0.000 OA
BRANCH  11  12
ATOM     12  C   UNL     1      47.435   3.493  15.459  0.00  0.00    +0.000 C 
BRANCH  12  13
ATOM     13  C   UNL     1      47.701   4.535  16.524  0.00  0.00    +0.000 A 
ATOM     14  N   UNL     1      46.967   4.468  17.658  0.00  0.00    +0.000 NA
ATOM     15  C   UNL     1      47.222   5.398  18.597  0.00  0.00    +0.000 A 
ATOM     16  C   UNL     1      48.176   6.376  18.456  0.00  0.00    +0.000 A 
ATOM     17  C   UNL     1      48.875   6.357  17.273  0.00  0.00    +0.000 A 
ATOM     18  N   UNL     1      48.666   5.453  16.297  0.00  0.00    +0.000 NA
ENDBRANCH  12  13
ENDBRANCH  11  12
ENDBRANCH   4  11
TORSDOF 5
ENDMDL
MODEL 7
REMARK VINA RESULT:    -4.964      5.222      8.356
REMARK INTER + INTRA:          -6.654
REMARK INTER:                  -6.365
REMARK INTRA:                  -0.288
REMARK UNBOUND:                -0.383
REMARK  Name = 
REMARK  5 active torsions:
REMARK  status: ('A' for Active; 'I' for Inactive)
REMARK    1  A    between atoms: N_1  and  C_2
REMARK    2  A    between atoms: C_2  and  C_3
REMARK    3  A    between atoms: C_6  and  O_7
REMARK    4  A    between atoms: O_7  and  C_8
REMARK    5  A    between atoms: C_8  and  C_9
REMARK                            x       y       z     vdW  Elec       q    Type
REMARK                         _______ _______ _______ _____ _____    ______ ____
ROOT
ATOM      1  C   UNL     1      51.792   2.266  17.710  0.00  0.00    +0.000 A 
ATOM      2  C   UNL     1      51.823   3.638  17.995  0.00  0.00    +0.000 A 
ATOM      3  C   UNL     1      50.701   4.443  17.777  0.00  0.00    +0.000 A 
ATOM      4  C   UNL     1      49.531   3.888  17.262  0.00  0.00    +0.000 A 
ATOM      5  C   UNL     1      49.488   2.520  16.987  0.00  0.00    +0.000 A 
ATOM      6  C   UNL     1      50.612   1.715  17.198  0.00  0.00    +0.000 A 
ENDROOT
BRANCH   1   7
ATOM      7  C   UNL     1      53.009   1.411  17.952  0.00  0.00    +0.000 C 
BRANCH   7   8
ATOM      8  N   UNL     1      52.644   0.022  18.210  0.00  0.00    +0.000 NA
ATOM      9  H   UNL     1      52.105  -0.029  19.071  0.00  0.00    +0.000 HD
ATOM     10  H   UNL     1      53.496  -0.515  18.368  0.00  0.00    +0.000 HD
ENDBRANCH   7   8
ENDBRANCH   1   7
BRANCH   4  11
ATOM     11  O   UNL     1      48.362   4.566  17.044  0.00  0.00    +0.000 OA
BRANCH  11  12
ATOM     12  C   UNL     1      47.369   3.861  16.291  0.00  0.00    +0.000 C 
BRANCH  12  13
ATOM     13  C   UNL     1      47.114   4.570  14.978  0.00  0.00    +0.000 A 
ATOM     14  N   UNL     1      46.041   4.175  14.255  0.00  0.00    +0.000 NA
ATOM     15  C   UNL     1      45.826   4.821  13.094  0.00  0.00    +0.000 A 
ATOM     16  C   UNL     1      46.623   5.840  12.634  0.00  0.00    +0.000 A 
ATOM     17  C   UNL     1      47.684   6.174  13.442  0.00  0.00    +0.000 A 
ATOM     18  N   UNL     1      47.950   5.566  14.613  0.00  0.00    +0.000 NA
ENDBRANCH  12  13
ENDBRANCH  11  12
ENDBRANCH   4  11
TORSDOF 5
ENDMDL
MODEL 8
REMARK VINA RESULT:    -4.946      2.783      6.229
REMARK INTER + INTRA:          -6.630
REMARK INTER:                  -6.305
REMARK INTRA:                  -0.325
REMARK UNBOUND:                -0.383
REMARK  Name = 
REMARK  5 active torsions:
REMARK  status: ('A' for Active; 'I' for Inactive)
REMARK    1  A    between atoms: N_1  and  C_2
REMARK    2  A    between atoms: C_2  and  C_3
REMARK    3  A    between atoms: C_6  and  O_7
REMARK    4  A    between atoms: O_7  and  C_8
REMARK    5  A    between atoms: C_8  and  C_9
REMARK                            x       y       z     vdW  Elec       q    Type
REMARK                         _______ _______ _______ _____ _____    ______ ____
ROOT
ATOM      1  C   UNL     1      48.695   6.906  13.927  0.00  0.00    +0.000 A 
ATOM      2  C   UNL     1      47.909   5.912  14.526  0.00  0.00    +0.000 A 
ATOM      3  C   UNL     1      46.759   5.427  13.896  0.00  0.00    +0.000 A 
ATOM      4  C   UNL     1      46.372   5.936  12.657  0.00  0.00    +0.000 A 
ATOM      5  C   UNL     1      47.156   6.919  12.049  0.00  0.00    +0.000 A 
ATOM      6  C   UNL     1      48.303   7.409  12.681  0.00  0.00    +0.000 A 
ENDROOT
BRANCH   1   7
ATOM      7  C   UNL     1      49.933   7.416  14.618  0.00  0.00    +0.000 C 
BRANCH   7   8
ATOM      8  N   UNL     1      50.996   7.710  13.663  0.00  0.00    +0.000 NA
ATOM      9  H   UNL     1      51.627   6.914  13.608  0.00  0.00    +0.000 HD
ATOM     10  H   UNL     1      51.545   8.493  14.017  0.00  0.00    +0.000 HD
ENDBRANCH   7   8
ENDBRANCH   1   7
BRANCH   4  11
ATOM     11  O   UNL     1      45.292   5.515  11.930  0.00  0.00    +0.000 OA
BRANCH  11  12
ATOM     12  C   UNL     1      45.289   5.898  10.550  0.00  0.00    +0.000 C 
BRANCH  12  13
ATOM     13  C   UNL     1      45.364   4.668   9.671  0.00  0.00    +0.000 A 
ATOM     14  N   UNL     1      45.892   4.817   8.434  0.00  0.00    +0.000 NA
ATOM     15  C   UNL     1      45.957   3.712   7.669  0.00  0.00    +0.000 A 
ATOM     16  C   UNL     1      45.531   2.475   8.086  0.00  0.00    +0.000 A 
ATOM     17  C   UNL     1      45.017   2.423   9.360  0.00  0.00    +0.000 A 
ATOM     18  N   UNL     1      44.926   3.492  10.172  0.00  0.00    +0.000 NA
ENDBRANCH  12  13
ENDBRANCH  11  12
ENDBRANCH   4  11
TORSDOF 5
ENDMDL
MODEL 9
REMARK VINA RESULT:    -4.894      3.987      7.787
REMARK INTER + INTRA:          -6.564
REMARK INTER:                  -6.344
REMARK INTRA:                  -0.221
REMARK UNBOUND:                -0.383
REMARK  Name = 
REMARK  5 active torsions:
REMARK  status: ('A' for Active; 'I' for Inactive)
REMARK    1  A    between atoms: N_1  and  C_2
REMARK    2  A    between atoms: C_2  and  C_3
REMARK    3  A    between atoms: C_6  and  O_7
REMARK    4  A    between atoms: O_7  and  C_8
REMARK    5  A    between atoms: C_8  and  C_9
REMARK                            x       y       z     vdW  Elec       q    Type
REMARK                         _______ _______ _______ _____ _____    ______ ____
ROOT
ATOM      1  C   UNL     1      49.243   4.679  18.161  0.00  0.00    +0.000 A 
ATOM      2  C   UNL     1      49.077   5.633  17.148  0.00  0.00    +0.000 A 
ATOM      3  C   UNL     1      48.182   5.417  16.095  0.00  0.00    +0.000 A 
ATOM      4  C   UNL     1      47.444   4.236  16.036  0.00  0.00    +0.000 A 
ATOM      5  C   UNL     1      47.595   3.286  17.048  0.00  0.00    +0.000 A 
ATOM      6  C   UNL     1      48.494   3.498  18.098  0.00  0.00    +0.000 A 
ENDROOT
BRANCH   1   7
ATOM      7  C   UNL     1      50.210   4.929  19.290  0.00  0.00    +0.000 C 
BRANCH   7   8
ATOM      8  N   UNL     1      51.227   3.885  19.363  0.00  0.00    +0.000 NA
ATOM      9  H   UNL     1      50.909   3.070  18.844  0.00  0.00    +0.000 HD
ATOM     10  H   UNL     1      51.323   3.592  20.335  0.00  0.00    +0.000 HD
ENDBRANCH   7   8
ENDBRANCH   1   7
BRANCH   4  11
ATOM     11  O   UNL     1      46.514   3.931  15.080  0.00  0.00    +0.000 OA
BRANCH  11  12
ATOM     12  C   UNL     1      46.532   4.760  13.912  0.00  0.00    +0.000 C 
BRANCH  12  13
ATOM     13  C   UNL     1      45.264   4.554  13.112  0.00  0.00    +0.000 A 
ATOM     14  N   UNL     1      44.905   3.281  12.829  0.00  0.00    +0.000 NA
ATOM     15  C   UNL     1      43.771   3.117  12.122  0.00  0.00    +0.000 A 
ATOM     16  C   UNL     1      42.984   4.160  11.698  0.00  0.00    +0.000 A 
ATOM     17  C   UNL     1      43.427   5.415  12.042  0.00  0.00    +0.000 A 
ATOM     18  N   UNL     1      44.552   5.643  12.746  0.00  0.00    +0.000 NA
ENDBRANCH  12  13
ENDBRANCH  11  12
ENDBRANCH   4  11
TORSDOF 5
ENDMDL
