MODEL 1
REMARK VINA RESULT:    -8.616      0.000      0.000
REMARK INTER + INTRA:         -12.004
REMARK INTER:                 -11.134
REMARK INTRA:                  -0.870
REMARK UNBOUND:                -0.870
REMARK  Name = 
REMARK  5 active torsions:
REMARK  status: ('A' for Active; 'I' for Inactive)
REMARK    1  A    between atoms: C_2  and  C_4
REMARK    2  A    between atoms: C_7  and  N_8
REMARK    3  A    between atoms: N_8  and  C_9
REMARK    4  A    between atoms: C_9  and  C_10
REMARK    5  A    between atoms: C_14  and  C_15
REMARK                            x       y       z     vdW  Elec       q    Type
REMARK                         _______ _______ _______ _____ _____    ______ ____
ROOT
ATOM      1  N   UNL     1      43.794   4.905   9.873  0.00  0.00    +0.000 N 
ATOM      2  H   UNL     1      43.037   5.334   9.342  0.00  0.00    +0.000 HD
ENDROOT
BRANCH   1   6
ATOM      3  C   UNL     1      46.378   2.274   7.831  0.00  0.00    +0.000 A 
ATOM      4  C   UNL     1      45.423   1.759   8.708  0.00  0.00    +0.000 A 
ATOM      5  C   UNL     1      44.528   2.618   9.354  0.00  0.00    +0.000 A 
ATOM      6  C   UNL     1      44.553   4.000   9.139  0.00  0.00    +0.000 A 
ATOM      7  C   UNL     1      45.523   4.499   8.257  0.00  0.00    +0.000 A 
ATOM      8  C   UNL     1      46.428   3.651   7.609  0.00  0.00    +0.000 A 
BRANCH   3  10
ATOM      9  N   UNL     1      48.421   2.012   6.535  0.00  0.00    +0.000 N 
ATOM     10  C   UNL     1      47.381   1.398   7.174  0.00  0.00    +0.000 C 
ATOM     11  O   UNL     1      47.299   0.179   7.218  0.00  0.00    +0.000 OA
ATOM     12  H   UNL     1      49.138   1.408   6.157  0.00  0.00    +0.000 HD
ATOM     13  H   UNL     1      48.652   2.986   6.672  0.00  0.00    +0.000 HD
ENDBRANCH   3  10
ENDBRANCH   1   6
BRANCH   1  14
ATOM     14  C   UNL     1      43.506   4.715  11.283  0.00  0.00    +0.000 C 
BRANCH  14  15
ATOM     15  C   UNL     1      44.732   5.018  12.097  0.00  0.00    +0.000 A 
ATOM     16  C   UNL     1      45.134   4.186  13.130  0.00  0.00    +0.000 A 
ATOM     17  N   UNL     1      46.249   4.386  13.860  0.00  0.00    +0.000 NA
ATOM     18  C   UNL     1      47.003   5.468  13.540  0.00  0.00    +0.000 A 
ATOM     19  C   UNL     1      46.727   6.373  12.513  0.00  0.00    +0.000 A 
ATOM     20  C   UNL     1      45.554   6.114  11.789  0.00  0.00    +0.000 A 
BRANCH  19  21
ATOM     21  C   UNL     1      47.606   7.522  12.209  0.00  0.00    +0.000 A 
ATOM     22  C   UNL     1      48.979   7.374  11.952  0.00  0.00    +0.000 A 
ATOM     23  C   UNL     1      49.776   8.481  11.660  0.00  0.00    +0.000 A 
ATOM     24  C   UNL     1      49.182   9.728  11.624  0.00  0.00    +0.000 A 
ATOM     25  N   UNL     1      47.873   9.933  11.868  0.00  0.00    +0.000 NA
ATOM     26  C   UNL     1      47.129   8.836  12.158  0.00  0.00    +0.000 A 
ENDBRANCH  19  21
ENDBRANCH  14  15
ENDBRANCH   1  14
TORSDOF 5
ENDMDL
MODEL 2
REMARK VINA RESULT:    -8.404      1.789      3.260
REMARK INTER + INTRA:         -11.731
REMARK INTER:                 -10.941
REMARK INTRA:                  -0.789
REMARK UNBOUND:                -0.870
REMARK  Name = 
REMARK  5 active torsions:
REMARK  status: ('A' for Active; 'I' for Inactive)
REMARK    1  A    between atoms: C_2  and  C_4
REMARK    2  A    between atoms: C_7  and  N_8
REMARK    3  A    between atoms: N_8  and  C_9
REMARK    4  A    between atoms: C_9  and  C_10
REMARK    5  A    between atoms: C_14  and  C_15
REMARK                            x       y       z     vdW  Elec       q    Type
REMARK                         _______ _______ _______ _____ _____    ______ ____
ROOT
ATOM      1  N   UNL     1      43.779   4.872   9.975  0.00  0.00    +0.000 N 
ATOM      2  H   UNL     1      42.889   5.130   9.554  0.00  0.00    +0.000 HD
ENDROOT
BRANCH   1   6
ATOM      3  C   UNL     1      46.327   2.285   7.834  0.00  0.00    +0.000 A 
ATOM      4  C   UNL     1      45.418   1.754   8.748  0.00  0.00    +0.000 A 
ATOM      5  C   UNL     1      44.534   2.597   9.429  0.00  0.00    +0.000 A 
ATOM      6  C   UNL     1      44.525   3.979   9.213  0.00  0.00    +0.000 A 
ATOM      7  C   UNL     1      45.449   4.495   8.291  0.00  0.00    +0.000 A 
ATOM      8  C   UNL     1      46.343   3.663   7.608  0.00  0.00    +0.000 A 
BRANCH   3  10
ATOM      9  N   UNL     1      48.400   2.051   6.580  0.00  0.00    +0.000 N 
ATOM     10  C   UNL     1      47.319   1.427   7.137  0.00  0.00    +0.000 C 
ATOM     11  O   UNL     1      47.193   0.212   7.081  0.00  0.00    +0.000 OA
ATOM     12  H   UNL     1      49.107   1.451   6.175  0.00  0.00    +0.000 HD
ATOM     13  H   UNL     1      48.661   3.001   6.801  0.00  0.00    +0.000 HD
ENDBRANCH   3  10
ENDBRANCH   1   6
BRANCH   1  14
ATOM     14  C   UNL     1      43.768   4.833  11.426  0.00  0.00    +0.000 C 
BRANCH  14  15
ATOM     15  C   UNL     1      44.996   5.513  11.961  0.00  0.00    +0.000 A 
ATOM     16  C   UNL     1      45.490   6.671  11.379  0.00  0.00    +0.000 A 
ATOM     17  N   UNL     1      46.559   7.345  11.846  0.00  0.00    +0.000 NA
ATOM     18  C   UNL     1      47.164   6.842  12.952  0.00  0.00    +0.000 A 
ATOM     19  C   UNL     1      46.759   5.701  13.649  0.00  0.00    +0.000 A 
ATOM     20  C   UNL     1      45.642   5.042  13.115  0.00  0.00    +0.000 A 
BRANCH  19  21
ATOM     21  C   UNL     1      47.457   5.221  14.860  0.00  0.00    +0.000 A 
ATOM     22  C   UNL     1      47.158   3.990  15.465  0.00  0.00    +0.000 A 
ATOM     23  C   UNL     1      47.844   3.565  16.603  0.00  0.00    +0.000 A 
ATOM     24  C   UNL     1      48.830   4.383  17.119  0.00  0.00    +0.000 A 
ATOM     25  N   UNL     1      49.157   5.576  16.587  0.00  0.00    +0.000 NA
ATOM     26  C   UNL     1      48.464   5.963  15.487  0.00  0.00    +0.000 A 
ENDBRANCH  19  21
ENDBRANCH  14  15
ENDBRANCH   1  14
TORSDOF 5
ENDMDL
MODEL 3
REMARK VINA RESULT:    -7.847      2.766      6.628
REMARK INTER + INTRA:         -11.010
REMARK INTER:                 -10.149
REMARK INTRA:                  -0.861
REMARK UNBOUND:                -0.870
REMARK  Name = 
REMARK  5 active torsions:
REMARK  status: ('A' for Active; 'I' for Inactive)
REMARK    1  A    between atoms: C_2  and  C_4
REMARK    2  A    between atoms: C_7  and  N_8
REMARK    3  A    between atoms: N_8  and  C_9
REMARK    4  A    between atoms: C_9  and  C_10
REMARK    5  A    between atoms: C_14  and  C_15
REMARK                            x       y       z     vdW  Elec       q    Type
REMARK                         _______ _______ _______ _____ _____    ______ ____
ROOT
ATOM      1  N   UNL     1      44.181   6.608  12.609  0.00  0.00    +0.000 N 
ATOM      2  H   UNL     1      43.592   6.990  13.347  0.00  0.00    +0.000 HD
ENDROOT
BRANCH   1   6
ATOM      3  C   UNL     1      48.172   7.930  12.314  0.00  0.00    +0.000 A 
ATOM      4  C   UNL     1      47.131   8.846  12.166  0.00  0.00    +0.000 A 
ATOM      5  C   UNL     1      45.804   8.429  12.309  0.00  0.00    +0.000 A 
ATOM      6  C   UNL     1      45.480   7.102  12.612  0.00  0.00    +0.000 A 
ATOM      7  C   UNL     1      46.541   6.195  12.754  0.00  0.00    +0.000 A 
ATOM      8  C   UNL     1      47.874   6.599  12.606  0.00  0.00    +0.000 A 
BRANCH   3  10
ATOM      9  N   UNL     1      50.480   7.329  11.830  0.00  0.00    +0.000 N 
ATOM     10  C   UNL     1      49.589   8.326  12.110  0.00  0.00    +0.000 C 
ATOM     11  O   UNL     1      49.946   9.495  12.167  0.00  0.00    +0.000 OA
ATOM     12  H   UNL     1      51.426   7.617  11.617  0.00  0.00    +0.000 HD
ATOM     13  H   UNL     1      50.197   6.402  11.546  0.00  0.00    +0.000 HD
ENDBRANCH   3  10
ENDBRANCH   1   6
BRANCH   1  14
ATOM     14  C   UNL     1      43.474   6.288  11.381  0.00  0.00    +0.000 C 
BRANCH  14  15
ATOM     15  C   UNL     1      43.722   4.854  11.011  0.00  0.00    +0.000 A 
ATOM     16  C   UNL     1      43.081   3.818  11.673  0.00  0.00    +0.000 A 
ATOM     17  N   UNL     1      43.232   2.518  11.352  0.00  0.00    +0.000 NA
ATOM     18  C   UNL     1      44.060   2.237  10.314  0.00  0.00    +0.000 A 
ATOM     19  C   UNL     1      44.749   3.181   9.549  0.00  0.00    +0.000 A 
ATOM     20  C   UNL     1      44.553   4.516   9.931  0.00  0.00    +0.000 A 
BRANCH  19  21
ATOM     21  C   UNL     1      45.623   2.803   8.418  0.00  0.00    +0.000 A 
ATOM     22  C   UNL     1      46.022   3.721   7.434  0.00  0.00    +0.000 A 
ATOM     23  C   UNL     1      46.855   3.329   6.385  0.00  0.00    +0.000 A 
ATOM     24  C   UNL     1      47.283   2.016   6.340  0.00  0.00    +0.000 A 
ATOM     25  N   UNL     1      46.928   1.090   7.251  0.00  0.00    +0.000 NA
ATOM     26  C   UNL     1      46.110   1.502   8.252  0.00  0.00    +0.000 A 
ENDBRANCH  19  21
ENDBRANCH  14  15
ENDBRANCH   1  14
TORSDOF 5
ENDMDL
MODEL 4
REMARK VINA RESULT:    -7.817      1.612      2.582
REMARK INTER + INTRA:         -10.972
REMARK INTER:                 -10.254
REMARK INTRA:                  -0.718
REMARK UNBOUND:                -0.870
REMARK  Name = 
REMARK  5 active torsions:
REMARK  status: ('A' for Active; 'I' for Inactive)
REMARK    1  A    between atoms: C_2  and  C_4
REMARK    2  A    between atoms: C_7  and  N_8
REMARK    3  A    between atoms: N_8  and  C_9
REMARK    4  A    between atoms: C_9  and  C_10
REMARK    5  A    between atoms: C_14  and  C_15
REMARK                            x       y       z     vdW  Elec       q    Type
REMARK                         _______ _______ _______ _____ _____    ______ ____
ROOT
ATOM      1  N   UNL     1      43.743   4.829   9.904  0.00  0.00    +0.000 N 
ATOM      2  H   UNL     1      42.819   4.716   9.490  0.00  0.00    +0.000 HD
ENDROOT
BRANCH   1   6
ATOM      3  C   UNL     1      46.483   2.380   7.838  0.00  0.00    +0.000 A 
ATOM      4  C   UNL     1      46.534   3.764   7.671  0.00  0.00    +0.000 A 
ATOM      5  C   UNL     1      45.663   4.590   8.387  0.00  0.00    +0.000 A 
ATOM      6  C   UNL     1      44.731   4.066   9.290  0.00  0.00    +0.000 A 
ATOM      7  C   UNL     1      44.692   2.672   9.443  0.00  0.00    +0.000 A 
ATOM      8  C   UNL     1      45.555   1.833   8.727  0.00  0.00    +0.000 A 
BRANCH   3  10
ATOM      9  N   UNL     1      48.514   1.992   6.555  0.00  0.00    +0.000 N 
ATOM     10  C   UNL     1      47.353   1.470   7.051  0.00  0.00    +0.000 C 
ATOM     11  O   UNL     1      47.061   0.296   6.869  0.00  0.00    +0.000 OA
ATOM     12  H   UNL     1      49.135   1.346   6.087  0.00  0.00    +0.000 HD
ATOM     13  H   UNL     1      48.902   2.869   6.873  0.00  0.00    +0.000 HD
ENDBRANCH   3  10
ENDBRANCH   1   6
BRANCH   1  14
ATOM     14  C   UNL     1      43.735   5.085  11.333  0.00  0.00    +0.000 C 
BRANCH  14  15
ATOM     15  C   UNL     1      44.535   6.321  11.631  0.00  0.00    +0.000 A 
ATOM     16  C   UNL     1      44.110   7.572  11.212  0.00  0.00    +0.000 A 
ATOM     17  N   UNL     1      44.765   8.716  11.493  0.00  0.00    +0.000 NA
ATOM     18  C   UNL     1      45.897   8.607  12.232  0.00  0.00    +0.000 A 
ATOM     19  C   UNL     1      46.425   7.416  12.736  0.00  0.00    +0.000 A 
ATOM     20  C   UNL     1      45.701   6.259  12.411  0.00  0.00    +0.000 A 
BRANCH  19  21
ATOM     21  C   UNL     1      47.657   7.375  13.552  0.00  0.00    +0.000 A 
ATOM     22  C   UNL     1      48.587   8.427  13.566  0.00  0.00    +0.000 A 
ATOM     23  C   UNL     1      49.735   8.357  14.355  0.00  0.00    +0.000 A 
ATOM     24  C   UNL     1      49.933   7.229  15.129  0.00  0.00    +0.000 A 
ATOM     25  N   UNL     1      49.080   6.188  15.152  0.00  0.00    +0.000 NA
ATOM     26  C   UNL     1      47.979   6.284  14.366  0.00  0.00    +0.000 A 
ENDBRANCH  19  21
ENDBRANCH  14  15
ENDBRANCH   1  14
TORSDOF 5
ENDMDL
MODEL 5
REMARK VINA RESULT:    -7.719      1.739      2.057
REMARK INTER + INTRA:         -10.845
REMARK INTER:                 -10.166
REMARK INTRA:                  -0.679
REMARK UNBOUND:                -0.870
REMARK  Name = 
REMARK  5 active torsions:
REMARK  status: ('A' for Active; 'I' for Inactive)
REMARK    1  A    between atoms: C_2  and  C_4
REMARK    2  A    between atoms: C_7  and  N_8
REMARK    3  A    between atoms: N_8  and  C_9
REMARK    4  A    between atoms: C_9  and  C_10
REMARK    5  A    between atoms: C_14  and  C_15
REMARK                            x       y       z     vdW  Elec       q    Type
REMARK                         _______ _______ _______ _____ _____    ______ ____
ROOT
ATOM      1  N   UNL     1      43.887   2.902  10.449  0.00  0.00    +0.000 N 
ATOM      2  H   UNL     1      43.079   2.282  10.471  0.00  0.00    +0.000 HD
ENDROOT
BRANCH   1   6
ATOM      3  C   UNL     1      46.532   2.649   7.176  0.00  0.00    +0.000 A 
ATOM      4  C   UNL     1      46.216   1.497   7.896  0.00  0.00    +0.000 A 
ATOM      5  C   UNL     1      45.303   1.559   8.954  0.00  0.00    +0.000 A 
ATOM      6  C   UNL     1      44.677   2.758   9.313  0.00  0.00    +0.000 A 
ATOM      7  C   UNL     1      45.010   3.906   8.579  0.00  0.00    +0.000 A 
ATOM      8  C   UNL     1      45.928   3.858   7.523  0.00  0.00    +0.000 A 
BRANCH   3  10
ATOM      9  N   UNL     1      48.827   2.325   6.434  0.00  0.00    +0.000 N 
ATOM     10  C   UNL     1      47.541   2.631   6.087  0.00  0.00    +0.000 C 
ATOM     11  O   UNL     1      47.238   2.855   4.923  0.00  0.00    +0.000 OA
ATOM     12  H   UNL     1      49.491   2.240   5.675  0.00  0.00    +0.000 HD
ATOM     13  H   UNL     1      49.073   1.910   7.321  0.00  0.00    +0.000 HD
ENDBRANCH   3  10
ENDBRANCH   1   6
BRANCH   1  14
ATOM     14  C   UNL     1      44.450   3.202  11.753  0.00  0.00    +0.000 C 
BRANCH  14  15
ATOM     15  C   UNL     1      44.786   4.664  11.836  0.00  0.00    +0.000 A 
ATOM     16  C   UNL     1      43.819   5.638  11.645  0.00  0.00    +0.000 A 
ATOM     17  N   UNL     1      44.057   6.960  11.753  0.00  0.00    +0.000 NA
ATOM     18  C   UNL     1      45.323   7.329  12.073  0.00  0.00    +0.000 A 
ATOM     19  C   UNL     1      46.386   6.454  12.313  0.00  0.00    +0.000 A 
ATOM     20  C   UNL     1      46.077   5.092  12.185  0.00  0.00    +0.000 A 
BRANCH  19  21
ATOM     21  C   UNL     1      47.738   6.928  12.676  0.00  0.00    +0.000 A 
ATOM     22  C   UNL     1      48.545   7.657  11.787  0.00  0.00    +0.000 A 
ATOM     23  C   UNL     1      49.814   8.096  12.167  0.00  0.00    +0.000 A 
ATOM     24  C   UNL     1      50.256   7.802  13.443  0.00  0.00    +0.000 A 
ATOM     25  N   UNL     1      49.531   7.102  14.335  0.00  0.00    +0.000 NA
ATOM     26  C   UNL     1      48.306   6.682  13.931  0.00  0.00    +0.000 A 
ENDBRANCH  19  21
ENDBRANCH  14  15
ENDBRANCH   1  14
TORSDOF 5
ENDMDL
MODEL 6
REMARK VINA RESULT:    -7.576      2.926      6.965
REMARK INTER + INTRA:         -10.660
REMARK INTER:                 -10.143
REMARK INTRA:                  -0.517
REMARK UNBOUND:                -0.870
REMARK  Name = 
REMARK  5 active torsions:
REMARK  status: ('A' for Active; 'I' for Inactive)
REMARK    1  A    between atoms: C_2  and  C_4
REMARK    2  A    between atoms: C_7  and  N_8
REMARK    3  A    between atoms: N_8  and  C_9
REMARK    4  A    between atoms: C_9  and  C_10
REMARK    5  A    between atoms: C_14  and  C_15
REMARK                            x       y       z     vdW  Elec       q    Type
REMARK                         _______ _______ _______ _____ _____    ______ ____
ROOT
ATOM      1  N   UNL     1      44.914   6.938  11.002  0.00  0.00    +0.000 N 
ATOM      2  H   UNL     1      45.372   6.897  10.093  0.00  0.00    +0.000 HD
ENDROOT
BRANCH   1   6
ATOM      3  C   UNL     1      47.832   7.003  14.043  0.00  0.00    +0.000 A 
ATOM      4  C   UNL     1      47.415   8.201  13.464  0.00  0.00    +0.000 A 
ATOM      5  C   UNL     1      46.413   8.197  12.488  0.00  0.00    +0.000 A 
ATOM      6  C   UNL     1      45.797   7.011  12.073  0.00  0.00    +0.000 A 
ATOM      7  C   UNL     1      46.233   5.816  12.665  0.00  0.00    +0.000 A 
ATOM      8  C   UNL     1      47.239   5.806  13.638  0.00  0.00    +0.000 A 
BRANCH   3  10
ATOM      9  N   UNL     1      48.579   6.869  16.355  0.00  0.00    +0.000 N 
ATOM     10  C   UNL     1      48.933   6.964  15.039  0.00  0.00    +0.000 C 
ATOM     11  O   UNL     1      50.108   6.992  14.702  0.00  0.00    +0.000 OA
ATOM     12  H   UNL     1      49.336   6.766  17.019  0.00  0.00    +0.000 HD
ATOM     13  H   UNL     1      47.651   6.610  16.658  0.00  0.00    +0.000 HD
ENDBRANCH   3  10
ENDBRANCH   1   6
BRANCH   1  14
ATOM     14  C   UNL     1      43.661   6.209  11.076  0.00  0.00    +0.000 C 
BRANCH  14  15
ATOM     15  C   UNL     1      43.889   4.768  10.717  0.00  0.00    +0.000 A 
ATOM     16  C   UNL     1      43.224   3.747  11.377  0.00  0.00    +0.000 A 
ATOM     17  N   UNL     1      43.358   2.443  11.064  0.00  0.00    +0.000 NA
ATOM     18  C   UNL     1      44.193   2.143  10.038  0.00  0.00    +0.000 A 
ATOM     19  C   UNL     1      44.905   3.071   9.275  0.00  0.00    +0.000 A 
ATOM     20  C   UNL     1      44.727   4.411   9.648  0.00  0.00    +0.000 A 
BRANCH  19  21
ATOM     21  C   UNL     1      45.785   2.672   8.157  0.00  0.00    +0.000 A 
ATOM     22  C   UNL     1      46.103   3.540   7.100  0.00  0.00    +0.000 A 
ATOM     23  C   UNL     1      46.944   3.132   6.065  0.00  0.00    +0.000 A 
ATOM     24  C   UNL     1      47.463   1.852   6.106  0.00  0.00    +0.000 A 
ATOM     25  N   UNL     1      47.190   0.973   7.089  0.00  0.00    +0.000 NA
ATOM     26  C   UNL     1      46.361   1.399   8.075  0.00  0.00    +0.000 A 
ENDBRANCH  19  21
ENDBRANCH  14  15
ENDBRANCH   1  14
TORSDOF 5
ENDMDL
MODEL 7
REMARK VINA RESULT:    -6.585      3.014      6.970
REMARK INTER + INTRA:          -9.379
REMARK INTER:                  -8.672
REMARK INTRA:                  -0.707
REMARK UNBOUND:                -0.870
REMARK  Name = 
REMARK  5 active torsions:
REMARK  status: ('A' for Active; 'I' for Inactive)
REMARK    1  A    between atoms: C_2  and  C_4
REMARK    2  A    between atoms: C_7  and  N_8
REMARK    3  A    between atoms: N_8  and  C_9
REMARK    4  A    between atoms: C_9  and  C_10
REMARK    5  A    between atoms: C_14  and  C_15
REMARK                            x       y       z     vdW  Elec       q    Type
REMARK                         _______ _______ _______ _____ _____    ______ ____
ROOT
ATOM      1  N   UNL     1      46.693   6.502  13.386  0.00  0.00    +0.000 N 
ATOM      2  H   UNL     1      46.648   6.091  14.317  0.00  0.00    +0.000 HD
ENDROOT
BRANCH   1   6
ATOM      3  C   UNL     1      50.499   8.145  12.626  0.00  0.00    +0.000 A 
ATOM      4  C   UNL     1      49.601   7.974  11.573  0.00  0.00    +0.000 A 
ATOM      5  C   UNL     1      48.318   7.476  11.820  0.00  0.00    +0.000 A 
ATOM      6  C   UNL     1      47.895   7.145  13.112  0.00  0.00    +0.000 A 
ATOM      7  C   UNL     1      48.814   7.321  14.157  0.00  0.00    +0.000 A 
ATOM      8  C   UNL     1      50.103   7.813  13.923  0.00  0.00    +0.000 A 
BRANCH   3  10
ATOM      9  N   UNL     1      52.893   7.919  13.000  0.00  0.00    +0.000 N 
ATOM     10  C   UNL     1      51.888   8.616  12.392  0.00  0.00    +0.000 C 
ATOM     11  O   UNL     1      52.131   9.572  11.669  0.00  0.00    +0.000 OA
ATOM     12  H   UNL     1      53.838   8.200  12.774  0.00  0.00    +0.000 HD
ATOM     13  H   UNL     1      52.761   7.002  13.404  0.00  0.00    +0.000 HD
ENDBRANCH   3  10
ENDBRANCH   1   6
BRANCH   1  14
ATOM     14  C   UNL     1      45.420   6.985  12.882  0.00  0.00    +0.000 C 
BRANCH  14  15
ATOM     15  C   UNL     1      44.734   5.895  12.108  0.00  0.00    +0.000 A 
ATOM     16  C   UNL     1      43.414   5.554  12.361  0.00  0.00    +0.000 A 
ATOM     17  N   UNL     1      42.738   4.618  11.667  0.00  0.00    +0.000 NA
ATOM     18  C   UNL     1      43.411   3.993  10.668  0.00  0.00    +0.000 A 
ATOM     19  C   UNL     1      44.731   4.253  10.293  0.00  0.00    +0.000 A 
ATOM     20  C   UNL     1      45.383   5.237  11.052  0.00  0.00    +0.000 A 
BRANCH  19  21
ATOM     21  C   UNL     1      45.395   3.544   9.179  0.00  0.00    +0.000 A 
ATOM     22  C   UNL     1      45.956   4.219   8.083  0.00  0.00    +0.000 A 
ATOM     23  C   UNL     1      46.584   3.517   7.054  0.00  0.00    +0.000 A 
ATOM     24  C   UNL     1      46.646   2.139   7.141  0.00  0.00    +0.000 A 
ATOM     25  N   UNL     1      46.121   1.437   8.163  0.00  0.00    +0.000 NA
ATOM     26  C   UNL     1      45.510   2.150   9.142  0.00  0.00    +0.000 A 
ENDBRANCH  19  21
ENDBRANCH  14  15
ENDBRANCH   1  14
TORSDOF 5
ENDMDL
MODEL 8
REMARK VINA RESULT:    -6.299      3.151      5.552
REMARK INTER + INTRA:          -9.010
REMARK INTER:                  -8.225
REMARK INTRA:                  -0.786
REMARK UNBOUND:                -0.870
REMARK  Name = 
REMARK  5 active torsions:
REMARK  status: ('A' for Active; 'I' for Inactive)
REMARK    1  A    between atoms: C_2  and  C_4
REMARK    2  A    between atoms: C_7  and  N_8
REMARK    3  A    between atoms: N_8  and  C_9
REMARK    4  A    between atoms: C_9  and  C_10
REMARK    5  A    between atoms: C_14  and  C_15
REMARK                            x       y       z     vdW  Elec       q    Type
REMARK                         _______ _______ _______ _____ _____    ______ ____
ROOT
ATOM      1  N   UNL     1      46.603   7.744  12.006  0.00  0.00    +0.000 N 
ATOM      2  H   UNL     1      46.180   8.416  12.645  0.00  0.00    +0.000 HD
ENDROOT
BRANCH   1   6
ATOM      3  C   UNL     1      44.496   4.177  11.230  0.00  0.00    +0.000 A 
ATOM      4  C   UNL     1      44.377   4.789  12.478  0.00  0.00    +0.000 A 
ATOM      5  C   UNL     1      45.032   5.998  12.731  0.00  0.00    +0.000 A 
ATOM      6  C   UNL     1      45.809   6.631  11.755  0.00  0.00    +0.000 A 
ATOM      7  C   UNL     1      45.920   5.998  10.507  0.00  0.00    +0.000 A 
ATOM      8  C   UNL     1      45.274   4.784  10.243  0.00  0.00    +0.000 A 
BRANCH   3  10
ATOM      9  N   UNL     1      44.359   2.148   9.894  0.00  0.00    +0.000 N 
ATOM     10  C   UNL     1      43.862   2.865  10.946  0.00  0.00    +0.000 C 
ATOM     11  O   UNL     1      42.950   2.427  11.633  0.00  0.00    +0.000 OA
ATOM     12  H   UNL     1      43.973   1.223   9.756  0.00  0.00    +0.000 HD
ATOM     13  H   UNL     1      45.246   2.356   9.457  0.00  0.00    +0.000 HD
ENDBRANCH   3  10
ENDBRANCH   1   6
BRANCH   1  14
ATOM     14  C   UNL     1      48.050   7.664  12.090  0.00  0.00    +0.000 C 
BRANCH  14  15
ATOM     15  C   UNL     1      48.471   7.572  13.529  0.00  0.00    +0.000 A 
ATOM     16  C   UNL     1      49.053   8.649  14.179  0.00  0.00    +0.000 A 
ATOM     17  N   UNL     1      49.406   8.635  15.480  0.00  0.00    +0.000 NA
ATOM     18  C   UNL     1      49.163   7.491  16.167  0.00  0.00    +0.000 A 
ATOM     19  C   UNL     1      48.564   6.343  15.643  0.00  0.00    +0.000 A 
ATOM     20  C   UNL     1      48.219   6.417  14.286  0.00  0.00    +0.000 A 
BRANCH  19  21
ATOM     21  C   UNL     1      48.313   5.135  16.458  0.00  0.00    +0.000 A 
ATOM     22  C   UNL     1      49.230   4.664  17.411  0.00  0.00    +0.000 A 
ATOM     23  C   UNL     1      48.955   3.526  18.169  0.00  0.00    +0.000 A 
ATOM     24  C   UNL     1      47.753   2.875  17.964  0.00  0.00    +0.000 A 
ATOM     25  N   UNL     1      46.838   3.275  17.062  0.00  0.00    +0.000 NA
ATOM     26  C   UNL     1      47.141   4.380  16.335  0.00  0.00    +0.000 A 
ENDBRANCH  19  21
ENDBRANCH  14  15
ENDBRANCH   1  14
TORSDOF 5
ENDMDL
