MODEL 1
REMARK VINA RESULT:    -7.119      0.000      0.000
REMARK INTER + INTRA:         -12.456
REMARK INTER:                 -11.281
REMARK INTRA:                  -1.175
REMARK UNBOUND:                -1.175
REMARK  Name = 
REMARK  14 active torsions:
REMARK  status: ('A' for Active; 'I' for Inactive)
REMARK    1  A    between atoms: C_1  and  C_2
REMARK    2  A    between atoms: C_2  and  N_3
REMARK    3  A    between atoms: N_3  and  C_4
REMARK    4  A    between atoms: N_3  and  C_8
REMARK    5  A    between atoms: C_4  and  C_5
REMARK    6  A    between atoms: C_5  and  O_6
REMARK    7  A    between atoms: O_6  and  C_7
REMARK    8  A    between atoms: C_11  and  C_12
REMARK    9  A    between atoms: C_12  and  C_13
REMARK   10  A    between atoms: C_12  and  C_14
REMARK   11  A    between atoms: C_12  and  C_15
REMARK   12  A    between atoms: C_15  and  N_16
REMARK   13  A    between atoms: N_16  and  C_17
REMARK   14  A    between atoms: C_20  and  C_21
REMARK                            x       y       z     vdW  Elec       q    Type
REMARK                         _______ _______ _______ _____ _____    ______ ____
ROOT
ATOM      1  C   UNL     1      43.933   4.614  12.165  0.00  0.00    +0.000 C 
ATOM      2  C   UNL     1      43.919   3.199  12.787  0.00  0.00    +0.000 C 
ATOM      3  C   UNL     1      42.848   5.469  12.868  0.00  0.00    +0.000 C 
ENDROOT
BRANCH   1   7
ATOM      4  C   UNL     1      47.855   6.584  12.764  0.00  0.00    +0.000 A 
ATOM      5  C   UNL     1      47.333   5.675  13.693  0.00  0.00    +0.000 A 
ATOM      6  C   UNL     1      46.095   5.038  13.516  0.00  0.00    +0.000 A 
ATOM      7  C   UNL     1      45.296   5.289  12.397  0.00  0.00    +0.000 A 
ATOM      8  C   UNL     1      45.818   6.171  11.446  0.00  0.00    +0.000 A 
ATOM      9  C   UNL     1      47.069   6.779  11.619  0.00  0.00    +0.000 A 
BRANCH   4  10
ATOM     10  N   UNL     1      49.054   7.275  12.977  0.00  0.00    +0.000 N 
BRANCH  10  12
ATOM     11  C   UNL     1      50.050   9.005  11.538  0.00  0.00    +0.000 C 
ATOM     12  C   UNL     1      49.982   7.516  11.865  0.00  0.00    +0.000 C 
ENDBRANCH  10  12
BRANCH  10  13
ATOM     13  C   UNL     1      49.263   7.942  14.281  0.00  0.00    +0.000 C 
BRANCH  13  14
ATOM     14  C   UNL     1      50.424   7.451  15.152  0.00  0.00    +0.000 C 
BRANCH  14  15
ATOM     15  O   UNL     1      50.116   6.228  15.825  0.00  0.00    +0.000 OA
ATOM     16  C   UNL     1      51.095   5.937  16.814  0.00  0.00    +0.000 C 
ENDBRANCH  14  15
ENDBRANCH  13  14
ENDBRANCH  10  13
ENDBRANCH   4  10
ENDBRANCH   1   7
BRANCH   1  17
ATOM     17  C   UNL     1      43.515   4.517  10.663  0.00  0.00    +0.000 C 
BRANCH  17  18
ATOM     18  N   UNL     1      43.801   3.203  10.072  0.00  0.00    +0.000 N 
ATOM     19  H   UNL     1      43.655   2.408  10.692  0.00  0.00    +0.000 HD
BRANCH  18  20
ATOM     20  C   UNL     1      44.826   3.045   9.152  0.00  0.00    +0.000 A 
ATOM     21  C   UNL     1      45.306   4.042   8.310  0.00  0.00    +0.000 A 
ATOM     22  N   UNL     1      46.219   3.866   7.333  0.00  0.00    +0.000 NA
ATOM     23  C   UNL     1      46.661   2.596   7.181  0.00  0.00    +0.000 A 
ATOM     24  N   UNL     1      46.285   1.539   7.921  0.00  0.00    +0.000 NA
ATOM     25  C   UNL     1      45.369   1.797   8.878  0.00  0.00    +0.000 A 
BRANCH  23  26
ATOM     26  C   UNL     1      47.623   2.361   6.040  0.00  0.00    +0.000 C 
ATOM     27  N   UNL     1      47.432   3.155   4.932  0.00  0.00    +0.000 N 
ATOM     28  O   UNL     1      48.523   1.525   6.053  0.00  0.00    +0.000 OA
ATOM     29  H   UNL     1      46.671   3.825   4.915  0.00  0.00    +0.000 HD
ATOM     30  H   UNL     1      48.023   3.026   4.124  0.00  0.00    +0.000 HD
ENDBRANCH  23  26
ENDBRANCH  18  20
ENDBRANCH  17  18
ENDBRANCH   1  17
TORSDOF 10
ENDMDL
MODEL 2
REMARK VINA RESULT:    -6.497      1.451      2.431
REMARK INTER + INTRA:         -11.470
REMARK INTER:                 -10.393
REMARK INTRA:                  -1.077
REMARK UNBOUND:                -1.175
REMARK  Name = 
REMARK  14 active torsions:
REMARK  status: ('A' for Active; 'I' for Inactive)
REMARK    1  A    between atoms: C_1  and  C_2
REMARK    2  A    between atoms: C_2  and  N_3
REMARK    3  A    between atoms: N_3  and  C_4
REMARK    4  A    between atoms: N_3  and  C_8
REMARK    5  A    between atoms: C_4  and  C_5
REMARK    6  A    between atoms: C_5  and  O_6
REMARK    7  A    between atoms: O_6  and  C_7
REMARK    8  A    between atoms: C_11  and  C_12
REMARK    9  A    between atoms: C_12  and  C_13
REMARK   10  A    between atoms: C_12  and  C_14
REMARK   11  A    between atoms: C_12  and  C_15
REMARK   12  A    between atoms: C_15  and  N_16
REMARK   13  A    between atoms: N_16  and  C_17
REMARK   14  A    between atoms: C_20  and  C_21
REMARK                            x       y       z     vdW  Elec       q    Type
REMARK                         _______ _______ _______ _____ _____    ______ ____
ROOT
ATOM      1  C   UNL     1      43.904   4.948  12.317  0.00  0.00    +0.000 C 
ATOM      2  C   UNL     1      42.971   4.702  13.525  0.00  0.00    +0.000 C 
ATOM      3  C   UNL     1      43.152   5.833  11.290  0.00  0.00    +0.000 C 
ENDROOT
BRANCH   1   7
ATOM      4  C   UNL     1      47.570   7.061  13.629  0.00  0.00    +0.000 A 
ATOM      5  C   UNL     1      46.484   7.742  13.064  0.00  0.00    +0.000 A 
ATOM      6  C   UNL     1      45.314   7.090  12.648  0.00  0.00    +0.000 A 
ATOM      7  C   UNL     1      45.168   5.704  12.761  0.00  0.00    +0.000 A 
ATOM      8  C   UNL     1      46.231   5.014  13.352  0.00  0.00    +0.000 A 
ATOM      9  C   UNL     1      47.384   5.680  13.791  0.00  0.00    +0.000 A 
BRANCH   4  10
ATOM     10  N   UNL     1      48.765   7.703  13.974  0.00  0.00    +0.000 N 
BRANCH  10  12
ATOM     11  C   UNL     1      48.681   9.608  15.530  0.00  0.00    +0.000 C 
ATOM     12  C   UNL     1      49.009   8.127  15.359  0.00  0.00    +0.000 C 
ENDBRANCH  10  12
BRANCH  10  13
ATOM     13  C   UNL     1      49.859   7.745  12.978  0.00  0.00    +0.000 C 
BRANCH  13  14
ATOM     14  C   UNL     1      49.877   8.920  11.995  0.00  0.00    +0.000 C 
BRANCH  14  15
ATOM     15  O   UNL     1      50.653  10.018  12.479  0.00  0.00    +0.000 OA
ATOM     16  C   UNL     1      51.989   9.611  12.750  0.00  0.00    +0.000 C 
ENDBRANCH  14  15
ENDBRANCH  13  14
ENDBRANCH  10  13
ENDBRANCH   4  10
ENDBRANCH   1   7
BRANCH   1  17
ATOM     17  C   UNL     1      44.188   3.588  11.605  0.00  0.00    +0.000 C 
BRANCH  17  18
ATOM     18  N   UNL     1      43.751   3.571  10.203  0.00  0.00    +0.000 N 
ATOM     19  H   UNL     1      42.783   3.294  10.055  0.00  0.00    +0.000 HD
BRANCH  18  20
ATOM     20  C   UNL     1      44.624   3.205   9.190  0.00  0.00    +0.000 A 
ATOM     21  C   UNL     1      45.193   1.945   9.040  0.00  0.00    +0.000 A 
ATOM     22  N   UNL     1      46.132   1.615   8.129  0.00  0.00    +0.000 NA
ATOM     23  C   UNL     1      46.538   2.629   7.330  0.00  0.00    +0.000 A 
ATOM     24  N   UNL     1      46.075   3.890   7.364  0.00  0.00    +0.000 NA
ATOM     25  C   UNL     1      45.139   4.140   8.302  0.00  0.00    +0.000 A 
BRANCH  23  26
ATOM     26  C   UNL     1      47.646   2.302   6.356  0.00  0.00    +0.000 C 
ATOM     27  N   UNL     1      47.720   3.117   5.249  0.00  0.00    +0.000 N 
ATOM     28  O   UNL     1      48.442   1.377   6.497  0.00  0.00    +0.000 OA
ATOM     29  H   UNL     1      47.044   3.862   5.123  0.00  0.00    +0.000 HD
ATOM     30  H   UNL     1      48.420   2.932   4.545  0.00  0.00    +0.000 HD
ENDBRANCH  23  26
ENDBRANCH  18  20
ENDBRANCH  17  18
ENDBRANCH   1  17
TORSDOF 10
ENDMDL
MODEL 3
REMARK VINA RESULT:    -6.192      1.855      2.134
REMARK INTER + INTRA:         -10.987
REMARK INTER:                 -10.131
REMARK INTRA:                  -0.856
REMARK UNBOUND:                -1.175
REMARK  Name = 
REMARK  14 active torsions:
REMARK  status: ('A' for Active; 'I' for Inactive)
REMARK    1  A    between atoms: C_1  and  C_2
REMARK    2  A    between atoms: C_2  and  N_3
REMARK    3  A    between atoms: N_3  and  C_4
REMARK    4  A    between atoms: N_3  and  C_8
REMARK    5  A    between atoms: C_4  and  C_5
REMARK    6  A    between atoms: C_5  and  O_6
REMARK    7  A    between atoms: O_6  and  C_7
REMARK    8  A    between atoms: C_11  and  C_12
REMARK    9  A    between atoms: C_12  and  C_13
REMARK   10  A    between atoms: C_12  and  C_14
REMARK   11  A    between atoms: C_12  and  C_15
REMARK   12  A    between atoms: C_15  and  N_16
REMARK   13  A    between atoms: N_16  and  C_17
REMARK   14  A    between atoms: C_20  and  C_21
REMARK                            x       y       z     vdW  Elec       q    Type
REMARK                         _______ _______ _______ _____ _____    ______ ____
ROOT
ATOM      1  C   UNL     1      44.050   4.717  12.230  0.00  0.00    +0.000 C 
ATOM      2  C   UNL     1      44.686   3.356  12.596  0.00  0.00    +0.000 C 
ATOM      3  C   UNL     1      42.929   5.025  13.254  0.00  0.00    +0.000 C 
ENDROOT
BRANCH   1   7
ATOM      4  C   UNL     1      47.013   8.001  12.475  0.00  0.00    +0.000 A 
ATOM      5  C   UNL     1      47.401   6.656  12.409  0.00  0.00    +0.000 A 
ATOM      6  C   UNL     1      46.476   5.605  12.326  0.00  0.00    +0.000 A 
ATOM      7  C   UNL     1      45.098   5.840  12.318  0.00  0.00    +0.000 A 
ATOM      8  C   UNL     1      44.696   7.179  12.351  0.00  0.00    +0.000 A 
ATOM      9  C   UNL     1      45.630   8.223  12.405  0.00  0.00    +0.000 A 
BRANCH   4  10
ATOM     10  N   UNL     1      47.934   9.044  12.633  0.00  0.00    +0.000 N 
BRANCH  10  12
ATOM     11  C   UNL     1      47.230  11.340  12.093  0.00  0.00    +0.000 C 
ATOM     12  C   UNL     1      48.021  10.117  11.635  0.00  0.00    +0.000 C 
ENDBRANCH  10  12
BRANCH  10  13
ATOM     13  C   UNL     1      48.654   9.162  13.920  0.00  0.00    +0.000 C 
BRANCH  13  14
ATOM     14  C   UNL     1      50.041   9.813  13.900  0.00  0.00    +0.000 C 
BRANCH  14  15
ATOM     15  O   UNL     1      50.346  10.473  15.131  0.00  0.00    +0.000 OA
ATOM     16  C   UNL     1      49.238  11.247  15.575  0.00  0.00    +0.000 C 
ENDBRANCH  14  15
ENDBRANCH  13  14
ENDBRANCH  10  13
ENDBRANCH   4  10
ENDBRANCH   1   7
BRANCH   1  17
ATOM     17  C   UNL     1      43.356   4.598  10.835  0.00  0.00    +0.000 C 
BRANCH  17  18
ATOM     18  N   UNL     1      44.173   5.134   9.740  0.00  0.00    +0.000 N 
ATOM     19  H   UNL     1      43.718   5.843   9.167  0.00  0.00    +0.000 HD
BRANCH  18  20
ATOM     20  C   UNL     1      45.074   4.326   9.062  0.00  0.00    +0.000 A 
ATOM     21  C   UNL     1      46.001   4.772   8.126  0.00  0.00    +0.000 A 
ATOM     22  N   UNL     1      46.798   3.981   7.379  0.00  0.00    +0.000 NA
ATOM     23  C   UNL     1      46.634   2.652   7.574  0.00  0.00    +0.000 A 
ATOM     24  N   UNL     1      45.780   2.084   8.442  0.00  0.00    +0.000 NA
ATOM     25  C   UNL     1      45.018   2.943   9.152  0.00  0.00    +0.000 A 
BRANCH  23  26
ATOM     26  C   UNL     1      47.459   1.746   6.690  0.00  0.00    +0.000 C 
ATOM     27  N   UNL     1      48.543   2.339   6.083  0.00  0.00    +0.000 N 
ATOM     28  O   UNL     1      47.210   0.560   6.489  0.00  0.00    +0.000 OA
ATOM     29  H   UNL     1      48.729   3.324   6.231  0.00  0.00    +0.000 HD
ATOM     30  H   UNL     1      49.117   1.795   5.456  0.00  0.00    +0.000 HD
ENDBRANCH  23  26
ENDBRANCH  18  20
ENDBRANCH  17  18
ENDBRANCH   1  17
TORSDOF 10
ENDMDL
MODEL 4
REMARK VINA RESULT:    -6.183      2.861      8.162
REMARK INTER + INTRA:         -10.973
REMARK INTER:                  -9.729
REMARK INTRA:                  -1.244
REMARK UNBOUND:                -1.175
REMARK  Name = 
REMARK  14 active torsions:
REMARK  status: ('A' for Active; 'I' for Inactive)
REMARK    1  A    between atoms: C_1  and  C_2
REMARK    2  A    between atoms: C_2  and  N_3
REMARK    3  A    between atoms: N_3  and  C_4
REMARK    4  A    between atoms: N_3  and  C_8
REMARK    5  A    between atoms: C_4  and  C_5
REMARK    6  A    between atoms: C_5  and  O_6
REMARK    7  A    between atoms: O_6  and  C_7
REMARK    8  A    between atoms: C_11  and  C_12
REMARK    9  A    between atoms: C_12  and  C_13
REMARK   10  A    between atoms: C_12  and  C_14
REMARK   11  A    between atoms: C_12  and  C_15
REMARK   12  A    between atoms: C_15  and  N_16
REMARK   13  A    between atoms: N_16  and  C_17
REMARK   14  A    between atoms: C_20  and  C_21
REMARK                            x       y       z     vdW  Elec       q    Type
REMARK                         _______ _______ _______ _____ _____    ______ ____
ROOT
ATOM      1  C   UNL     1      48.246   9.113  12.574  0.00  0.00    +0.000 C 
ATOM      2  C   UNL     1      49.548   8.729  11.833  0.00  0.00    +0.000 C 
ATOM      3  C   UNL     1      47.866  10.562  12.175  0.00  0.00    +0.000 C 
ENDROOT
BRANCH   1   7
ATOM      4  C   UNL     1      44.981   6.390  11.332  0.00  0.00    +0.000 A 
ATOM      5  C   UNL     1      44.726   7.680  11.814  0.00  0.00    +0.000 A 
ATOM      6  C   UNL     1      45.749   8.557  12.207  0.00  0.00    +0.000 A 
ATOM      7  C   UNL     1      47.095   8.185  12.152  0.00  0.00    +0.000 A 
ATOM      8  C   UNL     1      47.367   6.910  11.643  0.00  0.00    +0.000 A 
ATOM      9  C   UNL     1      46.339   6.053  11.226  0.00  0.00    +0.000 A 
BRANCH   4  10
ATOM     10  N   UNL     1      43.958   5.489  11.011  0.00  0.00    +0.000 N 
BRANCH  10  12
ATOM     11  C   UNL     1      42.886   4.788  13.112  0.00  0.00    +0.000 C 
ATOM     12  C   UNL     1      42.701   5.490  11.770  0.00  0.00    +0.000 C 
ENDBRANCH  10  12
BRANCH  10  13
ATOM     13  C   UNL     1      44.077   4.698   9.766  0.00  0.00    +0.000 C 
BRANCH  13  14
ATOM     14  C   UNL     1      44.071   3.171   9.892  0.00  0.00    +0.000 C 
BRANCH  14  15
ATOM     15  O   UNL     1      45.388   2.619   9.837  0.00  0.00    +0.000 OA
ATOM     16  C   UNL     1      45.551   1.822   8.670  0.00  0.00    +0.000 C 
ENDBRANCH  14  15
ENDBRANCH  13  14
ENDBRANCH  10  13
ENDBRANCH   4  10
ENDBRANCH   1   7
BRANCH   1  17
ATOM     17  C   UNL     1      48.521   9.135  14.111  0.00  0.00    +0.000 C 
BRANCH  17  18
ATOM     18  N   UNL     1      49.321   7.991  14.567  0.00  0.00    +0.000 N 
ATOM     19  H   UNL     1      50.025   7.664  13.908  0.00  0.00    +0.000 HD
BRANCH  18  20
ATOM     20  C   UNL     1      48.760   7.001  15.360  0.00  0.00    +0.000 A 
ATOM     21  C   UNL     1      48.886   6.917  16.742  0.00  0.00    +0.000 A 
ATOM     22  N   UNL     1      48.444   5.896  17.506  0.00  0.00    +0.000 NA
ATOM     23  C   UNL     1      47.856   4.884  16.827  0.00  0.00    +0.000 A 
ATOM     24  N   UNL     1      47.668   4.834  15.498  0.00  0.00    +0.000 NA
ATOM     25  C   UNL     1      48.137   5.892  14.805  0.00  0.00    +0.000 A 
BRANCH  23  26
ATOM     26  C   UNL     1      47.426   3.694  17.653  0.00  0.00    +0.000 C 
ATOM     27  N   UNL     1      48.178   3.454  18.781  0.00  0.00    +0.000 N 
ATOM     28  O   UNL     1      46.484   2.958  17.371  0.00  0.00    +0.000 OA
ATOM     29  H   UNL     1      48.971   4.048  18.995  0.00  0.00    +0.000 HD
ATOM     30  H   UNL     1      47.961   2.656  19.359  0.00  0.00    +0.000 HD
ENDBRANCH  23  26
ENDBRANCH  18  20
ENDBRANCH  17  18
ENDBRANCH   1  17
TORSDOF 10
ENDMDL
MODEL 5
REMARK VINA RESULT:    -6.073      2.281      3.674
REMARK INTER + INTRA:         -10.798
REMARK INTER:                 -10.033
REMARK INTRA:                  -0.765
REMARK UNBOUND:                -1.175
REMARK  Name = 
REMARK  14 active torsions:
REMARK  status: ('A' for Active; 'I' for Inactive)
REMARK    1  A    between atoms: C_1  and  C_2
REMARK    2  A    between atoms: C_2  and  N_3
REMARK    3  A    between atoms: N_3  and  C_4
REMARK    4  A    between atoms: N_3  and  C_8
REMARK    5  A    between atoms: C_4  and  C_5
REMARK    6  A    between atoms: C_5  and  O_6
REMARK    7  A    between atoms: O_6  and  C_7
REMARK    8  A    between atoms: C_11  and  C_12
REMARK    9  A    between atoms: C_12  and  C_13
REMARK   10  A    between atoms: C_12  and  C_14
REMARK   11  A    between atoms: C_12  and  C_15
REMARK   12  A    between atoms: C_15  and  N_16
REMARK   13  A    between atoms: N_16  and  C_17
REMARK   14  A    between atoms: C_20  and  C_21
REMARK                            x       y       z     vdW  Elec       q    Type
REMARK                         _______ _______ _______ _____ _____    ______ ____
ROOT
ATOM      1  C   UNL     1      45.994   6.254  12.290  0.00  0.00    +0.000 C 
ATOM      2  C   UNL     1      45.125   7.498  12.586  0.00  0.00    +0.000 C 
ATOM      3  C   UNL     1      47.062   6.643  11.236  0.00  0.00    +0.000 C 
ENDROOT
BRANCH   1   7
ATOM      4  C   UNL     1      48.150   4.989  15.947  0.00  0.00    +0.000 A 
ATOM      5  C   UNL     1      47.119   4.220  15.391  0.00  0.00    +0.000 A 
ATOM      6  C   UNL     1      46.430   4.604  14.231  0.00  0.00    +0.000 A 
ATOM      7  C   UNL     1      46.725   5.795  13.563  0.00  0.00    +0.000 A 
ATOM      8  C   UNL     1      47.773   6.558  14.088  0.00  0.00    +0.000 A 
ATOM      9  C   UNL     1      48.475   6.152  15.232  0.00  0.00    +0.000 A 
BRANCH   4  10
ATOM     10  N   UNL     1      48.786   4.643  17.146  0.00  0.00    +0.000 N 
BRANCH  10  12
ATOM     11  C   UNL     1      49.748   2.378  17.155  0.00  0.00    +0.000 C 
ATOM     12  C   UNL     1      48.650   3.289  17.697  0.00  0.00    +0.000 C 
ENDBRANCH  10  12
BRANCH  10  13
ATOM     13  C   UNL     1      49.767   5.589  17.724  0.00  0.00    +0.000 C 
BRANCH  13  14
ATOM     14  C   UNL     1      49.253   6.607  18.747  0.00  0.00    +0.000 C 
BRANCH  14  15
ATOM     15  O   UNL     1      48.629   5.978  19.869  0.00  0.00    +0.000 OA
ATOM     16  C   UNL     1      49.555   5.819  20.937  0.00  0.00    +0.000 C 
ENDBRANCH  14  15
ENDBRANCH  13  14
ENDBRANCH  10  13
ENDBRANCH   4  10
ENDBRANCH   1   7
BRANCH   1  17
ATOM     17  C   UNL     1      45.103   5.153  11.632  0.00  0.00    +0.000 C 
BRANCH  17  18
ATOM     18  N   UNL     1      44.917   5.352  10.189  0.00  0.00    +0.000 N 
ATOM     19  H   UNL     1      44.036   5.788   9.921  0.00  0.00    +0.000 HD
BRANCH  18  20
ATOM     20  C   UNL     1      45.416   4.436   9.274  0.00  0.00    +0.000 A 
ATOM     21  C   UNL     1      45.413   3.056   9.441  0.00  0.00    +0.000 A 
ATOM     22  N   UNL     1      46.000   2.168   8.613  0.00  0.00    +0.000 NA
ATOM     23  C   UNL     1      46.652   2.711   7.559  0.00  0.00    +0.000 A 
ATOM     24  N   UNL     1      46.736   4.021   7.276  0.00  0.00    +0.000 NA
ATOM     25  C   UNL     1      46.122   4.844   8.151  0.00  0.00    +0.000 A 
BRANCH  23  26
ATOM     26  C   UNL     1      47.386   1.740   6.663  0.00  0.00    +0.000 C 
ATOM     27  N   UNL     1      48.392   2.285   5.898  0.00  0.00    +0.000 N 
ATOM     28  O   UNL     1      47.129   0.541   6.583  0.00  0.00    +0.000 OA
ATOM     29  H   UNL     1      48.582   3.279   5.947  0.00  0.00    +0.000 HD
ATOM     30  H   UNL     1      48.900   1.695   5.256  0.00  0.00    +0.000 HD
ENDBRANCH  23  26
ENDBRANCH  18  20
ENDBRANCH  17  18
ENDBRANCH   1  17
TORSDOF 10
ENDMDL
MODEL 6
REMARK VINA RESULT:    -5.670      3.365      8.151
REMARK INTER + INTRA:         -10.159
REMARK INTER:                  -8.950
REMARK INTRA:                  -1.209
REMARK UNBOUND:                -1.175
REMARK  Name = 
REMARK  14 active torsions:
REMARK  status: ('A' for Active; 'I' for Inactive)
REMARK    1  A    between atoms: C_1  and  C_2
REMARK    2  A    between atoms: C_2  and  N_3
REMARK    3  A    between atoms: N_3  and  C_4
REMARK    4  A    between atoms: N_3  and  C_8
REMARK    5  A    between atoms: C_4  and  C_5
REMARK    6  A    between atoms: C_5  and  O_6
REMARK    7  A    between atoms: O_6  and  C_7
REMARK    8  A    between atoms: C_11  and  C_12
REMARK    9  A    between atoms: C_12  and  C_13
REMARK   10  A    between atoms: C_12  and  C_14
REMARK   11  A    between atoms: C_12  and  C_15
REMARK   12  A    between atoms: C_15  and  N_16
REMARK   13  A    between atoms: N_16  and  C_17
REMARK   14  A    between atoms: C_20  and  C_21
REMARK                            x       y       z     vdW  Elec       q    Type
REMARK                         _______ _______ _______ _____ _____    ______ ____
ROOT
ATOM      1  C   UNL     1      48.595   9.615  13.350  0.00  0.00    +0.000 C 
ATOM      2  C   UNL     1      50.015   9.432  12.768  0.00  0.00    +0.000 C 
ATOM      3  C   UNL     1      48.091  11.032  12.975  0.00  0.00    +0.000 C 
ENDROOT
BRANCH   1   7
ATOM      4  C   UNL     1      45.754   6.687  11.623  0.00  0.00    +0.000 A 
ATOM      5  C   UNL     1      47.135   6.596  11.407  0.00  0.00    +0.000 A 
ATOM      6  C   UNL     1      48.048   7.512  11.950  0.00  0.00    +0.000 A 
ATOM      7  C   UNL     1      47.628   8.588  12.736  0.00  0.00    +0.000 A 
ATOM      8  C   UNL     1      46.254   8.675  12.987  0.00  0.00    +0.000 A 
ATOM      9  C   UNL     1      45.353   7.738  12.462  0.00  0.00    +0.000 A 
BRANCH   4  10
ATOM     10  N   UNL     1      44.837   5.818  11.020  0.00  0.00    +0.000 N 
BRANCH  10  12
ATOM     11  C   UNL     1      44.151   4.409   9.122  0.00  0.00    +0.000 C 
ATOM     12  C   UNL     1      45.292   4.812  10.051  0.00  0.00    +0.000 C 
ENDBRANCH  10  12
BRANCH  10  13
ATOM     13  C   UNL     1      43.451   5.782  11.536  0.00  0.00    +0.000 C 
BRANCH  13  14
ATOM     14  C   UNL     1      43.205   5.044  12.856  0.00  0.00    +0.000 C 
BRANCH  14  15
ATOM     15  O   UNL     1      44.053   3.903  13.004  0.00  0.00    +0.000 OA
ATOM     16  C   UNL     1      43.490   2.769  12.356  0.00  0.00    +0.000 C 
ENDBRANCH  14  15
ENDBRANCH  13  14
ENDBRANCH  10  13
ENDBRANCH   4  10
ENDBRANCH   1   7
BRANCH   1  17
ATOM     17  C   UNL     1      48.671   9.571  14.909  0.00  0.00    +0.000 C 
BRANCH  17  18
ATOM     18  N   UNL     1      49.505   8.471  15.412  0.00  0.00    +0.000 N 
ATOM     19  H   UNL     1      50.343   8.280  14.867  0.00  0.00    +0.000 HD
BRANCH  18  20
ATOM     20  C   UNL     1      48.932   7.360  16.011  0.00  0.00    +0.000 A 
ATOM     21  C   UNL     1      48.802   7.168  17.382  0.00  0.00    +0.000 A 
ATOM     22  N   UNL     1      48.355   6.041  17.974  0.00  0.00    +0.000 NA
ATOM     23  C   UNL     1      48.037   5.035  17.127  0.00  0.00    +0.000 A 
ATOM     24  N   UNL     1      48.113   5.082  15.786  0.00  0.00    +0.000 NA
ATOM     25  C   UNL     1      48.569   6.243  15.271  0.00  0.00    +0.000 A 
BRANCH  23  26
ATOM     26  C   UNL     1      47.611   3.736  17.772  0.00  0.00    +0.000 C 
ATOM     27  N   UNL     1      48.370   3.332  18.846  0.00  0.00    +0.000 N 
ATOM     28  O   UNL     1      46.665   3.051  17.391  0.00  0.00    +0.000 OA
ATOM     29  H   UNL     1      49.166   3.887  19.140  0.00  0.00    +0.000 HD
ATOM     30  H   UNL     1      48.156   2.458  19.302  0.00  0.00    +0.000 HD
ENDBRANCH  23  26
ENDBRANCH  18  20
ENDBRANCH  17  18
ENDBRANCH   1  17
TORSDOF 10
ENDMDL
MODEL 7
REMARK VINA RESULT:    -5.434      4.460      7.240
REMARK INTER + INTRA:          -9.785
REMARK INTER:                  -8.853
REMARK INTRA:                  -0.931
REMARK UNBOUND:                -1.175
REMARK  Name = 
REMARK  14 active torsions:
REMARK  status: ('A' for Active; 'I' for Inactive)
REMARK    1  A    between atoms: C_1  and  C_2
REMARK    2  A    between atoms: C_2  and  N_3
REMARK    3  A    between atoms: N_3  and  C_4
REMARK    4  A    between atoms: N_3  and  C_8
REMARK    5  A    between atoms: C_4  and  C_5
REMARK    6  A    between atoms: C_5  and  O_6
REMARK    7  A    between atoms: O_6  and  C_7
REMARK    8  A    between atoms: C_11  and  C_12
REMARK    9  A    between atoms: C_12  and  C_13
REMARK   10  A    between atoms: C_12  and  C_14
REMARK   11  A    between atoms: C_12  and  C_15
REMARK   12  A    between atoms: C_15  and  N_16
REMARK   13  A    between atoms: N_16  and  C_17
REMARK   14  A    between atoms: C_20  and  C_21
REMARK                            x       y       z     vdW  Elec       q    Type
REMARK                         _______ _______ _______ _____ _____    ______ ____
ROOT
ATOM      1  C   UNL     1      48.081   4.127  17.210  0.00  0.00    +0.000 C 
ATOM      2  C   UNL     1      47.196   2.878  17.426  0.00  0.00    +0.000 C 
ATOM      3  C   UNL     1      47.687   5.194  18.263  0.00  0.00    +0.000 C 
ENDROOT
BRANCH   1   7
ATOM      4  C   UNL     1      52.369   3.189  17.810  0.00  0.00    +0.000 A 
ATOM      5  C   UNL     1      51.412   2.186  17.609  0.00  0.00    +0.000 A 
ATOM      6  C   UNL     1      50.051   2.465  17.413  0.00  0.00    +0.000 A 
ATOM      7  C   UNL     1      49.564   3.776  17.420  0.00  0.00    +0.000 A 
ATOM      8  C   UNL     1      50.512   4.790  17.588  0.00  0.00    +0.000 A 
ATOM      9  C   UNL     1      51.874   4.500  17.755  0.00  0.00    +0.000 A 
BRANCH   4  10
ATOM     10  N   UNL     1      53.713   2.905  18.080  0.00  0.00    +0.000 N 
BRANCH  10  12
ATOM     11  C   UNL     1      53.838   3.413  20.485  0.00  0.00    +0.000 C 
ATOM     12  C   UNL     1      54.442   3.662  19.105  0.00  0.00    +0.000 C 
ENDBRANCH  10  12
BRANCH  10  13
ATOM     13  C   UNL     1      54.315   1.695  17.477  0.00  0.00    +0.000 C 
BRANCH  13  14
ATOM     14  C   UNL     1      55.149   0.789  18.387  0.00  0.00    +0.000 C 
BRANCH  14  15
ATOM     15  O   UNL     1      54.334  -0.025  19.234  0.00  0.00    +0.000 OA
ATOM     16  C   UNL     1      54.186  -1.330  18.688  0.00  0.00    +0.000 C 
ENDBRANCH  14  15
ENDBRANCH  13  14
ENDBRANCH  10  13
ENDBRANCH   4  10
ENDBRANCH   1   7
BRANCH   1  17
ATOM     17  C   UNL     1      47.761   4.745  15.812  0.00  0.00    +0.000 C 
BRANCH  17  18
ATOM     18  N   UNL     1      47.172   3.777  14.878  0.00  0.00    +0.000 N 
ATOM     19  H   UNL     1      47.744   2.956  14.686  0.00  0.00    +0.000 HD
BRANCH  18  20
ATOM     20  C   UNL     1      46.384   4.199  13.818  0.00  0.00    +0.000 A 
ATOM     21  C   UNL     1      45.884   5.486  13.656  0.00  0.00    +0.000 A 
ATOM     22  N   UNL     1      45.023   5.874  12.693  0.00  0.00    +0.000 NA
ATOM     23  C   UNL     1      44.624   4.893  11.851  0.00  0.00    +0.000 A 
ATOM     24  N   UNL     1      45.025   3.612  11.890  0.00  0.00    +0.000 NA
ATOM     25  C   UNL     1      45.887   3.304  12.882  0.00  0.00    +0.000 A 
BRANCH  23  26
ATOM     26  C   UNL     1      43.597   5.287  10.814  0.00  0.00    +0.000 C 
ATOM     27  N   UNL     1      42.802   6.360  11.148  0.00  0.00    +0.000 N 
ATOM     28  O   UNL     1      43.441   4.713   9.740  0.00  0.00    +0.000 OA
ATOM     29  H   UNL     1      42.916   6.814  12.047  0.00  0.00    +0.000 HD
ATOM     30  H   UNL     1      42.076   6.654  10.511  0.00  0.00    +0.000 HD
ENDBRANCH  23  26
ENDBRANCH  18  20
ENDBRANCH  17  18
ENDBRANCH   1  17
TORSDOF 10
ENDMDL
MODEL 8
REMARK VINA RESULT:    -5.399      2.698      8.419
REMARK INTER + INTRA:          -9.730
REMARK INTER:                  -8.728
REMARK INTRA:                  -1.003
REMARK UNBOUND:                -1.175
REMARK  Name = 
REMARK  14 active torsions:
REMARK  status: ('A' for Active; 'I' for Inactive)
REMARK    1  A    between atoms: C_1  and  C_2
REMARK    2  A    between atoms: C_2  and  N_3
REMARK    3  A    between atoms: N_3  and  C_4
REMARK    4  A    between atoms: N_3  and  C_8
REMARK    5  A    between atoms: C_4  and  C_5
REMARK    6  A    between atoms: C_5  and  O_6
REMARK    7  A    between atoms: O_6  and  C_7
REMARK    8  A    between atoms: C_11  and  C_12
REMARK    9  A    between atoms: C_12  and  C_13
REMARK   10  A    between atoms: C_12  and  C_14
REMARK   11  A    between atoms: C_12  and  C_15
REMARK   12  A    between atoms: C_15  and  N_16
REMARK   13  A    between atoms: N_16  and  C_17
REMARK   14  A    between atoms: C_20  and  C_21
REMARK                            x       y       z     vdW  Elec       q    Type
REMARK                         _______ _______ _______ _____ _____    ______ ____
ROOT
ATOM      1  C   UNL     1      48.242   9.023  12.719  0.00  0.00    +0.000 C 
ATOM      2  C   UNL     1      49.523   8.764  11.892  0.00  0.00    +0.000 C 
ATOM      3  C   UNL     1      47.653  10.392  12.294  0.00  0.00    +0.000 C 
ENDROOT
BRANCH   1   7
ATOM      4  C   UNL     1      45.155   5.956  11.889  0.00  0.00    +0.000 A 
ATOM      5  C   UNL     1      46.485   5.613  12.167  0.00  0.00    +0.000 A 
ATOM      6  C   UNL     1      47.474   6.571  12.436  0.00  0.00    +0.000 A 
ATOM      7  C   UNL     1      47.189   7.940  12.430  0.00  0.00    +0.000 A 
ATOM      8  C   UNL     1      45.859   8.296  12.186  0.00  0.00    +0.000 A 
ATOM      9  C   UNL     1      44.873   7.329  11.946  0.00  0.00    +0.000 A 
BRANCH   4  10
ATOM     10  N   UNL     1      44.187   5.005  11.547  0.00  0.00    +0.000 N 
BRANCH  10  12
ATOM     11  C   UNL     1      43.521   2.823  12.470  0.00  0.00    +0.000 C 
ATOM     12  C   UNL     1      43.397   4.339  12.590  0.00  0.00    +0.000 C 
ENDBRANCH  10  12
BRANCH  10  13
ATOM     13  C   UNL     1      43.824   4.847  10.121  0.00  0.00    +0.000 C 
BRANCH  13  14
ATOM     14  C   UNL     1      44.790   4.063   9.226  0.00  0.00    +0.000 C 
BRANCH  14  15
ATOM     15  O   UNL     1      44.514   2.661   9.230  0.00  0.00    +0.000 OA
ATOM     16  C   UNL     1      45.564   1.938   8.600  0.00  0.00    +0.000 C 
ENDBRANCH  14  15
ENDBRANCH  13  14
ENDBRANCH  10  13
ENDBRANCH   4  10
ENDBRANCH   1   7
BRANCH   1  17
ATOM     17  C   UNL     1      48.627   9.156  14.227  0.00  0.00    +0.000 C 
BRANCH  17  18
ATOM     18  N   UNL     1      49.875   8.459  14.565  0.00  0.00    +0.000 N 
ATOM     19  H   UNL     1      50.606   8.514  13.858  0.00  0.00    +0.000 HD
BRANCH  18  20
ATOM     20  C   UNL     1      49.857   7.281  15.296  0.00  0.00    +0.000 A 
ATOM     21  C   UNL     1      48.719   6.533  15.579  0.00  0.00    +0.000 A 
ATOM     22  N   UNL     1      48.676   5.452  16.386  0.00  0.00    +0.000 NA
ATOM     23  C   UNL     1      49.854   5.118  16.962  0.00  0.00    +0.000 A 
ATOM     24  N   UNL     1      51.026   5.749  16.778  0.00  0.00    +0.000 NA
ATOM     25  C   UNL     1      50.986   6.819  15.957  0.00  0.00    +0.000 A 
BRANCH  23  26
ATOM     26  C   UNL     1      49.812   3.961  17.932  0.00  0.00    +0.000 C 
ATOM     27  N   UNL     1      50.210   4.252  19.217  0.00  0.00    +0.000 N 
ATOM     28  O   UNL     1      49.464   2.821  17.636  0.00  0.00    +0.000 OA
ATOM     29  H   UNL     1      50.523   5.188  19.450  0.00  0.00    +0.000 HD
ATOM     30  H   UNL     1      50.234   3.515  19.906  0.00  0.00    +0.000 HD
ENDBRANCH  23  26
ENDBRANCH  18  20
ENDBRANCH  17  18
ENDBRANCH   1  17
TORSDOF 10
ENDMDL
MODEL 9
REMARK VINA RESULT:    -5.267      3.169      5.606
REMARK INTER + INTRA:          -9.521
REMARK INTER:                  -8.384
REMARK INTRA:                  -1.138
REMARK UNBOUND:                -1.175
REMARK  Name = 
REMARK  14 active torsions:
REMARK  status: ('A' for Active; 'I' for Inactive)
REMARK    1  A    between atoms: C_1  and  C_2
REMARK    2  A    between atoms: C_2  and  N_3
REMARK    3  A    between atoms: N_3  and  C_4
REMARK    4  A    between atoms: N_3  and  C_8
REMARK    5  A    between atoms: C_4  and  C_5
REMARK    6  A    between atoms: C_5  and  O_6
REMARK    7  A    between atoms: O_6  and  C_7
REMARK    8  A    between atoms: C_11  and  C_12
REMARK    9  A    between atoms: C_12  and  C_13
REMARK   10  A    between atoms: C_12  and  C_14
REMARK   11  A    between atoms: C_12  and  C_15
REMARK   12  A    between atoms: C_15  and  N_16
REMARK   13  A    between atoms: N_16  and  C_17
REMARK   14  A    between atoms: C_20  and  C_21
REMARK                            x       y       z     vdW  Elec       q    Type
REMARK                         _______ _______ _______ _____ _____    ______ ____
ROOT
ATOM      1  C   UNL     1      48.190   8.581  12.701  0.00  0.00    +0.000 C 
ATOM      2  C   UNL     1      48.687  10.004  12.357  0.00  0.00    +0.000 C 
ATOM      3  C   UNL     1      48.946   7.568  11.805  0.00  0.00    +0.000 C 
ENDROOT
BRANCH   1   7
ATOM      4  C   UNL     1      49.103   7.541  16.910  0.00  0.00    +0.000 A 
ATOM      5  C   UNL     1      48.579   8.790  16.552  0.00  0.00    +0.000 A 
ATOM      6  C   UNL     1      48.279   9.133  15.225  0.00  0.00    +0.000 A 
ATOM      7  C   UNL     1      48.503   8.245  14.170  0.00  0.00    +0.000 A 
ATOM      8  C   UNL     1      48.997   6.983  14.515  0.00  0.00    +0.000 A 
ATOM      9  C   UNL     1      49.266   6.639  15.847  0.00  0.00    +0.000 A 
BRANCH   4  10
ATOM     10  N   UNL     1      49.472   7.226  18.223  0.00  0.00    +0.000 N 
BRANCH  10  12
ATOM     11  C   UNL     1      51.807   8.000  18.144  0.00  0.00    +0.000 C 
ATOM     12  C   UNL     1      50.493   8.019  18.920  0.00  0.00    +0.000 C 
ENDBRANCH  10  12
BRANCH  10  13
ATOM     13  C   UNL     1      48.664   6.232  18.965  0.00  0.00    +0.000 C 
BRANCH  13  14
ATOM     14  C   UNL     1      49.295   4.862  19.231  0.00  0.00    +0.000 C 
BRANCH  14  15
ATOM     15  O   UNL     1      48.502   3.792  18.712  0.00  0.00    +0.000 OA
ATOM     16  C   UNL     1      49.093   3.250  17.537  0.00  0.00    +0.000 C 
ENDBRANCH  14  15
ENDBRANCH  13  14
ENDBRANCH  10  13
ENDBRANCH   4  10
ENDBRANCH   1   7
BRANCH   1  17
ATOM     17  C   UNL     1      46.678   8.463  12.326  0.00  0.00    +0.000 C 
BRANCH  17  18
ATOM     18  N   UNL     1      45.925   7.600  13.244  0.00  0.00    +0.000 N 
ATOM     19  H   UNL     1      46.290   7.555  14.194  0.00  0.00    +0.000 HD
BRANCH  18  20
ATOM     20  C   UNL     1      45.324   6.434  12.794  0.00  0.00    +0.000 A 
ATOM     21  C   UNL     1      45.273   5.237  13.500  0.00  0.00    +0.000 A 
ATOM     22  N   UNL     1      44.796   4.069  13.022  0.00  0.00    +0.000 NA
ATOM     23  C   UNL     1      44.361   4.107  11.742  0.00  0.00    +0.000 A 
ATOM     24  N   UNL     1      44.350   5.190  10.947  0.00  0.00    +0.000 NA
ATOM     25  C   UNL     1      44.843   6.319  11.497  0.00  0.00    +0.000 A 
BRANCH  23  26
ATOM     26  C   UNL     1      43.897   2.792  11.160  0.00  0.00    +0.000 C 
ATOM     27  N   UNL     1      44.610   2.341  10.073  0.00  0.00    +0.000 N 
ATOM     28  O   UNL     1      42.948   2.140  11.590  0.00  0.00    +0.000 OA
ATOM     29  H   UNL     1      45.375   2.895   9.705  0.00  0.00    +0.000 HD
ATOM     30  H   UNL     1      44.331   1.483   9.620  0.00  0.00    +0.000 HD
ENDBRANCH  23  26
ENDBRANCH  18  20
ENDBRANCH  17  18
ENDBRANCH   1  17
TORSDOF 10
ENDMDL
