MODEL 1
REMARK VINA RESULT:    -7.658      0.000      0.000
REMARK INTER + INTRA:          -9.965
REMARK INTER:                  -9.448
REMARK INTRA:                  -0.516
REMARK UNBOUND:                -0.516
REMARK  Name = 
REMARK  6 active torsions:
REMARK  status: ('A' for Active; 'I' for Inactive)
REMARK    1  A    between atoms: C_1  and  C_2
REMARK    2  A    between atoms: C_2  and  C_3
REMARK    3  A    between atoms: C_2  and  C_4
REMARK    4  A    between atoms: C_2  and  C_18
REMARK    5  A    between atoms: C_4  and  N_5
REMARK    6  A    between atoms: C_10  and  C_11
REMARK                            x       y       z     vdW  Elec       q    Type
REMARK                         _______ _______ _______ _____ _____    ______ ____
ROOT
ATOM      1  N   UNL     1      46.255   5.142  11.849  0.00  0.00    +0.000 N 
ATOM      2  C   UNL     1      46.938   5.753  12.885  0.00  0.00    +0.000 A 
ATOM      3  N   UNL     1      47.296   7.021  12.647  0.00  0.00    +0.000 NA
ATOM      4  C   UNL     1      48.011   7.638  13.602  0.00  0.00    +0.000 A 
ATOM      5  C   UNL     1      48.362   7.041  14.786  0.00  0.00    +0.000 A 
ATOM      6  C   UNL     1      47.932   5.742  14.966  0.00  0.00    +0.000 A 
ATOM      7  N   UNL     1      47.220   5.094  14.013  0.00  0.00    +0.000 NA
ATOM      8  H   UNL     1      45.896   5.911  11.292  0.00  0.00    +0.000 HD
ENDROOT
BRANCH   6   9
ATOM      9  C   UNL     1      48.227   4.958  16.187  0.00  0.00    +0.000 A 
ATOM     10  C   UNL     1      47.587   3.737  16.470  0.00  0.00    +0.000 A 
ATOM     11  C   UNL     1      47.874   3.015  17.634  0.00  0.00    +0.000 A 
ATOM     12  C   UNL     1      48.813   3.496  18.541  0.00  0.00    +0.000 A 
ATOM     13  C   UNL     1      49.467   4.696  18.284  0.00  0.00    +0.000 A 
ATOM     14  C   UNL     1      49.177   5.415  17.120  0.00  0.00    +0.000 A 
ENDBRANCH   6   9
BRANCH   1  15
ATOM     15  C   UNL     1      45.263   4.143  12.224  0.00  0.00    +0.000 C 
BRANCH  15  17
ATOM     16  C   UNL     1      43.149   2.895  11.539  0.00  0.00    +0.000 C 
ATOM     17  C   UNL     1      44.201   3.941  11.090  0.00  0.00    +0.000 C 
ATOM     18  C   UNL     1      43.421   5.273  10.933  0.00  0.00    +0.000 C 
BRANCH  17  19
ATOM     19  C   UNL     1      44.908   3.529   9.776  0.00  0.00    +0.000 A 
ATOM     20  C   UNL     1      45.383   4.484   8.857  0.00  0.00    +0.000 A 
ATOM     21  C   UNL     1      46.092   4.102   7.711  0.00  0.00    +0.000 A 
ATOM     22  C   UNL     1      46.352   2.758   7.469  0.00  0.00    +0.000 A 
ATOM     23 CL   UNL     1      47.255   2.293   6.081  0.00  0.00    +0.000 Cl
ATOM     24  C   UNL     1      45.895   1.791   8.353  0.00  0.00    +0.000 A 
ATOM     25  C   UNL     1      45.176   2.174   9.490  0.00  0.00    +0.000 A 
ENDBRANCH  17  19
ENDBRANCH  15  17
ENDBRANCH   1  15
TORSDOF 4
ENDMDL
MODEL 2
REMARK VINA RESULT:    -7.492      1.362      3.266
REMARK INTER + INTRA:          -9.761
REMARK INTER:                  -9.103
REMARK INTRA:                  -0.657
REMARK UNBOUND:                -0.516
REMARK  Name = 
REMARK  6 active torsions:
REMARK  status: ('A' for Active; 'I' for Inactive)
REMARK    1  A    between atoms: C_1  and  C_2
REMARK    2  A    between atoms: C_2  and  C_3
REMARK    3  A    between atoms: C_2  and  C_4
REMARK    4  A    between atoms: C_2  and  C_18
REMARK    5  A    between atoms: C_4  and  N_5
REMARK    6  A    between atoms: C_10  and  C_11
REMARK                            x       y       z     vdW  Elec       q    Type
REMARK                         _______ _______ _______ _____ _____    ______ ____
ROOT
ATOM      1  N   UNL     1      45.434   4.371  13.422  0.00  0.00    +0.000 N 
ATOM      2  C   UNL     1      46.467   4.726  14.270  0.00  0.00    +0.000 A 
ATOM      3  N   UNL     1      46.687   3.868  15.273  0.00  0.00    +0.000 NA
ATOM      4  C   UNL     1      47.643   4.199  16.156  0.00  0.00    +0.000 A 
ATOM      5  C   UNL     1      48.395   5.343  16.060  0.00  0.00    +0.000 A 
ATOM      6  C   UNL     1      48.125   6.162  14.982  0.00  0.00    +0.000 A 
ATOM      7  N   UNL     1      47.157   5.856  14.085  0.00  0.00    +0.000 NA
ATOM      8  H   UNL     1      45.314   3.374  13.571  0.00  0.00    +0.000 HD
ENDROOT
BRANCH   6   9
ATOM      9  C   UNL     1      48.847   7.431  14.736  0.00  0.00    +0.000 A 
ATOM     10  C   UNL     1      48.808   8.506  15.645  0.00  0.00    +0.000 A 
ATOM     11  C   UNL     1      49.491   9.702  15.390  0.00  0.00    +0.000 A 
ATOM     12  C   UNL     1      50.232   9.848  14.221  0.00  0.00    +0.000 A 
ATOM     13  C   UNL     1      50.295   8.800  13.309  0.00  0.00    +0.000 A 
ATOM     14  C   UNL     1      49.611   7.607  13.567  0.00  0.00    +0.000 A 
ENDBRANCH   6   9
BRANCH   1  15
ATOM     15  C   UNL     1      45.571   4.768  12.027  0.00  0.00    +0.000 C 
BRANCH  15  17
ATOM     16  C   UNL     1      43.755   2.984  11.917  0.00  0.00    +0.000 C 
ATOM     17  C   UNL     1      44.446   4.135  11.141  0.00  0.00    +0.000 C 
ATOM     18  C   UNL     1      43.348   5.211  10.932  0.00  0.00    +0.000 C 
BRANCH  17  19
ATOM     19  C   UNL     1      45.044   3.653   9.797  0.00  0.00    +0.000 A 
ATOM     20  C   UNL     1      45.556   4.557   8.846  0.00  0.00    +0.000 A 
ATOM     21  C   UNL     1      46.168   4.107   7.669  0.00  0.00    +0.000 A 
ATOM     22  C   UNL     1      46.292   2.744   7.427  0.00  0.00    +0.000 A 
ATOM     23 CL   UNL     1      47.077   2.192   6.000  0.00  0.00    +0.000 Cl
ATOM     24  C   UNL     1      45.795   1.826   8.343  0.00  0.00    +0.000 A 
ATOM     25  C   UNL     1      45.173   2.279   9.511  0.00  0.00    +0.000 A 
ENDBRANCH  17  19
ENDBRANCH  15  17
ENDBRANCH   1  15
TORSDOF 4
ENDMDL
MODEL 3
REMARK VINA RESULT:    -7.452      3.447      7.496
REMARK INTER + INTRA:          -9.711
REMARK INTER:                  -8.939
REMARK INTRA:                  -0.772
REMARK UNBOUND:                -0.516
REMARK  Name = 
REMARK  6 active torsions:
REMARK  status: ('A' for Active; 'I' for Inactive)
REMARK    1  A    between atoms: C_1  and  C_2
REMARK    2  A    between atoms: C_2  and  C_3
REMARK    3  A    between atoms: C_2  and  C_4
REMARK    4  A    between atoms: C_2  and  C_18
REMARK    5  A    between atoms: C_4  and  N_5
REMARK    6  A    between atoms: C_10  and  C_11
REMARK                            x       y       z     vdW  Elec       q    Type
REMARK                         _______ _______ _______ _____ _____    ______ ____
ROOT
ATOM      1  N   UNL     1      45.683   6.981  13.256  0.00  0.00    +0.000 N 
ATOM      2  C   UNL     1      44.925   6.035  12.591  0.00  0.00    +0.000 A 
ATOM      3  N   UNL     1      43.733   5.784  13.145  0.00  0.00    +0.000 NA
ATOM      4  C   UNL     1      42.984   4.831  12.566  0.00  0.00    +0.000 A 
ATOM      5  C   UNL     1      43.377   4.138  11.449  0.00  0.00    +0.000 A 
ATOM      6  C   UNL     1      44.608   4.474  10.923  0.00  0.00    +0.000 A 
ATOM      7  N   UNL     1      45.386   5.423  11.496  0.00  0.00    +0.000 NA
ATOM      8  H   UNL     1      45.011   7.500  13.813  0.00  0.00    +0.000 HD
ENDROOT
BRANCH   6   9
ATOM      9  C   UNL     1      45.175   3.821   9.722  0.00  0.00    +0.000 A 
ATOM     10  C   UNL     1      45.205   2.421   9.571  0.00  0.00    +0.000 A 
ATOM     11  C   UNL     1      45.753   1.821   8.431  0.00  0.00    +0.000 A 
ATOM     12  C   UNL     1      46.280   2.609   7.413  0.00  0.00    +0.000 A 
ATOM     13  C   UNL     1      46.257   3.995   7.530  0.00  0.00    +0.000 A 
ATOM     14  C   UNL     1      45.709   4.590   8.671  0.00  0.00    +0.000 A 
ENDBRANCH   6   9
BRANCH   1  15
ATOM     15  C   UNL     1      46.564   7.803  12.437  0.00  0.00    +0.000 C 
BRANCH  15  17
ATOM     16  C   UNL     1      47.878   8.522  14.499  0.00  0.00    +0.000 C 
ATOM     17  C   UNL     1      47.990   7.920  13.075  0.00  0.00    +0.000 C 
ATOM     18  C   UNL     1      48.537   6.482  13.275  0.00  0.00    +0.000 C 
BRANCH  17  19
ATOM     19  C   UNL     1      48.908   8.763  12.157  0.00  0.00    +0.000 A 
ATOM     20  C   UNL     1      48.555  10.062  11.745  0.00  0.00    +0.000 A 
ATOM     21  C   UNL     1      49.428  10.847  10.981  0.00  0.00    +0.000 A 
ATOM     22  C   UNL     1      50.678  10.352  10.626  0.00  0.00    +0.000 A 
ATOM     23 CL   UNL     1      51.764  11.330   9.720  0.00  0.00    +0.000 Cl
ATOM     24  C   UNL     1      51.056   9.074  11.013  0.00  0.00    +0.000 A 
ATOM     25  C   UNL     1      50.176   8.288  11.765  0.00  0.00    +0.000 A 
ENDBRANCH  17  19
ENDBRANCH  15  17
ENDBRANCH   1  15
TORSDOF 4
ENDMDL
MODEL 4
REMARK VINA RESULT:    -7.347      1.936      3.065
REMARK INTER + INTRA:          -9.581
REMARK INTER:                  -8.876
REMARK INTRA:                  -0.705
REMARK UNBOUND:                -0.516
REMARK  Name = 
REMARK  6 active torsions:
REMARK  status: ('A' for Active; 'I' for Inactive)
REMARK    1  A    between atoms: C_1  and  C_2
REMARK    2  A    between atoms: C_2  and  C_3
REMARK    3  A    between atoms: C_2  and  C_4
REMARK    4  A    between atoms: C_2  and  C_18
REMARK    5  A    between atoms: C_4  and  N_5
REMARK    6  A    between atoms: C_10  and  C_11
REMARK                            x       y       z     vdW  Elec       q    Type
REMARK                         _______ _______ _______ _____ _____    ______ ____
ROOT
ATOM      1  N   UNL     1      46.539   3.711  13.971  0.00  0.00    +0.000 N 
ATOM      2  C   UNL     1      47.301   3.730  15.125  0.00  0.00    +0.000 A 
ATOM      3  N   UNL     1      47.923   2.578  15.403  0.00  0.00    +0.000 NA
ATOM      4  C   UNL     1      48.630   2.531  16.544  0.00  0.00    +0.000 A 
ATOM      5  C   UNL     1      48.749   3.595  17.401  0.00  0.00    +0.000 A 
ATOM      6  C   UNL     1      48.100   4.755  17.030  0.00  0.00    +0.000 A 
ATOM      7  N   UNL     1      47.371   4.823  15.890  0.00  0.00    +0.000 NA
ATOM      8  H   UNL     1      46.907   2.931  13.435  0.00  0.00    +0.000 HD
ENDROOT
BRANCH   6   9
ATOM      9  C   UNL     1      48.130   5.991  17.844  0.00  0.00    +0.000 A 
ATOM     10  C   UNL     1      47.557   6.059  19.129  0.00  0.00    +0.000 A 
ATOM     11  C   UNL     1      47.588   7.239  19.880  0.00  0.00    +0.000 A 
ATOM     12  C   UNL     1      48.200   8.379  19.367  0.00  0.00    +0.000 A 
ATOM     13  C   UNL     1      48.782   8.339  18.104  0.00  0.00    +0.000 A 
ATOM     14  C   UNL     1      48.748   7.157  17.356  0.00  0.00    +0.000 A 
ENDBRANCH   6   9
BRANCH   1  15
ATOM     15  C   UNL     1      46.439   4.964  13.235  0.00  0.00    +0.000 C 
BRANCH  15  17
ATOM     16  C   UNL     1      43.985   4.281  13.292  0.00  0.00    +0.000 C 
ATOM     17  C   UNL     1      45.053   5.096  12.519  0.00  0.00    +0.000 C 
ATOM     18  C   UNL     1      44.604   6.577  12.631  0.00  0.00    +0.000 C 
BRANCH  17  19
ATOM     19  C   UNL     1      45.178   4.642  11.044  0.00  0.00    +0.000 A 
ATOM     20  C   UNL     1      45.735   5.474  10.056  0.00  0.00    +0.000 A 
ATOM     21  C   UNL     1      45.917   5.024   8.742  0.00  0.00    +0.000 A 
ATOM     22  C   UNL     1      45.557   3.726   8.395  0.00  0.00    +0.000 A 
ATOM     23 CL   UNL     1      45.816   3.162   6.791  0.00  0.00    +0.000 Cl
ATOM     24  C   UNL     1      45.002   2.881   9.346  0.00  0.00    +0.000 A 
ATOM     25  C   UNL     1      44.809   3.338  10.654  0.00  0.00    +0.000 A 
ENDBRANCH  17  19
ENDBRANCH  15  17
ENDBRANCH   1  15
TORSDOF 4
ENDMDL
MODEL 5
REMARK VINA RESULT:    -7.288      2.231      4.738
REMARK INTER + INTRA:          -9.509
REMARK INTER:                  -8.783
REMARK INTRA:                  -0.725
REMARK UNBOUND:                -0.516
REMARK  Name = 
REMARK  6 active torsions:
REMARK  status: ('A' for Active; 'I' for Inactive)
REMARK    1  A    between atoms: C_1  and  C_2
REMARK    2  A    between atoms: C_2  and  C_3
REMARK    3  A    between atoms: C_2  and  C_4
REMARK    4  A    between atoms: C_2  and  C_18
REMARK    5  A    between atoms: C_4  and  N_5
REMARK    6  A    between atoms: C_10  and  C_11
REMARK                            x       y       z     vdW  Elec       q    Type
REMARK                         _______ _______ _______ _____ _____    ______ ____
ROOT
ATOM      1  N   UNL     1      45.760   5.891  12.855  0.00  0.00    +0.000 N 
ATOM      2  C   UNL     1      46.961   6.524  13.124  0.00  0.00    +0.000 A 
ATOM      3  N   UNL     1      47.637   6.021  14.163  0.00  0.00    +0.000 NA
ATOM      4  C   UNL     1      48.782   6.638  14.497  0.00  0.00    +0.000 A 
ATOM      5  C   UNL     1      49.279   7.723  13.821  0.00  0.00    +0.000 A 
ATOM      6  C   UNL     1      48.535   8.165  12.744  0.00  0.00    +0.000 A 
ATOM      7  N   UNL     1      47.372   7.566  12.396  0.00  0.00    +0.000 NA
ATOM      8  H   UNL     1      45.845   4.984  13.303  0.00  0.00    +0.000 HD
ENDROOT
BRANCH   6   9
ATOM      9  C   UNL     1      48.934   9.322  11.912  0.00  0.00    +0.000 A 
ATOM     10  C   UNL     1      48.017  10.314  11.514  0.00  0.00    +0.000 A 
ATOM     11  C   UNL     1      48.412  11.397  10.720  0.00  0.00    +0.000 A 
ATOM     12  C   UNL     1      49.736  11.516  10.309  0.00  0.00    +0.000 A 
ATOM     13  C   UNL     1      50.666  10.556  10.694  0.00  0.00    +0.000 A 
ATOM     14  C   UNL     1      50.268   9.475  11.487  0.00  0.00    +0.000 A 
ENDBRANCH   6   9
BRANCH   1  15
ATOM     15  C   UNL     1      45.344   5.849  11.460  0.00  0.00    +0.000 C 
BRANCH  15  17
ATOM     16  C   UNL     1      44.713   3.536  12.324  0.00  0.00    +0.000 C 
ATOM     17  C   UNL     1      44.586   4.518  11.131  0.00  0.00    +0.000 C 
ATOM     18  C   UNL     1      43.075   4.851  11.027  0.00  0.00    +0.000 C 
BRANCH  17  19
ATOM     19  C   UNL     1      45.135   3.912   9.817  0.00  0.00    +0.000 A 
ATOM     20  C   UNL     1      45.727   4.711   8.821  0.00  0.00    +0.000 A 
ATOM     21  C   UNL     1      46.292   4.143   7.672  0.00  0.00    +0.000 A 
ATOM     22  C   UNL     1      46.289   2.763   7.504  0.00  0.00    +0.000 A 
ATOM     23 CL   UNL     1      47.017   2.065   6.112  0.00  0.00    +0.000 Cl
ATOM     24  C   UNL     1      45.711   1.947   8.466  0.00  0.00    +0.000 A 
ATOM     25  C   UNL     1      45.135   2.517   9.606  0.00  0.00    +0.000 A 
ENDBRANCH  17  19
ENDBRANCH  15  17
ENDBRANCH   1  15
TORSDOF 4
ENDMDL
MODEL 6
REMARK VINA RESULT:    -7.041      3.439      8.233
REMARK INTER + INTRA:          -9.203
REMARK INTER:                  -8.564
REMARK INTRA:                  -0.640
REMARK UNBOUND:                -0.516
REMARK  Name = 
REMARK  6 active torsions:
REMARK  status: ('A' for Active; 'I' for Inactive)
REMARK    1  A    between atoms: C_1  and  C_2
REMARK    2  A    between atoms: C_2  and  C_3
REMARK    3  A    between atoms: C_2  and  C_4
REMARK    4  A    between atoms: C_2  and  C_18
REMARK    5  A    between atoms: C_4  and  N_5
REMARK    6  A    between atoms: C_10  and  C_11
REMARK                            x       y       z     vdW  Elec       q    Type
REMARK                         _______ _______ _______ _____ _____    ______ ____
ROOT
ATOM      1  N   UNL     1      45.909   6.194  13.187  0.00  0.00    +0.000 N 
ATOM      2  C   UNL     1      45.083   5.625  12.234  0.00  0.00    +0.000 A 
ATOM      3  N   UNL     1      43.775   5.813  12.444  0.00  0.00    +0.000 NA
ATOM      4  C   UNL     1      42.932   5.232  11.576  0.00  0.00    +0.000 A 
ATOM      5  C   UNL     1      43.349   4.489  10.501  0.00  0.00    +0.000 A 
ATOM      6  C   UNL     1      44.715   4.364  10.339  0.00  0.00    +0.000 A 
ATOM      7  N   UNL     1      45.585   4.932  11.208  0.00  0.00    +0.000 NA
ATOM      8  H   UNL     1      45.334   6.903  13.632  0.00  0.00    +0.000 HD
ENDROOT
BRANCH   6   9
ATOM      9  C   UNL     1      45.326   3.596   9.231  0.00  0.00    +0.000 A 
ATOM     10  C   UNL     1      45.354   2.188   9.218  0.00  0.00    +0.000 A 
ATOM     11  C   UNL     1      45.944   1.480   8.164  0.00  0.00    +0.000 A 
ATOM     12  C   UNL     1      46.517   2.164   7.097  0.00  0.00    +0.000 A 
ATOM     13  C   UNL     1      46.497   3.555   7.079  0.00  0.00    +0.000 A 
ATOM     14  C   UNL     1      45.907   4.259   8.133  0.00  0.00    +0.000 A 
ENDBRANCH   6   9
BRANCH   1  15
ATOM     15  C   UNL     1      47.209   6.662  12.726  0.00  0.00    +0.000 C 
BRANCH  15  17
ATOM     16  C   UNL     1      48.423   8.849  12.239  0.00  0.00    +0.000 C 
ATOM     17  C   UNL     1      47.515   8.105  13.252  0.00  0.00    +0.000 C 
ATOM     18  C   UNL     1      46.179   8.893  13.267  0.00  0.00    +0.000 C 
BRANCH  17  19
ATOM     19  C   UNL     1      48.154   8.027  14.659  0.00  0.00    +0.000 A 
ATOM     20  C   UNL     1      48.779   6.856  15.127  0.00  0.00    +0.000 A 
ATOM     21  C   UNL     1      49.425   6.821  16.370  0.00  0.00    +0.000 A 
ATOM     22  C   UNL     1      49.469   7.962  17.163  0.00  0.00    +0.000 A 
ATOM     23 CL   UNL     1      50.294   7.929  18.671  0.00  0.00    +0.000 Cl
ATOM     24  C   UNL     1      48.860   9.132  16.733  0.00  0.00    +0.000 A 
ATOM     25  C   UNL     1      48.205   9.160  15.497  0.00  0.00    +0.000 A 
ENDBRANCH  17  19
ENDBRANCH  15  17
ENDBRANCH   1  15
TORSDOF 4
ENDMDL
MODEL 7
REMARK VINA RESULT:    -6.970      3.791      7.881
REMARK INTER + INTRA:          -9.116
REMARK INTER:                  -8.414
REMARK INTRA:                  -0.702
REMARK UNBOUND:                -0.516
REMARK  Name = 
REMARK  6 active torsions:
REMARK  status: ('A' for Active; 'I' for Inactive)
REMARK    1  A    between atoms: C_1  and  C_2
REMARK    2  A    between atoms: C_2  and  C_3
REMARK    3  A    between atoms: C_2  and  C_4
REMARK    4  A    between atoms: C_2  and  C_18
REMARK    5  A    between atoms: C_4  and  N_5
REMARK    6  A    between atoms: C_10  and  C_11
REMARK                            x       y       z     vdW  Elec       q    Type
REMARK                         _______ _______ _______ _____ _____    ______ ____
ROOT
ATOM      1  N   UNL     1      47.311   4.003  15.338  0.00  0.00    +0.000 N 
ATOM      2  C   UNL     1      46.803   4.689  14.249  0.00  0.00    +0.000 A 
ATOM      3  N   UNL     1      45.738   4.116  13.676  0.00  0.00    +0.000 NA
ATOM      4  C   UNL     1      45.244   4.715  12.581  0.00  0.00    +0.000 A 
ATOM      5  C   UNL     1      45.764   5.870  12.053  0.00  0.00    +0.000 A 
ATOM      6  C   UNL     1      46.846   6.412  12.718  0.00  0.00    +0.000 A 
ATOM      7  N   UNL     1      47.369   5.819  13.818  0.00  0.00    +0.000 NA
ATOM      8  H   UNL     1      46.547   3.409  15.644  0.00  0.00    +0.000 HD
ENDROOT
BRANCH   6   9
ATOM      9  C   UNL     1      47.522   7.653  12.277  0.00  0.00    +0.000 A 
ATOM     10  C   UNL     1      46.867   8.900  12.260  0.00  0.00    +0.000 A 
ATOM     11  C   UNL     1      47.521  10.061  11.831  0.00  0.00    +0.000 A 
ATOM     12  C   UNL     1      48.847  10.003  11.414  0.00  0.00    +0.000 A 
ATOM     13  C   UNL     1      49.521   8.786  11.428  0.00  0.00    +0.000 A 
ATOM     14  C   UNL     1      48.864   7.628  11.856  0.00  0.00    +0.000 A 
ENDBRANCH   6   9
BRANCH   1  15
ATOM     15  C   UNL     1      47.918   4.809  16.389  0.00  0.00    +0.000 C 
BRANCH  15  17
ATOM     16  C   UNL     1      47.963   4.790  18.937  0.00  0.00    +0.000 C 
ATOM     17  C   UNL     1      48.225   3.949  17.661  0.00  0.00    +0.000 C 
ATOM     18  C   UNL     1      47.192   2.792  17.709  0.00  0.00    +0.000 C 
BRANCH  17  19
ATOM     19  C   UNL     1      49.679   3.420  17.600  0.00  0.00    +0.000 A 
ATOM     20  C   UNL     1      50.775   4.218  17.979  0.00  0.00    +0.000 A 
ATOM     21  C   UNL     1      52.078   3.704  17.997  0.00  0.00    +0.000 A 
ATOM     22  C   UNL     1      52.308   2.377  17.649  0.00  0.00    +0.000 A 
ATOM     23 CL   UNL     1      53.903   1.737  17.707  0.00  0.00    +0.000 Cl
ATOM     24  C   UNL     1      51.249   1.565  17.268  0.00  0.00    +0.000 A 
ATOM     25  C   UNL     1      49.951   2.085  17.238  0.00  0.00    +0.000 A 
ENDBRANCH  17  19
ENDBRANCH  15  17
ENDBRANCH   1  15
TORSDOF 4
ENDMDL
MODEL 8
REMARK VINA RESULT:    -6.802      3.193      7.890
REMARK INTER + INTRA:          -8.908
REMARK INTER:                  -8.210
REMARK INTRA:                  -0.698
REMARK UNBOUND:                -0.516
REMARK  Name = 
REMARK  6 active torsions:
REMARK  status: ('A' for Active; 'I' for Inactive)
REMARK    1  A    between atoms: C_1  and  C_2
REMARK    2  A    between atoms: C_2  and  C_3
REMARK    3  A    between atoms: C_2  and  C_4
REMARK    4  A    between atoms: C_2  and  C_18
REMARK    5  A    between atoms: C_4  and  N_5
REMARK    6  A    between atoms: C_10  and  C_11
REMARK                            x       y       z     vdW  Elec       q    Type
REMARK                         _______ _______ _______ _____ _____    ______ ____
ROOT
ATOM      1  N   UNL     1      48.487   6.570  15.576  0.00  0.00    +0.000 N 
ATOM      2  C   UNL     1      48.120   6.623  14.243  0.00  0.00    +0.000 A 
ATOM      3  N   UNL     1      48.872   7.432  13.488  0.00  0.00    +0.000 NA
ATOM      4  C   UNL     1      48.518   7.560  12.199  0.00  0.00    +0.000 A 
ATOM      5  C   UNL     1      47.456   6.897  11.639  0.00  0.00    +0.000 A 
ATOM      6  C   UNL     1      46.746   6.061  12.478  0.00  0.00    +0.000 A 
ATOM      7  N   UNL     1      47.076   5.925  13.785  0.00  0.00    +0.000 NA
ATOM      8  H   UNL     1      49.448   6.898  15.588  0.00  0.00    +0.000 HD
ENDROOT
BRANCH   6   9
ATOM      9  C   UNL     1      45.575   5.276  12.029  0.00  0.00    +0.000 A 
ATOM     10  C   UNL     1      45.212   5.176  10.672  0.00  0.00    +0.000 A 
ATOM     11  C   UNL     1      44.095   4.435  10.268  0.00  0.00    +0.000 A 
ATOM     12  C   UNL     1      43.317   3.772  11.212  0.00  0.00    +0.000 A 
ATOM     13  C   UNL     1      43.657   3.845  12.559  0.00  0.00    +0.000 A 
ATOM     14  C   UNL     1      44.773   4.587  12.959  0.00  0.00    +0.000 A 
ENDBRANCH   6   9
BRANCH   1  15
ATOM     15  C   UNL     1      48.264   5.305  16.263  0.00  0.00    +0.000 C 
BRANCH  15  17
ATOM     16  C   UNL     1      49.698   6.629  17.901  0.00  0.00    +0.000 C 
ATOM     17  C   UNL     1      49.003   5.268  17.643  0.00  0.00    +0.000 C 
ATOM     18  C   UNL     1      47.926   5.136  18.751  0.00  0.00    +0.000 C 
BRANCH  17  19
ATOM     19  C   UNL     1      50.005   4.088  17.670  0.00  0.00    +0.000 A 
ATOM     20  C   UNL     1      49.638   2.792  17.261  0.00  0.00    +0.000 A 
ATOM     21  C   UNL     1      50.573   1.750  17.214  0.00  0.00    +0.000 A 
ATOM     22  C   UNL     1      51.898   1.988  17.562  0.00  0.00    +0.000 A 
ATOM     23 CL   UNL     1      53.053   0.718  17.468  0.00  0.00    +0.000 Cl
ATOM     24  C   UNL     1      52.292   3.254  17.974  0.00  0.00    +0.000 A 
ATOM     25  C   UNL     1      51.353   4.289  18.032  0.00  0.00    +0.000 A 
ENDBRANCH  17  19
ENDBRANCH  15  17
ENDBRANCH   1  15
TORSDOF 4
ENDMDL
MODEL 9
REMARK VINA RESULT:    -6.763      2.585      4.456
REMARK INTER + INTRA:          -8.861
REMARK INTER:                  -8.173
REMARK INTRA:                  -0.688
REMARK UNBOUND:                -0.516
REMARK  Name = 
REMARK  6 active torsions:
REMARK  status: ('A' for Active; 'I' for Inactive)
REMARK    1  A    between atoms: C_1  and  C_2
REMARK    2  A    between atoms: C_2  and  C_3
REMARK    3  A    between atoms: C_2  and  C_4
REMARK    4  A    between atoms: C_2  and  C_18
REMARK    5  A    between atoms: C_4  and  N_5
REMARK    6  A    between atoms: C_10  and  C_11
REMARK                            x       y       z     vdW  Elec       q    Type
REMARK                         _______ _______ _______ _____ _____    ______ ____
ROOT
ATOM      1  N   UNL     1      48.510   7.160  15.368  0.00  0.00    +0.000 N 
ATOM      2  C   UNL     1      48.844   6.536  16.556  0.00  0.00    +0.000 A 
ATOM      3  N   UNL     1      48.316   7.098  17.650  0.00  0.00    +0.000 NA
ATOM      4  C   UNL     1      48.658   6.561  18.832  0.00  0.00    +0.000 A 
ATOM      5  C   UNL     1      49.489   5.476  18.956  0.00  0.00    +0.000 A 
ATOM      6  C   UNL     1      49.970   4.938  17.779  0.00  0.00    +0.000 A 
ATOM      7  N   UNL     1      49.650   5.470  16.575  0.00  0.00    +0.000 NA
ATOM      8  H   UNL     1      47.673   7.691  15.586  0.00  0.00    +0.000 HD
ENDROOT
BRANCH   6   9
ATOM      9  C   UNL     1      50.877   3.769  17.741  0.00  0.00    +0.000 A 
ATOM     10  C   UNL     1      50.442   2.493  17.336  0.00  0.00    +0.000 A 
ATOM     11  C   UNL     1      51.313   1.397  17.315  0.00  0.00    +0.000 A 
ATOM     12  C   UNL     1      52.642   1.554  17.693  0.00  0.00    +0.000 A 
ATOM     13  C   UNL     1      53.103   2.805  18.090  0.00  0.00    +0.000 A 
ATOM     14  C   UNL     1      52.229   3.897  18.111  0.00  0.00    +0.000 A 
ENDBRANCH   6   9
BRANCH   1  15
ATOM     15  C   UNL     1      48.404   6.308  14.191  0.00  0.00    +0.000 C 
BRANCH  15  17
ATOM     16  C   UNL     1      46.904   8.281  13.601  0.00  0.00    +0.000 C 
ATOM     17  C   UNL     1      47.602   7.013  13.046  0.00  0.00    +0.000 C 
ATOM     18  C   UNL     1      48.627   7.529  12.002  0.00  0.00    +0.000 C 
BRANCH  17  19
ATOM     19  C   UNL     1      46.594   6.019  12.421  0.00  0.00    +0.000 A 
ATOM     20  C   UNL     1      46.088   6.194  11.119  0.00  0.00    +0.000 A 
ATOM     21  C   UNL     1      45.239   5.246  10.534  0.00  0.00    +0.000 A 
ATOM     22  C   UNL     1      44.890   4.097  11.235  0.00  0.00    +0.000 A 
ATOM     23 CL   UNL     1      43.878   2.917  10.501  0.00  0.00    +0.000 Cl
ATOM     24  C   UNL     1      45.369   3.896  12.522  0.00  0.00    +0.000 A 
ATOM     25  C   UNL     1      46.206   4.850  13.109  0.00  0.00    +0.000 A 
ENDBRANCH  17  19
ENDBRANCH  15  17
ENDBRANCH   1  15
TORSDOF 4
ENDMDL
