MODEL 1
REMARK VINA RESULT:    -8.079      0.000      0.000
REMARK INTER + INTRA:         -11.365
REMARK INTER:                 -10.440
REMARK INTRA:                  -0.925
REMARK UNBOUND:                -0.925
REMARK  Name = 
REMARK  6 active torsions:
REMARK  status: ('A' for Active; 'I' for Inactive)
REMARK    1  A    between atoms: C_1  and  C_2
REMARK    2  A    between atoms: C_2  and  O_3
REMARK    3  A    between atoms: C_2  and  C_13
REMARK    4  A    between atoms: O_3  and  C_4
REMARK    5  A    between atoms: C_7  and  C_8
REMARK    6  A    between atoms: C_16  and  C_17
REMARK                            x       y       z     vdW  Elec       q    Type
REMARK                         _______ _______ _______ _____ _____    ______ ____
ROOT
ATOM      1  C   UNL     1      42.300   5.502  11.766  0.00  0.00    +0.000 C 
ATOM      2  C   UNL     1      43.510   4.697  11.268  0.00  0.00    +0.000 C 
ENDROOT
BRANCH   2   3
ATOM      3  C   UNL     1      44.771   5.302  11.889  0.00  0.00    +0.000 A 
ATOM      4  C   UNL     1      45.221   6.556  11.436  0.00  0.00    +0.000 A 
ATOM      5  C   UNL     1      46.436   7.091  11.873  0.00  0.00    +0.000 A 
ATOM      6  C   UNL     1      47.236   6.393  12.786  0.00  0.00    +0.000 A 
ATOM      7  C   UNL     1      46.775   5.158  13.272  0.00  0.00    +0.000 A 
ATOM      8  C   UNL     1      45.562   4.615  12.823  0.00  0.00    +0.000 A 
BRANCH   6   9
ATOM      9  C   UNL     1      48.575   6.944  13.222  0.00  0.00    +0.000 C 
ATOM     10  F   UNL     1      48.608   8.306  13.283  0.00  0.00    +0.000 F 
ATOM     11  F   UNL     1      48.949   6.508  14.455  0.00  0.00    +0.000 F 
ATOM     12  F   UNL     1      49.586   6.591  12.378  0.00  0.00    +0.000 F 
ENDBRANCH   6   9
ENDBRANCH   2   3
BRANCH   2  13
ATOM     13  O   UNL     1      43.598   4.705   9.828  0.00  0.00    +0.000 OA
BRANCH  13  14
ATOM     14  C   UNL     1      44.480   3.841   9.235  0.00  0.00    +0.000 A 
ATOM     15  C   UNL     1      44.528   2.467   9.439  0.00  0.00    +0.000 A 
ATOM     16  C   UNL     1      45.461   1.688   8.758  0.00  0.00    +0.000 A 
ATOM     17  C   UNL     1      46.327   2.305   7.868  0.00  0.00    +0.000 A 
ATOM     18  N   UNL     1      46.317   3.644   7.623  0.00  0.00    +0.000 NA
ATOM     19  C   UNL     1      45.387   4.369   8.312  0.00  0.00    +0.000 A 
BRANCH  17  20
ATOM     20  C   UNL     1      47.301   1.447   7.122  0.00  0.00    +0.000 C 
ATOM     21  N   UNL     1      48.374   2.090   6.559  0.00  0.00    +0.000 N 
ATOM     22  O   UNL     1      47.153   0.239   7.005  0.00  0.00    +0.000 OA
ATOM     23  H   UNL     1      48.468   3.093   6.642  0.00  0.00    +0.000 HD
ATOM     24  H   UNL     1      49.027   1.553   6.006  0.00  0.00    +0.000 HD
ENDBRANCH  17  20
ENDBRANCH  13  14
ENDBRANCH   2  13
TORSDOF 5
ENDMDL
MODEL 2
REMARK VINA RESULT:    -7.759      4.386      6.870
REMARK INTER + INTRA:         -10.951
REMARK INTER:                 -10.172
REMARK INTRA:                  -0.779
REMARK UNBOUND:                -0.925
REMARK  Name = 
REMARK  6 active torsions:
REMARK  status: ('A' for Active; 'I' for Inactive)
REMARK    1  A    between atoms: C_1  and  C_2
REMARK    2  A    between atoms: C_2  and  O_3
REMARK    3  A    between atoms: C_2  and  C_13
REMARK    4  A    between atoms: O_3  and  C_4
REMARK    5  A    between atoms: C_7  and  C_8
REMARK    6  A    between atoms: C_16  and  C_17
REMARK                            x       y       z     vdW  Elec       q    Type
REMARK                         _______ _______ _______ _____ _____    ______ ____
ROOT
ATOM      1  C   UNL     1      42.961   4.214  11.339  0.00  0.00    +0.000 C 
ATOM      2  C   UNL     1      44.432   4.642  11.213  0.00  0.00    +0.000 C 
ENDROOT
BRANCH   2   3
ATOM      3  C   UNL     1      44.994   4.036   9.925  0.00  0.00    +0.000 A 
ATOM      4  C   UNL     1      44.971   2.639   9.762  0.00  0.00    +0.000 A 
ATOM      5  C   UNL     1      45.590   2.027   8.668  0.00  0.00    +0.000 A 
ATOM      6  C   UNL     1      46.245   2.794   7.697  0.00  0.00    +0.000 A 
ATOM      7  C   UNL     1      46.240   4.193   7.834  0.00  0.00    +0.000 A 
ATOM      8  C   UNL     1      45.629   4.806   8.939  0.00  0.00    +0.000 A 
BRANCH   6   9
ATOM      9  C   UNL     1      46.960   2.134   6.541  0.00  0.00    +0.000 C 
ATOM     10  F   UNL     1      48.303   2.368   6.527  0.00  0.00    +0.000 F 
ATOM     11  F   UNL     1      46.820   0.780   6.538  0.00  0.00    +0.000 F 
ATOM     12  F   UNL     1      46.501   2.559   5.329  0.00  0.00    +0.000 F 
ENDBRANCH   6   9
ENDBRANCH   2   3
BRANCH   2  13
ATOM     13  O   UNL     1      45.207   4.221  12.355  0.00  0.00    +0.000 OA
BRANCH  13  14
ATOM     14  C   UNL     1      46.216   5.042  12.783  0.00  0.00    +0.000 A 
ATOM     15  C   UNL     1      46.625   6.215  12.158  0.00  0.00    +0.000 A 
ATOM     16  C   UNL     1      47.653   6.980  12.704  0.00  0.00    +0.000 A 
ATOM     17  C   UNL     1      48.250   6.558  13.882  0.00  0.00    +0.000 A 
ATOM     18  N   UNL     1      47.882   5.424  14.541  0.00  0.00    +0.000 NA
ATOM     19  C   UNL     1      46.871   4.705  13.971  0.00  0.00    +0.000 A 
BRANCH  17  20
ATOM     20  C   UNL     1      49.331   7.409  14.470  0.00  0.00    +0.000 C 
ATOM     21  N   UNL     1      50.470   7.553  13.721  0.00  0.00    +0.000 N 
ATOM     22  O   UNL     1      49.221   7.944  15.565  0.00  0.00    +0.000 OA
ATOM     23  H   UNL     1      50.557   7.083  12.830  0.00  0.00    +0.000 HD
ATOM     24  H   UNL     1      51.242   8.080  14.105  0.00  0.00    +0.000 HD
ENDBRANCH  17  20
ENDBRANCH  13  14
ENDBRANCH   2  13
TORSDOF 5
ENDMDL
MODEL 3
REMARK VINA RESULT:    -7.710      1.130      1.788
REMARK INTER + INTRA:         -10.888
REMARK INTER:                  -9.968
REMARK INTRA:                  -0.920
REMARK UNBOUND:                -0.925
REMARK  Name = 
REMARK  6 active torsions:
REMARK  status: ('A' for Active; 'I' for Inactive)
REMARK    1  A    between atoms: C_1  and  C_2
REMARK    2  A    between atoms: C_2  and  O_3
REMARK    3  A    between atoms: C_2  and  C_13
REMARK    4  A    between atoms: O_3  and  C_4
REMARK    5  A    between atoms: C_7  and  C_8
REMARK    6  A    between atoms: C_16  and  C_17
REMARK                            x       y       z     vdW  Elec       q    Type
REMARK                         _______ _______ _______ _____ _____    ______ ____
ROOT
ATOM      1  C   UNL     1      42.609   5.120  12.212  0.00  0.00    +0.000 C 
ATOM      2  C   UNL     1      43.905   4.763  11.468  0.00  0.00    +0.000 C 
ENDROOT
BRANCH   2   3
ATOM      3  C   UNL     1      44.965   5.806  11.831  0.00  0.00    +0.000 A 
ATOM      4  C   UNL     1      44.683   7.168  11.617  0.00  0.00    +0.000 A 
ATOM      5  C   UNL     1      45.662   8.148  11.806  0.00  0.00    +0.000 A 
ATOM      6  C   UNL     1      46.951   7.798  12.225  0.00  0.00    +0.000 A 
ATOM      7  C   UNL     1      47.228   6.444  12.477  0.00  0.00    +0.000 A 
ATOM      8  C   UNL     1      46.249   5.459  12.274  0.00  0.00    +0.000 A 
BRANCH   6   9
ATOM      9  C   UNL     1      48.026   8.849  12.380  0.00  0.00    +0.000 C 
ATOM     10  F   UNL     1      48.849   8.632  13.446  0.00  0.00    +0.000 F 
ATOM     11  F   UNL     1      48.842   8.935  11.294  0.00  0.00    +0.000 F 
ATOM     12  F   UNL     1      47.514  10.099  12.563  0.00  0.00    +0.000 F 
ENDBRANCH   6   9
ENDBRANCH   2   3
BRANCH   2  13
ATOM     13  O   UNL     1      43.702   4.719  10.039  0.00  0.00    +0.000 OA
BRANCH  13  14
ATOM     14  C   UNL     1      44.565   3.960   9.293  0.00  0.00    +0.000 A 
ATOM     15  C   UNL     1      45.477   4.448   8.364  0.00  0.00    +0.000 A 
ATOM     16  C   UNL     1      46.320   3.574   7.682  0.00  0.00    +0.000 A 
ATOM     17  C   UNL     1      46.240   2.217   7.954  0.00  0.00    +0.000 A 
ATOM     18  N   UNL     1      45.374   1.686   8.860  0.00  0.00    +0.000 NA
ATOM     19  C   UNL     1      44.567   2.579   9.506  0.00  0.00    +0.000 A 
BRANCH  17  20
ATOM     20  C   UNL     1      47.176   1.297   7.234  0.00  0.00    +0.000 C 
ATOM     21  N   UNL     1      48.225   1.886   6.575  0.00  0.00    +0.000 N 
ATOM     22  O   UNL     1      47.018   0.084   7.217  0.00  0.00    +0.000 OA
ATOM     23  H   UNL     1      48.327   2.892   6.576  0.00  0.00    +0.000 HD
ATOM     24  H   UNL     1      48.850   1.303   6.037  0.00  0.00    +0.000 HD
ENDBRANCH  17  20
ENDBRANCH  13  14
ENDBRANCH   2  13
TORSDOF 5
ENDMDL
MODEL 4
REMARK VINA RESULT:    -7.694      4.292      7.027
REMARK INTER + INTRA:         -10.868
REMARK INTER:                 -10.216
REMARK INTRA:                  -0.652
REMARK UNBOUND:                -0.925
REMARK  Name = 
REMARK  6 active torsions:
REMARK  status: ('A' for Active; 'I' for Inactive)
REMARK    1  A    between atoms: C_1  and  C_2
REMARK    2  A    between atoms: C_2  and  O_3
REMARK    3  A    between atoms: C_2  and  C_13
REMARK    4  A    between atoms: O_3  and  C_4
REMARK    5  A    between atoms: C_7  and  C_8
REMARK    6  A    between atoms: C_16  and  C_17
REMARK                            x       y       z     vdW  Elec       q    Type
REMARK                         _______ _______ _______ _____ _____    ______ ____
ROOT
ATOM      1  C   UNL     1      43.349   2.859  11.589  0.00  0.00    +0.000 C 
ATOM      2  C   UNL     1      44.120   4.059  11.016  0.00  0.00    +0.000 C 
ENDROOT
BRANCH   2   3
ATOM      3  C   UNL     1      44.821   3.604   9.734  0.00  0.00    +0.000 A 
ATOM      4  C   UNL     1      45.026   2.228   9.519  0.00  0.00    +0.000 A 
ATOM      5  C   UNL     1      45.777   1.768   8.433  0.00  0.00    +0.000 A 
ATOM      6  C   UNL     1      46.340   2.670   7.522  0.00  0.00    +0.000 A 
ATOM      7  C   UNL     1      46.108   4.043   7.709  0.00  0.00    +0.000 A 
ATOM      8  C   UNL     1      45.365   4.505   8.806  0.00  0.00    +0.000 A 
BRANCH   6   9
ATOM      9  C   UNL     1      47.195   2.179   6.376  0.00  0.00    +0.000 C 
ATOM     10  F   UNL     1      48.521   2.456   6.531  0.00  0.00    +0.000 F 
ATOM     11  F   UNL     1      47.116   0.832   6.197  0.00  0.00    +0.000 F 
ATOM     12  F   UNL     1      46.842   2.736   5.183  0.00  0.00    +0.000 F 
ENDBRANCH   6   9
ENDBRANCH   2   3
BRANCH   2  13
ATOM     13  O   UNL     1      45.077   4.577  11.964  0.00  0.00    +0.000 OA
BRANCH  13  14
ATOM     14  C   UNL     1      45.193   5.936  12.078  0.00  0.00    +0.000 A 
ATOM     15  C   UNL     1      46.204   6.609  12.754  0.00  0.00    +0.000 A 
ATOM     16  C   UNL     1      46.226   8.002  12.780  0.00  0.00    +0.000 A 
ATOM     17  C   UNL     1      45.232   8.700  12.112  0.00  0.00    +0.000 A 
ATOM     18  N   UNL     1      44.224   8.093  11.427  0.00  0.00    +0.000 NA
ATOM     19  C   UNL     1      44.242   6.728  11.427  0.00  0.00    +0.000 A 
BRANCH  17  20
ATOM     20  C   UNL     1      45.290  10.196  12.125  0.00  0.00    +0.000 C 
ATOM     21  N   UNL     1      46.525  10.757  12.319  0.00  0.00    +0.000 N 
ATOM     22  O   UNL     1      44.294  10.891  11.982  0.00  0.00    +0.000 OA
ATOM     23  H   UNL     1      47.335  10.169  12.463  0.00  0.00    +0.000 HD
ATOM     24  H   UNL     1      46.599  11.763  12.383  0.00  0.00    +0.000 HD
ENDBRANCH  17  20
ENDBRANCH  13  14
ENDBRANCH   2  13
TORSDOF 5
ENDMDL
MODEL 5
REMARK VINA RESULT:    -7.563      4.279      6.538
REMARK INTER + INTRA:         -10.698
REMARK INTER:                 -10.954
REMARK INTRA:                   0.256
REMARK UNBOUND:                -0.925
REMARK  Name = 
REMARK  6 active torsions:
REMARK  status: ('A' for Active; 'I' for Inactive)
REMARK    1  A    between atoms: C_1  and  C_2
REMARK    2  A    between atoms: C_2  and  O_3
REMARK    3  A    between atoms: C_2  and  C_13
REMARK    4  A    between atoms: O_3  and  C_4
REMARK    5  A    between atoms: C_7  and  C_8
REMARK    6  A    between atoms: C_16  and  C_17
REMARK                            x       y       z     vdW  Elec       q    Type
REMARK                         _______ _______ _______ _____ _____    ______ ____
ROOT
ATOM      1  C   UNL     1      43.037   3.788  11.378  0.00  0.00    +0.000 C 
ATOM      2  C   UNL     1      43.702   4.747  10.378  0.00  0.00    +0.000 C 
ENDROOT
BRANCH   2   3
ATOM      3  C   UNL     1      44.686   3.940   9.528  0.00  0.00    +0.000 A 
ATOM      4  C   UNL     1      45.502   4.615   8.602  0.00  0.00    +0.000 A 
ATOM      5  C   UNL     1      46.319   3.914   7.710  0.00  0.00    +0.000 A 
ATOM      6  C   UNL     1      46.354   2.515   7.723  0.00  0.00    +0.000 A 
ATOM      7  C   UNL     1      45.571   1.835   8.670  0.00  0.00    +0.000 A 
ATOM      8  C   UNL     1      44.740   2.539   9.557  0.00  0.00    +0.000 A 
BRANCH   6   9
ATOM      9  C   UNL     1      47.196   1.753   6.726  0.00  0.00    +0.000 C 
ATOM     10  F   UNL     1      46.999   0.404   6.766  0.00  0.00    +0.000 F 
ATOM     11  F   UNL     1      46.956   2.123   5.439  0.00  0.00    +0.000 F 
ATOM     12  F   UNL     1      48.533   1.933   6.924  0.00  0.00    +0.000 F 
ENDBRANCH   6   9
ENDBRANCH   2   3
BRANCH   2  13
ATOM     13  O   UNL     1      44.379   5.829  11.052  0.00  0.00    +0.000 OA
BRANCH  13  14
ATOM     14  C   UNL     1      45.237   5.512  12.071  0.00  0.00    +0.000 A 
ATOM     15  C   UNL     1      46.560   5.925  12.175  0.00  0.00    +0.000 A 
ATOM     16  C   UNL     1      47.328   5.554  13.276  0.00  0.00    +0.000 A 
ATOM     17  C   UNL     1      46.747   4.777  14.267  0.00  0.00    +0.000 A 
ATOM     18  N   UNL     1      45.454   4.352  14.221  0.00  0.00    +0.000 NA
ATOM     19  C   UNL     1      44.738   4.740  13.125  0.00  0.00    +0.000 A 
BRANCH  17  20
ATOM     20  C   UNL     1      47.578   4.413  15.457  0.00  0.00    +0.000 C 
ATOM     21  N   UNL     1      47.838   5.420  16.351  0.00  0.00    +0.000 N 
ATOM     22  O   UNL     1      48.018   3.285  15.629  0.00  0.00    +0.000 OA
ATOM     23  H   UNL     1      47.490   6.355  16.181  0.00  0.00    +0.000 HD
ATOM     24  H   UNL     1      48.436   5.227  17.142  0.00  0.00    +0.000 HD
ENDBRANCH  17  20
ENDBRANCH  13  14
ENDBRANCH   2  13
TORSDOF 5
ENDMDL
MODEL 6
REMARK VINA RESULT:    -6.067      5.119      6.920
REMARK INTER + INTRA:          -8.765
REMARK INTER:                  -8.105
REMARK INTRA:                  -0.660
REMARK UNBOUND:                -0.925
REMARK  Name = 
REMARK  6 active torsions:
REMARK  status: ('A' for Active; 'I' for Inactive)
REMARK    1  A    between atoms: C_1  and  C_2
REMARK    2  A    between atoms: C_2  and  O_3
REMARK    3  A    between atoms: C_2  and  C_13
REMARK    4  A    between atoms: O_3  and  C_4
REMARK    5  A    between atoms: C_7  and  C_8
REMARK    6  A    between atoms: C_16  and  C_17
REMARK                            x       y       z     vdW  Elec       q    Type
REMARK                         _______ _______ _______ _____ _____    ______ ____
ROOT
ATOM      1  C   UNL     1      47.078   4.878  17.507  0.00  0.00    +0.000 C 
ATOM      2  C   UNL     1      47.683   3.994  16.404  0.00  0.00    +0.000 C 
ENDROOT
BRANCH   2   3
ATOM      3  C   UNL     1      49.003   3.422  16.926  0.00  0.00    +0.000 A 
ATOM      4  C   UNL     1      49.886   4.268  17.621  0.00  0.00    +0.000 A 
ATOM      5  C   UNL     1      51.159   3.832  18.000  0.00  0.00    +0.000 A 
ATOM      6  C   UNL     1      51.586   2.531  17.706  0.00  0.00    +0.000 A 
ATOM      7  C   UNL     1      50.695   1.669  17.045  0.00  0.00    +0.000 A 
ATOM      8  C   UNL     1      49.422   2.111  16.653  0.00  0.00    +0.000 A 
BRANCH   6   9
ATOM      9  C   UNL     1      52.979   2.073  18.068  0.00  0.00    +0.000 C 
ATOM     10  F   UNL     1      53.136   0.719  18.019  0.00  0.00    +0.000 F 
ATOM     11  F   UNL     1      53.935   2.587  17.247  0.00  0.00    +0.000 F 
ATOM     12  F   UNL     1      53.338   2.437  19.332  0.00  0.00    +0.000 F 
ENDBRANCH   6   9
ENDBRANCH   2   3
BRANCH   2  13
ATOM     13  O   UNL     1      47.896   4.738  15.186  0.00  0.00    +0.000 OA
BRANCH  13  14
ATOM     14  C   UNL     1      46.927   4.674  14.220  0.00  0.00    +0.000 A 
ATOM     15  C   UNL     1      46.289   5.764  13.639  0.00  0.00    +0.000 A 
ATOM     16  C   UNL     1      45.333   5.571  12.645  0.00  0.00    +0.000 A 
ATOM     17  C   UNL     1      45.039   4.277  12.240  0.00  0.00    +0.000 A 
ATOM     18  N   UNL     1      45.639   3.175  12.767  0.00  0.00    +0.000 NA
ATOM     19  C   UNL     1      46.571   3.411  13.738  0.00  0.00    +0.000 A 
BRANCH  17  20
ATOM     20  C   UNL     1      44.031   4.091  11.149  0.00  0.00    +0.000 C 
ATOM     21  N   UNL     1      43.865   5.143  10.286  0.00  0.00    +0.000 N 
ATOM     22  O   UNL     1      43.376   3.065  11.032  0.00  0.00    +0.000 OA
ATOM     23  H   UNL     1      44.395   5.995  10.413  0.00  0.00    +0.000 HD
ATOM     24  H   UNL     1      43.160   5.075   9.566  0.00  0.00    +0.000 HD
ENDBRANCH  17  20
ENDBRANCH  13  14
ENDBRANCH   2  13
TORSDOF 5
ENDMDL
MODEL 7
REMARK VINA RESULT:    -5.562      5.890      8.140
REMARK INTER + INTRA:          -8.112
REMARK INTER:                  -7.396
REMARK INTRA:                  -0.717
REMARK UNBOUND:                -0.925
REMARK  Name = 
REMARK  6 active torsions:
REMARK  status: ('A' for Active; 'I' for Inactive)
REMARK    1  A    between atoms: C_1  and  C_2
REMARK    2  A    between atoms: C_2  and  O_3
REMARK    3  A    between atoms: C_2  and  C_13
REMARK    4  A    between atoms: O_3  and  C_4
REMARK    5  A    between atoms: C_7  and  C_8
REMARK    6  A    between atoms: C_16  and  C_17
REMARK                            x       y       z     vdW  Elec       q    Type
REMARK                         _______ _______ _______ _____ _____    ______ ____
ROOT
ATOM      1  C   UNL     1      49.056   7.579  12.329  0.00  0.00    +0.000 C 
ATOM      2  C   UNL     1      48.426   6.550  13.282  0.00  0.00    +0.000 C 
ENDROOT
BRANCH   2   3
ATOM      3  C   UNL     1      47.071   6.135  12.704  0.00  0.00    +0.000 A 
ATOM      4  C   UNL     1      46.338   5.120  13.345  0.00  0.00    +0.000 A 
ATOM      5  C   UNL     1      45.162   4.612  12.785  0.00  0.00    +0.000 A 
ATOM      6  C   UNL     1      44.676   5.111  11.570  0.00  0.00    +0.000 A 
ATOM      7  C   UNL     1      45.383   6.151  10.943  0.00  0.00    +0.000 A 
ATOM      8  C   UNL     1      46.571   6.651  11.499  0.00  0.00    +0.000 A 
BRANCH   6   9
ATOM      9  C   UNL     1      43.433   4.529  10.936  0.00  0.00    +0.000 C 
ATOM     10  F   UNL     1      42.290   5.187  11.279  0.00  0.00    +0.000 F 
ATOM     11  F   UNL     1      43.477   4.546   9.576  0.00  0.00    +0.000 F 
ATOM     12  F   UNL     1      43.227   3.228  11.287  0.00  0.00    +0.000 F 
ENDBRANCH   6   9
ENDBRANCH   2   3
BRANCH   2  13
ATOM     13  O   UNL     1      48.270   7.086  14.612  0.00  0.00    +0.000 OA
BRANCH  13  14
ATOM     14  C   UNL     1      48.871   6.418  15.646  0.00  0.00    +0.000 A 
ATOM     15  C   UNL     1      48.287   5.413  16.410  0.00  0.00    +0.000 A 
ATOM     16  C   UNL     1      49.011   4.790  17.423  0.00  0.00    +0.000 A 
ATOM     17  C   UNL     1      50.323   5.181  17.647  0.00  0.00    +0.000 A 
ATOM     18  N   UNL     1      50.947   6.151  16.924  0.00  0.00    +0.000 NA
ATOM     19  C   UNL     1      50.200   6.734  15.940  0.00  0.00    +0.000 A 
BRANCH  17  20
ATOM     20  C   UNL     1      51.095   4.479  18.720  0.00  0.00    +0.000 C 
ATOM     21  N   UNL     1      50.513   4.431  19.960  0.00  0.00    +0.000 N 
ATOM     22  O   UNL     1      52.193   3.980  18.516  0.00  0.00    +0.000 OA
ATOM     23  H   UNL     1      49.616   4.872  20.119  0.00  0.00    +0.000 HD
ATOM     24  H   UNL     1      51.024   4.009  20.722  0.00  0.00    +0.000 HD
ENDBRANCH  17  20
ENDBRANCH  13  14
ENDBRANCH   2  13
TORSDOF 5
ENDMDL
MODEL 8
REMARK VINA RESULT:    -5.478      4.732      6.675
REMARK INTER + INTRA:          -8.004
REMARK INTER:                  -7.269
REMARK INTRA:                  -0.735
REMARK UNBOUND:                -0.925
REMARK  Name = 
REMARK  6 active torsions:
REMARK  status: ('A' for Active; 'I' for Inactive)
REMARK    1  A    between atoms: C_1  and  C_2
REMARK    2  A    between atoms: C_2  and  O_3
REMARK    3  A    between atoms: C_2  and  C_13
REMARK    4  A    between atoms: O_3  and  C_4
REMARK    5  A    between atoms: C_7  and  C_8
REMARK    6  A    between atoms: C_16  and  C_17
REMARK                            x       y       z     vdW  Elec       q    Type
REMARK                         _______ _______ _______ _____ _____    ______ ____
ROOT
ATOM      1  C   UNL     1      50.031   7.659  14.265  0.00  0.00    +0.000 C 
ATOM      2  C   UNL     1      48.670   7.053  14.643  0.00  0.00    +0.000 C 
ENDROOT
BRANCH   2   3
ATOM      3  C   UNL     1      48.702   6.708  16.134  0.00  0.00    +0.000 A 
ATOM      4  C   UNL     1      48.602   5.360  16.525  0.00  0.00    +0.000 A 
ATOM      5  C   UNL     1      48.491   5.002  17.872  0.00  0.00    +0.000 A 
ATOM      6  C   UNL     1      48.488   5.982  18.872  0.00  0.00    +0.000 A 
ATOM      7  C   UNL     1      48.626   7.327  18.492  0.00  0.00    +0.000 A 
ATOM      8  C   UNL     1      48.723   7.686  17.138  0.00  0.00    +0.000 A 
BRANCH   6   9
ATOM      9  C   UNL     1      48.317   5.603  20.326  0.00  0.00    +0.000 C 
ATOM     10  F   UNL     1      47.089   5.916  20.828  0.00  0.00    +0.000 F 
ATOM     11  F   UNL     1      48.478   4.270  20.546  0.00  0.00    +0.000 F 
ATOM     12  F   UNL     1      49.215   6.228  21.139  0.00  0.00    +0.000 F 
ENDBRANCH   6   9
ENDBRANCH   2   3
BRANCH   2  13
ATOM     13  O   UNL     1      48.374   5.880  13.855  0.00  0.00    +0.000 OA
BRANCH  13  14
ATOM     14  C   UNL     1      47.114   5.762  13.332  0.00  0.00    +0.000 A 
ATOM     15  C   UNL     1      46.146   4.856  13.750  0.00  0.00    +0.000 A 
ATOM     16  C   UNL     1      44.887   4.848  13.153  0.00  0.00    +0.000 A 
ATOM     17  C   UNL     1      44.617   5.763  12.147  0.00  0.00    +0.000 A 
ATOM     18  N   UNL     1      45.524   6.677  11.706  0.00  0.00    +0.000 NA
ATOM     19  C   UNL     1      46.744   6.651  12.319  0.00  0.00    +0.000 A 
BRANCH  17  20
ATOM     20  C   UNL     1      43.249   5.760  11.539  0.00  0.00    +0.000 C 
ATOM     21  N   UNL     1      42.764   6.972  11.121  0.00  0.00    +0.000 N 
ATOM     22  O   UNL     1      42.586   4.738  11.426  0.00  0.00    +0.000 OA
ATOM     23  H   UNL     1      43.314   7.811  11.245  0.00  0.00    +0.000 HD
ATOM     24  H   UNL     1      41.825   7.019  10.750  0.00  0.00    +0.000 HD
ENDBRANCH  17  20
ENDBRANCH  13  14
ENDBRANCH   2  13
TORSDOF 5
ENDMDL
