MODEL 1
REMARK VINA RESULT:    -8.251      0.000      0.000
REMARK INTER + INTRA:         -12.050
REMARK INTER:                 -11.146
REMARK INTRA:                  -0.904
REMARK UNBOUND:                -0.904
REMARK  Name = 
REMARK  6 active torsions:
REMARK  status: ('A' for Active; 'I' for Inactive)
REMARK    1  A    between atoms: C_2  and  C_4
REMARK    2  A    between atoms: C_7  and  O_8
REMARK    3  A    between atoms: O_8  and  C_9
REMARK    4  A    between atoms: C_9  and  C_10
REMARK    5  A    between atoms: C_13  and  O_14
REMARK    6  A    between atoms: O_14  and  C_15
REMARK                            x       y       z     vdW  Elec       q    Type
REMARK                         _______ _______ _______ _____ _____    ______ ____
ROOT
ATOM      1  C   UNL     1      43.809   4.912  11.192  0.00  0.00    +0.000 C 
ATOM      2  C   UNL     1      42.462   5.341  11.774  0.00  0.00    +0.000 C 
ATOM      3  C   UNL     1      43.257   6.317  10.980  0.00  0.00    +0.000 C 
ENDROOT
BRANCH   1   4
ATOM      4  C   UNL     1      44.993   4.786  12.140  0.00  0.00    +0.000 A 
ATOM      5  C   UNL     1      45.659   5.931  12.616  0.00  0.00    +0.000 A 
ATOM      6  C   UNL     1      46.661   5.855  13.586  0.00  0.00    +0.000 A 
ATOM      7  C   UNL     1      47.044   4.613  14.083  0.00  0.00    +0.000 A 
ATOM      8  C   UNL     1      46.443   3.458  13.582  0.00  0.00    +0.000 A 
ATOM      9  C   UNL     1      45.421   3.545  12.632  0.00  0.00    +0.000 A 
BRANCH   7  10
ATOM     10  O   UNL     1      48.002   4.407  15.035  0.00  0.00    +0.000 OA
BRANCH  10  11
ATOM     11  C   UNL     1      47.577   3.663  16.166  0.00  0.00    +0.000 C 
ATOM     12  F   UNL     1      48.653   3.341  16.924  0.00  0.00    +0.000 F 
ATOM     13  F   UNL     1      46.803   4.483  16.921  0.00  0.00    +0.000 F 
ENDBRANCH  10  11
ENDBRANCH   7  10
ENDBRANCH   1   4
BRANCH   1  14
ATOM     14  O   UNL     1      43.560   3.828  10.253  0.00  0.00    +0.000 OA
BRANCH  14  18
ATOM     15  C   UNL     1      46.441   2.702   7.542  0.00  0.00    +0.000 A 
ATOM     16  C   UNL     1      45.875   1.747   8.383  0.00  0.00    +0.000 A 
ATOM     17  C   UNL     1      44.922   2.154   9.312  0.00  0.00    +0.000 A 
ATOM     18  C   UNL     1      44.534   3.494   9.342  0.00  0.00    +0.000 A 
ATOM     19  N   UNL     1      45.055   4.436   8.525  0.00  0.00    +0.000 NA
ATOM     20  C   UNL     1      46.022   4.023   7.671  0.00  0.00    +0.000 A 
BRANCH  15  22
ATOM     21  N   UNL     1      47.547   3.034   5.409  0.00  0.00    +0.000 N 
ATOM     22  C   UNL     1      47.506   2.346   6.590  0.00  0.00    +0.000 C 
ATOM     23  O   UNL     1      48.315   1.460   6.849  0.00  0.00    +0.000 OA
ATOM     24  H   UNL     1      48.288   2.799   4.758  0.00  0.00    +0.000 HD
ATOM     25  H   UNL     1      47.044   3.896   5.258  0.00  0.00    +0.000 HD
ENDBRANCH  15  22
ENDBRANCH  14  18
ENDBRANCH   1  14
TORSDOF 6
ENDMDL
MODEL 2
REMARK VINA RESULT:    -8.081      1.619      1.898
REMARK INTER + INTRA:         -11.820
REMARK INTER:                 -10.892
REMARK INTRA:                  -0.928
REMARK UNBOUND:                -0.904
REMARK  Name = 
REMARK  6 active torsions:
REMARK  status: ('A' for Active; 'I' for Inactive)
REMARK    1  A    between atoms: C_2  and  C_4
REMARK    2  A    between atoms: C_7  and  O_8
REMARK    3  A    between atoms: O_8  and  C_9
REMARK    4  A    between atoms: C_9  and  C_10
REMARK    5  A    between atoms: C_13  and  O_14
REMARK    6  A    between atoms: O_14  and  C_15
REMARK                            x       y       z     vdW  Elec       q    Type
REMARK                         _______ _______ _______ _____ _____    ______ ____
ROOT
ATOM      1  C   UNL     1      43.870   4.984  11.204  0.00  0.00    +0.000 C 
ATOM      2  C   UNL     1      42.589   5.203  12.008  0.00  0.00    +0.000 C 
ATOM      3  C   UNL     1      43.004   6.224  11.008  0.00  0.00    +0.000 C 
ENDROOT
BRANCH   1   4
ATOM      4  C   UNL     1      45.203   5.194  11.907  0.00  0.00    +0.000 A 
ATOM      5  C   UNL     1      46.029   6.284  11.573  0.00  0.00    +0.000 A 
ATOM      6  C   UNL     1      47.193   6.577  12.289  0.00  0.00    +0.000 A 
ATOM      7  C   UNL     1      47.576   5.757  13.346  0.00  0.00    +0.000 A 
ATOM      8  C   UNL     1      46.806   4.635  13.657  0.00  0.00    +0.000 A 
ATOM      9  C   UNL     1      45.629   4.364  12.954  0.00  0.00    +0.000 A 
BRANCH   7  10
ATOM     10  O   UNL     1      48.682   5.941  14.125  0.00  0.00    +0.000 OA
BRANCH  10  11
ATOM     11  C   UNL     1      49.170   7.272  14.174  0.00  0.00    +0.000 C 
ATOM     12  F   UNL     1      48.400   8.004  15.016  0.00  0.00    +0.000 F 
ATOM     13  F   UNL     1      50.410   7.227  14.723  0.00  0.00    +0.000 F 
ENDBRANCH  10  11
ENDBRANCH   7  10
ENDBRANCH   1   4
BRANCH   1  14
ATOM     14  O   UNL     1      43.693   3.778  10.409  0.00  0.00    +0.000 OA
BRANCH  14  18
ATOM     15  C   UNL     1      46.442   2.729   7.535  0.00  0.00    +0.000 A 
ATOM     16  C   UNL     1      45.952   1.759   8.407  0.00  0.00    +0.000 A 
ATOM     17  C   UNL     1      45.044   2.141   9.390  0.00  0.00    +0.000 A 
ATOM     18  C   UNL     1      44.622   3.470   9.443  0.00  0.00    +0.000 A 
ATOM     19  N   UNL     1      45.069   4.425   8.598  0.00  0.00    +0.000 NA
ATOM     20  C   UNL     1      45.996   4.039   7.689  0.00  0.00    +0.000 A 
BRANCH  15  22
ATOM     21  N   UNL     1      47.406   3.080   5.337  0.00  0.00    +0.000 N 
ATOM     22  C   UNL     1      47.460   2.402   6.523  0.00  0.00    +0.000 C 
ATOM     23  O   UNL     1      48.314   1.546   6.739  0.00  0.00    +0.000 OA
ATOM     24  H   UNL     1      48.114   2.865   4.645  0.00  0.00    +0.000 HD
ATOM     25  H   UNL     1      46.866   3.923   5.211  0.00  0.00    +0.000 HD
ENDBRANCH  15  22
ENDBRANCH  14  18
ENDBRANCH   1  14
TORSDOF 6
ENDMDL
MODEL 3
REMARK VINA RESULT:    -7.157      4.057      6.894
REMARK INTER + INTRA:         -10.572
REMARK INTER:                  -9.885
REMARK INTRA:                  -0.687
REMARK UNBOUND:                -0.904
REMARK  Name = 
REMARK  6 active torsions:
REMARK  status: ('A' for Active; 'I' for Inactive)
REMARK    1  A    between atoms: C_2  and  C_4
REMARK    2  A    between atoms: C_7  and  O_8
REMARK    3  A    between atoms: O_8  and  C_9
REMARK    4  A    between atoms: C_9  and  C_10
REMARK    5  A    between atoms: C_13  and  O_14
REMARK    6  A    between atoms: O_14  and  C_15
REMARK                            x       y       z     vdW  Elec       q    Type
REMARK                         _______ _______ _______ _____ _____    ______ ____
ROOT
ATOM      1  C   UNL     1      44.179   4.926  11.352  0.00  0.00    +0.000 C 
ATOM      2  C   UNL     1      42.654   4.904  11.459  0.00  0.00    +0.000 C 
ATOM      3  C   UNL     1      43.460   4.044  12.367  0.00  0.00    +0.000 C 
ENDROOT
BRANCH   1   4
ATOM      4  C   UNL     1      44.826   4.212  10.175  0.00  0.00    +0.000 A 
ATOM      5  C   UNL     1      44.715   2.816  10.029  0.00  0.00    +0.000 A 
ATOM      6  C   UNL     1      45.184   2.151   8.894  0.00  0.00    +0.000 A 
ATOM      7  C   UNL     1      45.810   2.873   7.882  0.00  0.00    +0.000 A 
ATOM      8  C   UNL     1      45.988   4.249   8.032  0.00  0.00    +0.000 A 
ATOM      9  C   UNL     1      45.491   4.911   9.158  0.00  0.00    +0.000 A 
BRANCH   7  10
ATOM     10  O   UNL     1      46.303   2.342   6.725  0.00  0.00    +0.000 OA
BRANCH  10  11
ATOM     11  C   UNL     1      47.718   2.279   6.646  0.00  0.00    +0.000 C 
ATOM     12  F   UNL     1      48.161   1.209   7.351  0.00  0.00    +0.000 F 
ATOM     13  F   UNL     1      48.039   2.047   5.348  0.00  0.00    +0.000 F 
ENDBRANCH  10  11
ENDBRANCH   7  10
ENDBRANCH   1   4
BRANCH   1  14
ATOM     14  O   UNL     1      44.625   6.274  11.672  0.00  0.00    +0.000 OA
BRANCH  14  18
ATOM     15  C   UNL     1      48.239   6.917  13.528  0.00  0.00    +0.000 A 
ATOM     16  C   UNL     1      47.773   7.836  12.590  0.00  0.00    +0.000 A 
ATOM     17  C   UNL     1      46.561   7.585  11.953  0.00  0.00    +0.000 A 
ATOM     18  C   UNL     1      45.834   6.446  12.304  0.00  0.00    +0.000 A 
ATOM     19  N   UNL     1      46.256   5.550  13.223  0.00  0.00    +0.000 NA
ATOM     20  C   UNL     1      47.466   5.789  13.785  0.00  0.00    +0.000 A 
BRANCH  15  22
ATOM     21  N   UNL     1      50.531   7.708  13.457  0.00  0.00    +0.000 N 
ATOM     22  C   UNL     1      49.547   7.090  14.179  0.00  0.00    +0.000 C 
ATOM     23  O   UNL     1      49.744   6.684  15.322  0.00  0.00    +0.000 OA
ATOM     24  H   UNL     1      51.428   7.839  13.910  0.00  0.00    +0.000 HD
ATOM     25  H   UNL     1      50.345   8.236  12.617  0.00  0.00    +0.000 HD
ENDBRANCH  15  22
ENDBRANCH  14  18
ENDBRANCH   1  14
TORSDOF 6
ENDMDL
MODEL 4
REMARK VINA RESULT:    -6.553      4.017      6.897
REMARK INTER + INTRA:          -9.756
REMARK INTER:                  -9.392
REMARK INTRA:                  -0.364
REMARK UNBOUND:                -0.904
REMARK  Name = 
REMARK  6 active torsions:
REMARK  status: ('A' for Active; 'I' for Inactive)
REMARK    1  A    between atoms: C_2  and  C_4
REMARK    2  A    between atoms: C_7  and  O_8
REMARK    3  A    between atoms: O_8  and  C_9
REMARK    4  A    between atoms: C_9  and  C_10
REMARK    5  A    between atoms: C_13  and  O_14
REMARK    6  A    between atoms: O_14  and  C_15
REMARK                            x       y       z     vdW  Elec       q    Type
REMARK                         _______ _______ _______ _____ _____    ______ ____
ROOT
ATOM      1  C   UNL     1      44.141   5.024  11.552  0.00  0.00    +0.000 C 
ATOM      2  C   UNL     1      42.669   5.425  11.639  0.00  0.00    +0.000 C 
ATOM      3  C   UNL     1      43.173   4.315  12.493  0.00  0.00    +0.000 C 
ENDROOT
BRANCH   1   4
ATOM      4  C   UNL     1      44.599   4.237  10.333  0.00  0.00    +0.000 A 
ATOM      5  C   UNL     1      45.257   4.878   9.267  0.00  0.00    +0.000 A 
ATOM      6  C   UNL     1      45.804   4.164   8.198  0.00  0.00    +0.000 A 
ATOM      7  C   UNL     1      45.675   2.780   8.157  0.00  0.00    +0.000 A 
ATOM      8  C   UNL     1      44.973   2.126   9.171  0.00  0.00    +0.000 A 
ATOM      9  C   UNL     1      44.453   2.845  10.251  0.00  0.00    +0.000 A 
BRANCH   7  10
ATOM     10  O   UNL     1      46.170   1.971   7.174  0.00  0.00    +0.000 OA
BRANCH  10  11
ATOM     11  C   UNL     1      47.045   0.947   7.621  0.00  0.00    +0.000 C 
ATOM     12  F   UNL     1      46.726  -0.218   7.005  0.00  0.00    +0.000 F 
ATOM     13  F   UNL     1      48.294   1.275   7.207  0.00  0.00    +0.000 F 
ENDBRANCH  10  11
ENDBRANCH   7  10
ENDBRANCH   1   4
BRANCH   1  14
ATOM     14  O   UNL     1      44.937   6.168  11.972  0.00  0.00    +0.000 OA
BRANCH  14  18
ATOM     15  C   UNL     1      47.753   5.531  14.902  0.00  0.00    +0.000 A 
ATOM     16  C   UNL     1      46.774   4.568  14.666  0.00  0.00    +0.000 A 
ATOM     17  C   UNL     1      45.814   4.816  13.689  0.00  0.00    +0.000 A 
ATOM     18  C   UNL     1      45.888   5.999  12.951  0.00  0.00    +0.000 A 
ATOM     19  N   UNL     1      46.838   6.939  13.149  0.00  0.00    +0.000 NA
ATOM     20  C   UNL     1      47.724   6.699  14.144  0.00  0.00    +0.000 A 
BRANCH  15  22
ATOM     21  N   UNL     1      48.496   4.406  16.918  0.00  0.00    +0.000 N 
ATOM     22  C   UNL     1      48.750   5.360  15.971  0.00  0.00    +0.000 C 
ATOM     23  O   UNL     1      49.762   6.054  16.011  0.00  0.00    +0.000 OA
ATOM     24  H   UNL     1      49.187   4.278  17.648  0.00  0.00    +0.000 HD
ATOM     25  H   UNL     1      47.799   3.686  16.798  0.00  0.00    +0.000 HD
ENDBRANCH  15  22
ENDBRANCH  14  18
ENDBRANCH   1  14
TORSDOF 6
ENDMDL
MODEL 5
REMARK VINA RESULT:    -6.471      4.341      6.896
REMARK INTER + INTRA:          -9.645
REMARK INTER:                  -9.674
REMARK INTRA:                   0.029
REMARK UNBOUND:                -0.904
REMARK  Name = 
REMARK  6 active torsions:
REMARK  status: ('A' for Active; 'I' for Inactive)
REMARK    1  A    between atoms: C_2  and  C_4
REMARK    2  A    between atoms: C_7  and  O_8
REMARK    3  A    between atoms: O_8  and  C_9
REMARK    4  A    between atoms: C_9  and  C_10
REMARK    5  A    between atoms: C_13  and  O_14
REMARK    6  A    between atoms: O_14  and  C_15
REMARK                            x       y       z     vdW  Elec       q    Type
REMARK                         _______ _______ _______ _____ _____    ______ ____
ROOT
ATOM      1  C   UNL     1      44.376   3.795  11.699  0.00  0.00    +0.000 C 
ATOM      2  C   UNL     1      42.936   4.299  11.786  0.00  0.00    +0.000 C 
ATOM      3  C   UNL     1      43.208   2.843  11.932  0.00  0.00    +0.000 C 
ENDROOT
BRANCH   1   4
ATOM      4  C   UNL     1      45.034   3.736  10.328  0.00  0.00    +0.000 A 
ATOM      5  C   UNL     1      45.183   2.510   9.653  0.00  0.00    +0.000 A 
ATOM      6  C   UNL     1      45.662   2.440   8.343  0.00  0.00    +0.000 A 
ATOM      7  C   UNL     1      46.037   3.607   7.684  0.00  0.00    +0.000 A 
ATOM      8  C   UNL     1      45.958   4.828   8.354  0.00  0.00    +0.000 A 
ATOM      9  C   UNL     1      45.451   4.893   9.655  0.00  0.00    +0.000 A 
BRANCH   7  10
ATOM     10  O   UNL     1      46.510   3.671   6.404  0.00  0.00    +0.000 OA
BRANCH  10  11
ATOM     11  C   UNL     1      47.337   2.587   6.013  0.00  0.00    +0.000 C 
ATOM     12  F   UNL     1      47.717   2.754   4.722  0.00  0.00    +0.000 F 
ATOM     13  F   UNL     1      48.468   2.652   6.760  0.00  0.00    +0.000 F 
ENDBRANCH  10  11
ENDBRANCH   7  10
ENDBRANCH   1   4
BRANCH   1  14
ATOM     14  O   UNL     1      45.122   4.394  12.796  0.00  0.00    +0.000 OA
BRANCH  14  18
ATOM     15  C   UNL     1      46.854   8.088  12.272  0.00  0.00    +0.000 A 
ATOM     16  C   UNL     1      47.662   6.959  12.401  0.00  0.00    +0.000 A 
ATOM     17  C   UNL     1      47.056   5.723  12.605  0.00  0.00    +0.000 A 
ATOM     18  C   UNL     1      45.662   5.647  12.632  0.00  0.00    +0.000 A 
ATOM     19  N   UNL     1      44.858   6.724  12.492  0.00  0.00    +0.000 NA
ATOM     20  C   UNL     1      45.474   7.922  12.353  0.00  0.00    +0.000 A 
BRANCH  15  22
ATOM     21  N   UNL     1      46.725  10.482  12.635  0.00  0.00    +0.000 N 
ATOM     22  C   UNL     1      47.438   9.431  12.128  0.00  0.00    +0.000 C 
ATOM     23  O   UNL     1      48.517   9.595  11.565  0.00  0.00    +0.000 OA
ATOM     24  H   UNL     1      47.132  11.406  12.548  0.00  0.00    +0.000 HD
ATOM     25  H   UNL     1      45.958  10.364  13.280  0.00  0.00    +0.000 HD
ENDBRANCH  15  22
ENDBRANCH  14  18
ENDBRANCH   1  14
TORSDOF 6
ENDMDL
MODEL 6
REMARK VINA RESULT:    -6.132      4.339      7.166
REMARK INTER + INTRA:          -9.187
REMARK INTER:                  -8.389
REMARK INTRA:                  -0.797
REMARK UNBOUND:                -0.904
REMARK  Name = 
REMARK  6 active torsions:
REMARK  status: ('A' for Active; 'I' for Inactive)
REMARK    1  A    between atoms: C_2  and  C_4
REMARK    2  A    between atoms: C_7  and  O_8
REMARK    3  A    between atoms: O_8  and  C_9
REMARK    4  A    between atoms: C_9  and  C_10
REMARK    5  A    between atoms: C_13  and  O_14
REMARK    6  A    between atoms: O_14  and  C_15
REMARK                            x       y       z     vdW  Elec       q    Type
REMARK                         _______ _______ _______ _____ _____    ______ ____
ROOT
ATOM      1  C   UNL     1      44.644   4.723  12.490  0.00  0.00    +0.000 C 
ATOM      2  C   UNL     1      43.350   5.435  12.885  0.00  0.00    +0.000 C 
ATOM      3  C   UNL     1      43.527   3.999  13.233  0.00  0.00    +0.000 C 
ENDROOT
BRANCH   1   4
ATOM      4  C   UNL     1      44.839   4.348  11.028  0.00  0.00    +0.000 A 
ATOM      5  C   UNL     1      45.418   5.256  10.123  0.00  0.00    +0.000 A 
ATOM      6  C   UNL     1      45.729   4.895   8.810  0.00  0.00    +0.000 A 
ATOM      7  C   UNL     1      45.433   3.612   8.360  0.00  0.00    +0.000 A 
ATOM      8  C   UNL     1      44.801   2.713   9.220  0.00  0.00    +0.000 A 
ATOM      9  C   UNL     1      44.519   3.073  10.541  0.00  0.00    +0.000 A 
BRANCH   7  10
ATOM     10  O   UNL     1      45.694   3.137   7.106  0.00  0.00    +0.000 OA
BRANCH  10  11
ATOM     11  C   UNL     1      47.066   2.929   6.814  0.00  0.00    +0.000 C 
ATOM     12  F   UNL     1      47.389   1.636   7.061  0.00  0.00    +0.000 F 
ATOM     13  F   UNL     1      47.228   3.121   5.481  0.00  0.00    +0.000 F 
ENDBRANCH  10  11
ENDBRANCH   7  10
ENDBRANCH   1   4
BRANCH   1  14
ATOM     14  O   UNL     1      45.741   5.381  13.184  0.00  0.00    +0.000 OA
BRANCH  14  18
ATOM     15  C   UNL     1      48.066   3.260  15.833  0.00  0.00    +0.000 A 
ATOM     16  C   UNL     1      47.595   4.523  16.187  0.00  0.00    +0.000 A 
ATOM     17  C   UNL     1      46.833   5.235  15.265  0.00  0.00    +0.000 A 
ATOM     18  C   UNL     1      46.531   4.646  14.036  0.00  0.00    +0.000 A 
ATOM     19  N   UNL     1      46.961   3.416  13.677  0.00  0.00    +0.000 NA
ATOM     20  C   UNL     1      47.748   2.769  14.569  0.00  0.00    +0.000 A 
BRANCH  15  22
ATOM     21  N   UNL     1      48.929   2.833  18.059  0.00  0.00    +0.000 N 
ATOM     22  C   UNL     1      48.937   2.490  16.735  0.00  0.00    +0.000 C 
ATOM     23  O   UNL     1      49.647   1.584  16.309  0.00  0.00    +0.000 OA
ATOM     24  H   UNL     1      49.518   2.295  18.684  0.00  0.00    +0.000 HD
ATOM     25  H   UNL     1      48.213   3.414  18.471  0.00  0.00    +0.000 HD
ENDBRANCH  15  22
ENDBRANCH  14  18
ENDBRANCH   1  14
TORSDOF 6
ENDMDL
MODEL 7
REMARK VINA RESULT:    -6.023      4.341      7.986
REMARK INTER + INTRA:          -9.041
REMARK INTER:                  -8.848
REMARK INTRA:                  -0.193
REMARK UNBOUND:                -0.904
REMARK  Name = 
REMARK  6 active torsions:
REMARK  status: ('A' for Active; 'I' for Inactive)
REMARK    1  A    between atoms: C_2  and  C_4
REMARK    2  A    between atoms: C_7  and  O_8
REMARK    3  A    between atoms: O_8  and  C_9
REMARK    4  A    between atoms: C_9  and  C_10
REMARK    5  A    between atoms: C_13  and  O_14
REMARK    6  A    between atoms: O_14  and  C_15
REMARK                            x       y       z     vdW  Elec       q    Type
REMARK                         _______ _______ _______ _____ _____    ______ ____
ROOT
ATOM      1  C   UNL     1      47.181   6.592  12.974  0.00  0.00    +0.000 C 
ATOM      2  C   UNL     1      47.690   7.861  12.290  0.00  0.00    +0.000 C 
ATOM      3  C   UNL     1      46.672   7.973  13.370  0.00  0.00    +0.000 C 
ENDROOT
BRANCH   1   4
ATOM      4  C   UNL     1      46.209   5.705  12.210  0.00  0.00    +0.000 A 
ATOM      5  C   UNL     1      45.903   5.968  10.861  0.00  0.00    +0.000 A 
ATOM      6  C   UNL     1      45.119   5.099  10.098  0.00  0.00    +0.000 A 
ATOM      7  C   UNL     1      44.592   3.953  10.684  0.00  0.00    +0.000 A 
ATOM      8  C   UNL     1      44.829   3.703  12.036  0.00  0.00    +0.000 A 
ATOM      9  C   UNL     1      45.637   4.562  12.786  0.00  0.00    +0.000 A 
BRANCH   7  10
ATOM     10  O   UNL     1      43.820   3.025  10.044  0.00  0.00    +0.000 OA
BRANCH  10  11
ATOM     11  C   UNL     1      44.483   2.285   9.032  0.00  0.00    +0.000 C 
ATOM     12  F   UNL     1      44.545   3.026   7.899  0.00  0.00    +0.000 F 
ATOM     13  F   UNL     1      45.763   2.098   9.443  0.00  0.00    +0.000 F 
ENDBRANCH  10  11
ENDBRANCH   7  10
ENDBRANCH   1   4
BRANCH   1  14
ATOM     14  O   UNL     1      48.314   5.962  13.636  0.00  0.00    +0.000 OA
BRANCH  14  18
ATOM     15  C   UNL     1      48.115   5.290  17.689  0.00  0.00    +0.000 A 
ATOM     16  C   UNL     1      48.725   6.448  17.212  0.00  0.00    +0.000 A 
ATOM     17  C   UNL     1      48.806   6.643  15.836  0.00  0.00    +0.000 A 
ATOM     18  C   UNL     1      48.239   5.694  14.983  0.00  0.00    +0.000 A 
ATOM     19  N   UNL     1      47.627   4.573  15.423  0.00  0.00    +0.000 NA
ATOM     20  C   UNL     1      47.613   4.380  16.763  0.00  0.00    +0.000 A 
BRANCH  15  22
ATOM     21  N   UNL     1      48.435   3.738  19.525  0.00  0.00    +0.000 N 
ATOM     22  C   UNL     1      48.064   4.993  19.130  0.00  0.00    +0.000 C 
ATOM     23  O   UNL     1      47.694   5.841  19.938  0.00  0.00    +0.000 OA
ATOM     24  H   UNL     1      48.413   3.536  20.518  0.00  0.00    +0.000 HD
ATOM     25  H   UNL     1      48.940   3.101  18.927  0.00  0.00    +0.000 HD
ENDBRANCH  15  22
ENDBRANCH  14  18
ENDBRANCH   1  14
TORSDOF 6
ENDMDL
MODEL 8
REMARK VINA RESULT:    -5.652      4.861      8.382
REMARK INTER + INTRA:          -8.539
REMARK INTER:                  -7.679
REMARK INTRA:                  -0.860
REMARK UNBOUND:                -0.904
REMARK  Name = 
REMARK  6 active torsions:
REMARK  status: ('A' for Active; 'I' for Inactive)
REMARK    1  A    between atoms: C_2  and  C_4
REMARK    2  A    between atoms: C_7  and  O_8
REMARK    3  A    between atoms: O_8  and  C_9
REMARK    4  A    between atoms: C_9  and  C_10
REMARK    5  A    between atoms: C_13  and  O_14
REMARK    6  A    between atoms: O_14  and  C_15
REMARK                            x       y       z     vdW  Elec       q    Type
REMARK                         _______ _______ _______ _____ _____    ______ ____
ROOT
ATOM      1  C   UNL     1      48.435   7.175  13.205  0.00  0.00    +0.000 C 
ATOM      2  C   UNL     1      49.223   7.551  11.951  0.00  0.00    +0.000 C 
ATOM      3  C   UNL     1      48.506   8.614  12.706  0.00  0.00    +0.000 C 
ENDROOT
BRANCH   1   4
ATOM      4  C   UNL     1      47.103   6.462  13.028  0.00  0.00    +0.000 A 
ATOM      5  C   UNL     1      47.004   5.068  13.201  0.00  0.00    +0.000 A 
ATOM      6  C   UNL     1      45.775   4.405  13.174  0.00  0.00    +0.000 A 
ATOM      7  C   UNL     1      44.608   5.126  12.940  0.00  0.00    +0.000 A 
ATOM      8  C   UNL     1      44.687   6.499  12.704  0.00  0.00    +0.000 A 
ATOM      9  C   UNL     1      45.918   7.160  12.760  0.00  0.00    +0.000 A 
BRANCH   7  10
ATOM     10  O   UNL     1      43.350   4.597  12.898  0.00  0.00    +0.000 OA
BRANCH  10  11
ATOM     11  C   UNL     1      43.054   3.838  11.737  0.00  0.00    +0.000 C 
ATOM     12  F   UNL     1      43.845   4.251  10.716  0.00  0.00    +0.000 F 
ATOM     13  F   UNL     1      43.399   2.552  11.998  0.00  0.00    +0.000 F 
ENDBRANCH  10  11
ENDBRANCH   7  10
ENDBRANCH   1   4
BRANCH   1  14
ATOM     14  O   UNL     1      49.379   6.642  14.177  0.00  0.00    +0.000 OA
BRANCH  14  18
ATOM     15  C   UNL     1      48.297   6.694  18.145  0.00  0.00    +0.000 A 
ATOM     16  C   UNL     1      48.539   7.894  17.481  0.00  0.00    +0.000 A 
ATOM     17  C   UNL     1      48.931   7.853  16.146  0.00  0.00    +0.000 A 
ATOM     18  C   UNL     1      49.028   6.616  15.506  0.00  0.00    +0.000 A 
ATOM     19  N   UNL     1      48.781   5.440  16.124  0.00  0.00    +0.000 NA
ATOM     20  C   UNL     1      48.458   5.506  17.437  0.00  0.00    +0.000 A 
BRANCH  15  22
ATOM     21  N   UNL     1      47.178   5.632  20.017  0.00  0.00    +0.000 N 
ATOM     22  C   UNL     1      47.952   6.669  19.576  0.00  0.00    +0.000 C 
ATOM     23  O   UNL     1      48.339   7.554  20.335  0.00  0.00    +0.000 OA
ATOM     24  H   UNL     1      46.950   5.607  21.004  0.00  0.00    +0.000 HD
ATOM     25  H   UNL     1      47.027   4.792  19.478  0.00  0.00    +0.000 HD
ENDBRANCH  15  22
ENDBRANCH  14  18
ENDBRANCH   1  14
TORSDOF 6
ENDMDL
MODEL 9
REMARK VINA RESULT:    -5.514      4.705      6.913
REMARK INTER + INTRA:          -8.352
REMARK INTER:                  -7.698
REMARK INTRA:                  -0.654
REMARK UNBOUND:                -0.904
REMARK  Name = 
REMARK  6 active torsions:
REMARK  status: ('A' for Active; 'I' for Inactive)
REMARK    1  A    between atoms: C_2  and  C_4
REMARK    2  A    between atoms: C_7  and  O_8
REMARK    3  A    between atoms: O_8  and  C_9
REMARK    4  A    between atoms: C_9  and  C_10
REMARK    5  A    between atoms: C_13  and  O_14
REMARK    6  A    between atoms: O_14  and  C_15
REMARK                            x       y       z     vdW  Elec       q    Type
REMARK                         _______ _______ _______ _____ _____    ______ ____
ROOT
ATOM      1  C   UNL     1      47.987   3.470  16.652  0.00  0.00    +0.000 C 
ATOM      2  C   UNL     1      46.920   2.909  17.592  0.00  0.00    +0.000 C 
ATOM      3  C   UNL     1      47.191   4.372  17.590  0.00  0.00    +0.000 C 
ENDROOT
BRANCH   1   4
ATOM      4  C   UNL     1      49.448   3.244  17.008  0.00  0.00    +0.000 A 
ATOM      5  C   UNL     1      50.237   4.295  17.514  0.00  0.00    +0.000 A 
ATOM      6  C   UNL     1      51.540   4.087  17.972  0.00  0.00    +0.000 A 
ATOM      7  C   UNL     1      52.100   2.815  17.904  0.00  0.00    +0.000 A 
ATOM      8  C   UNL     1      51.360   1.770  17.349  0.00  0.00    +0.000 A 
ATOM      9  C   UNL     1      50.047   1.980  16.918  0.00  0.00    +0.000 A 
BRANCH   7  10
ATOM     10  O   UNL     1      53.356   2.484  18.325  0.00  0.00    +0.000 OA
BRANCH  10  11
ATOM     11  C   UNL     1      53.836   1.233  17.859  0.00  0.00    +0.000 C 
ATOM     12  F   UNL     1      54.657   1.432  16.799  0.00  0.00    +0.000 F 
ATOM     13  F   UNL     1      54.601   0.702  18.846  0.00  0.00    +0.000 F 
ENDBRANCH  10  11
ENDBRANCH   7  10
ENDBRANCH   1   4
BRANCH   1  14
ATOM     14  O   UNL     1      47.560   3.199  15.287  0.00  0.00    +0.000 OA
BRANCH  14  18
ATOM     15  C   UNL     1      46.390   6.294  12.842  0.00  0.00    +0.000 A 
ATOM     16  C   UNL     1      45.635   5.123  12.882  0.00  0.00    +0.000 A 
ATOM     17  C   UNL     1      46.064   4.078  13.695  0.00  0.00    +0.000 A 
ATOM     18  C   UNL     1      47.210   4.251  14.473  0.00  0.00    +0.000 A 
ATOM     19  N   UNL     1      47.948   5.383  14.466  0.00  0.00    +0.000 NA
ATOM     20  C   UNL     1      47.541   6.361  13.623  0.00  0.00    +0.000 A 
BRANCH  15  22
ATOM     21  N   UNL     1      44.988   7.201  11.084  0.00  0.00    +0.000 N 
ATOM     22  C   UNL     1      46.028   7.404  11.947  0.00  0.00    +0.000 C 
ATOM     23  O   UNL     1      46.647   8.465  11.973  0.00  0.00    +0.000 OA
ATOM     24  H   UNL     1      44.729   7.969  10.476  0.00  0.00    +0.000 HD
ATOM     25  H   UNL     1      44.333   6.439  11.183  0.00  0.00    +0.000 HD
ENDBRANCH  15  22
ENDBRANCH  14  18
ENDBRANCH   1  14
TORSDOF 6
ENDMDL
