MODEL 1
REMARK VINA RESULT:    -8.163      0.000      0.000
REMARK INTER + INTRA:         -11.965
REMARK INTER:                 -11.027
REMARK INTRA:                  -0.938
REMARK UNBOUND:                -0.938
REMARK  Name = 
REMARK  7 active torsions:
REMARK  status: ('A' for Active; 'I' for Inactive)
REMARK    1  A    between atoms: C_1  and  C_2
REMARK    2  A    between atoms: C_2  and  N_3
REMARK    3  A    between atoms: C_2  and  C_11
REMARK    4  A    between atoms: C_4  and  C_6
REMARK    5  A    between atoms: C_14  and  C_15
REMARK    6  A    between atoms: C_15  and  N_16
REMARK    7  A    between atoms: C_17  and  C_19
REMARK                            x       y       z     vdW  Elec       q    Type
REMARK                         _______ _______ _______ _____ _____    ______ ____
ROOT
ATOM      1  C   UNL     1      45.274   4.690  11.829  0.00  0.00    +0.000 A 
ATOM      2  C   UNL     1      45.609   5.907  11.214  0.00  0.00    +0.000 A 
ATOM      3  C   UNL     1      46.526   6.784  11.806  0.00  0.00    +0.000 A 
ATOM      4  C   UNL     1      47.141   6.467  13.026  0.00  0.00    +0.000 A 
ATOM      5  C   UNL     1      46.814   5.248  13.637  0.00  0.00    +0.000 A 
ATOM      6  C   UNL     1      45.911   4.367  13.036  0.00  0.00    +0.000 A 
ENDROOT
BRANCH   1   8
ATOM      7  C   UNL     1      43.638   2.794  12.193  0.00  0.00    +0.000 C 
ATOM      8  C   UNL     1      44.259   3.761  11.172  0.00  0.00    +0.000 C 
BRANCH   8   9
ATOM      9  N   UNL     1      44.886   3.073  10.050  0.00  0.00    +0.000 N 
ATOM     10  C   UNL     1      44.816   3.510   8.747  0.00  0.00    +0.000 C 
ATOM     11  O   UNL     1      44.142   4.473   8.385  0.00  0.00    +0.000 OA
ATOM     12  H   UNL     1      45.681   2.467  10.237  0.00  0.00    +0.000 HD
BRANCH  10  13
ATOM     13  C   UNL     1      45.609   2.668   7.735  0.00  0.00    +0.000 C 
ATOM     14  C   UNL     1      46.145   1.361   8.292  0.00  0.00    +0.000 C 
ATOM     15  C   UNL     1      47.157   0.960   7.231  0.00  0.00    +0.000 C 
ATOM     16  C   UNL     1      47.677   2.284   6.682  0.00  0.00    +0.000 C 
ATOM     17  N   UNL     1      46.857   3.344   7.297  0.00  0.00    +0.000 NA
ATOM     18  H   UNL     1      46.637   4.055   6.606  0.00  0.00    +0.000 HD
ENDBRANCH  10  13
ENDBRANCH   8   9
ENDBRANCH   1   8
BRANCH   4  19
ATOM     19  C   UNL     1      48.107   7.410  13.694  0.00  0.00    +0.000 C 
BRANCH  19  20
ATOM     20  N   UNL     1      48.008   7.342  15.130  0.00  0.00    +0.000 N 
ATOM     21  C   UNL     1      49.065   6.959  15.916  0.00  0.00    +0.000 C 
ATOM     22  O   UNL     1      50.164   6.672  15.444  0.00  0.00    +0.000 OA
ATOM     23  H   UNL     1      47.071   7.289  15.518  0.00  0.00    +0.000 HD
BRANCH  21  24
ATOM     24  C   UNL     1      48.834   6.976  17.366  0.00  0.00    +0.000 A 
ATOM     25  C   UNL     1      48.551   8.169  18.015  0.00  0.00    +0.000 A 
ATOM     26  S   UNL     1      48.271   7.985  19.690  0.00  0.00    +0.000 S 
ATOM     27  C   UNL     1      48.565   6.311  19.611  0.00  0.00    +0.000 A 
ATOM     28  N   UNL     1      48.516   5.543  20.731  0.00  0.00    +0.000 NA
ATOM     29  C   UNL     1      48.790   4.296  20.537  0.00  0.00    +0.000 A 
ATOM     30  N   UNL     1      49.097   3.752  19.309  0.00  0.00    +0.000 N 
ATOM     31  C   UNL     1      49.117   4.477  18.152  0.00  0.00    +0.000 A 
ATOM     32  O   UNL     1      49.322   3.946  17.068  0.00  0.00    +0.000 OA
ATOM     33  C   UNL     1      48.848   5.895  18.328  0.00  0.00    +0.000 A 
ATOM     34  H   UNL     1      49.280   2.761  19.222  0.00  0.00    +0.000 HD
ENDBRANCH  21  24
ENDBRANCH  19  20
ENDBRANCH   4  19
TORSDOF 6
ENDMDL
MODEL 2
REMARK VINA RESULT:    -8.066      1.318      1.988
REMARK INTER + INTRA:         -11.833
REMARK INTER:                 -10.719
REMARK INTRA:                  -1.114
REMARK UNBOUND:                -0.938
REMARK  Name = 
REMARK  7 active torsions:
REMARK  status: ('A' for Active; 'I' for Inactive)
REMARK    1  A    between atoms: C_1  and  C_2
REMARK    2  A    between atoms: C_2  and  N_3
REMARK    3  A    between atoms: C_2  and  C_11
REMARK    4  A    between atoms: C_4  and  C_6
REMARK    5  A    between atoms: C_14  and  C_15
REMARK    6  A    between atoms: C_15  and  N_16
REMARK    7  A    between atoms: C_17  and  C_19
REMARK                            x       y       z     vdW  Elec       q    Type
REMARK                         _______ _______ _______ _____ _____    ______ ____
ROOT
ATOM      1  C   UNL     1      45.227   4.593  11.635  0.00  0.00    +0.000 A 
ATOM      2  C   UNL     1      45.700   5.791  11.079  0.00  0.00    +0.000 A 
ATOM      3  C   UNL     1      46.574   6.620  11.793  0.00  0.00    +0.000 A 
ATOM      4  C   UNL     1      47.008   6.270  13.081  0.00  0.00    +0.000 A 
ATOM      5  C   UNL     1      46.542   5.069  13.634  0.00  0.00    +0.000 A 
ATOM      6  C   UNL     1      45.682   4.236  12.913  0.00  0.00    +0.000 A 
ENDROOT
BRANCH   1   8
ATOM      7  C   UNL     1      43.522   2.725  11.758  0.00  0.00    +0.000 C 
ATOM      8  C   UNL     1      44.261   3.718  10.844  0.00  0.00    +0.000 C 
BRANCH   8   9
ATOM      9  N   UNL     1      44.979   3.061   9.758  0.00  0.00    +0.000 N 
ATOM     10  C   UNL     1      44.964   3.500   8.455  0.00  0.00    +0.000 C 
ATOM     11  O   UNL     1      44.271   4.434   8.056  0.00  0.00    +0.000 OA
ATOM     12  H   UNL     1      45.787   2.488   9.989  0.00  0.00    +0.000 HD
BRANCH  10  13
ATOM     13  C   UNL     1      45.849   2.695   7.488  0.00  0.00    +0.000 C 
ATOM     14  C   UNL     1      46.373   1.391   8.059  0.00  0.00    +0.000 C 
ATOM     15  C   UNL     1      47.470   1.033   7.068  0.00  0.00    +0.000 C 
ATOM     16  C   UNL     1      47.996   2.379   6.582  0.00  0.00    +0.000 C 
ATOM     17  N   UNL     1      47.109   3.408   7.154  0.00  0.00    +0.000 NA
ATOM     18  H   UNL     1      46.922   4.128   6.462  0.00  0.00    +0.000 HD
ENDBRANCH  10  13
ENDBRANCH   8   9
ENDBRANCH   1   8
BRANCH   4  19
ATOM     19  C   UNL     1      47.924   7.162  13.877  0.00  0.00    +0.000 C 
BRANCH  19  20
ATOM     20  N   UNL     1      47.922   6.813  15.275  0.00  0.00    +0.000 N 
ATOM     21  C   UNL     1      49.076   6.522  15.956  0.00  0.00    +0.000 C 
ATOM     22  O   UNL     1      50.182   6.562  15.419  0.00  0.00    +0.000 OA
ATOM     23  H   UNL     1      47.038   6.495  15.661  0.00  0.00    +0.000 HD
BRANCH  21  24
ATOM     24  C   UNL     1      48.928   6.224  17.386  0.00  0.00    +0.000 A 
ATOM     25  C   UNL     1      49.298   4.982  17.883  0.00  0.00    +0.000 A 
ATOM     26  S   UNL     1      49.094   4.836  19.573  0.00  0.00    +0.000 S 
ATOM     27  C   UNL     1      48.459   6.410  19.688  0.00  0.00    +0.000 A 
ATOM     28  N   UNL     1      48.048   6.907  20.884  0.00  0.00    +0.000 NA
ATOM     29  C   UNL     1      47.558   8.101  20.827  0.00  0.00    +0.000 A 
ATOM     30  N   UNL     1      47.459   8.843  19.670  0.00  0.00    +0.000 N 
ATOM     31  C   UNL     1      47.899   8.400  18.456  0.00  0.00    +0.000 A 
ATOM     32  O   UNL     1      47.862   9.116  17.463  0.00  0.00    +0.000 OA
ATOM     33  C   UNL     1      48.426   7.046  18.467  0.00  0.00    +0.000 A 
ATOM     34  H   UNL     1      47.086   9.783  19.698  0.00  0.00    +0.000 HD
ENDBRANCH  21  24
ENDBRANCH  19  20
ENDBRANCH   4  19
TORSDOF 6
ENDMDL
MODEL 3
REMARK VINA RESULT:    -7.673      4.426      9.562
REMARK INTER + INTRA:         -11.302
REMARK INTER:                 -10.259
REMARK INTRA:                  -1.043
REMARK UNBOUND:                -0.938
REMARK  Name = 
REMARK  7 active torsions:
REMARK  status: ('A' for Active; 'I' for Inactive)
REMARK    1  A    between atoms: C_1  and  C_2
REMARK    2  A    between atoms: C_2  and  N_3
REMARK    3  A    between atoms: C_2  and  C_11
REMARK    4  A    between atoms: C_4  and  C_6
REMARK    5  A    between atoms: C_14  and  C_15
REMARK    6  A    between atoms: C_15  and  N_16
REMARK    7  A    between atoms: C_17  and  C_19
REMARK                            x       y       z     vdW  Elec       q    Type
REMARK                         _______ _______ _______ _____ _____    ______ ____
ROOT
ATOM      1  C   UNL     1      51.403   3.698  17.841  0.00  0.00    +0.000 A 
ATOM      2  C   UNL     1      50.531   4.788  17.986  0.00  0.00    +0.000 A 
ATOM      3  C   UNL     1      49.172   4.669  17.669  0.00  0.00    +0.000 A 
ATOM      4  C   UNL     1      48.643   3.456  17.205  0.00  0.00    +0.000 A 
ATOM      5  C   UNL     1      49.512   2.364  17.068  0.00  0.00    +0.000 A 
ATOM      6  C   UNL     1      50.864   2.480  17.400  0.00  0.00    +0.000 A 
ENDROOT
BRANCH   1   8
ATOM      7  C   UNL     1      53.499   5.057  17.435  0.00  0.00    +0.000 C 
ATOM      8  C   UNL     1      52.881   3.858  18.175  0.00  0.00    +0.000 C 
BRANCH   8   9
ATOM      9  N   UNL     1      53.579   2.606  17.906  0.00  0.00    +0.000 N 
ATOM     10  C   UNL     1      54.185   1.844  18.877  0.00  0.00    +0.000 C 
ATOM     11  O   UNL     1      54.280   2.186  20.054  0.00  0.00    +0.000 OA
ATOM     12  H   UNL     1      53.329   2.084  17.070  0.00  0.00    +0.000 HD
BRANCH  10  13
ATOM     13  C   UNL     1      54.801   0.527  18.378  0.00  0.00    +0.000 C 
ATOM     14  C   UNL     1      54.556   0.238  16.909  0.00  0.00    +0.000 C 
ATOM     15  C   UNL     1      54.927  -1.233  16.812  0.00  0.00    +0.000 C 
ATOM     16  C   UNL     1      54.570  -1.806  18.179  0.00  0.00    +0.000 C 
ATOM     17  N   UNL     1      54.188  -0.661  19.027  0.00  0.00    +0.000 NA
ATOM     18  H   UNL     1      54.572  -0.779  19.960  0.00  0.00    +0.000 HD
ENDBRANCH  10  13
ENDBRANCH   8   9
ENDBRANCH   1   8
BRANCH   4  19
ATOM     19  C   UNL     1      47.191   3.316  16.830  0.00  0.00    +0.000 C 
BRANCH  19  20
ATOM     20  N   UNL     1      46.790   4.319  15.877  0.00  0.00    +0.000 N 
ATOM     21  C   UNL     1      46.867   4.111  14.524  0.00  0.00    +0.000 C 
ATOM     22  O   UNL     1      47.264   3.050  14.045  0.00  0.00    +0.000 OA
ATOM     23  H   UNL     1      46.738   5.273  16.220  0.00  0.00    +0.000 HD
BRANCH  21  24
ATOM     24  C   UNL     1      46.384   5.205  13.671  0.00  0.00    +0.000 A 
ATOM     25  C   UNL     1      47.147   6.354  13.509  0.00  0.00    +0.000 A 
ATOM     26  S   UNL     1      46.445   7.494  12.450  0.00  0.00    +0.000 S 
ATOM     27  C   UNL     1      45.076   6.512  12.211  0.00  0.00    +0.000 A 
ATOM     28  N   UNL     1      44.054   6.926  11.417  0.00  0.00    +0.000 NA
ATOM     29  C   UNL     1      43.064   6.100  11.346  0.00  0.00    +0.000 A 
ATOM     30  N   UNL     1      43.019   4.886  11.995  0.00  0.00    +0.000 N 
ATOM     31  C   UNL     1      44.040   4.412  12.768  0.00  0.00    +0.000 A 
ATOM     32  O   UNL     1      43.997   3.297  13.271  0.00  0.00    +0.000 OA
ATOM     33  C   UNL     1      45.163   5.325  12.905  0.00  0.00    +0.000 A 
ATOM     34  H   UNL     1      42.222   4.274  11.879  0.00  0.00    +0.000 HD
ENDBRANCH  21  24
ENDBRANCH  19  20
ENDBRANCH   4  19
TORSDOF 6
ENDMDL
MODEL 4
REMARK VINA RESULT:    -7.163      3.654      8.996
REMARK INTER + INTRA:         -10.613
REMARK INTER:                  -9.570
REMARK INTRA:                  -1.044
REMARK UNBOUND:                -0.938
REMARK  Name = 
REMARK  7 active torsions:
REMARK  status: ('A' for Active; 'I' for Inactive)
REMARK    1  A    between atoms: C_1  and  C_2
REMARK    2  A    between atoms: C_2  and  N_3
REMARK    3  A    between atoms: C_2  and  C_11
REMARK    4  A    between atoms: C_4  and  C_6
REMARK    5  A    between atoms: C_14  and  C_15
REMARK    6  A    between atoms: C_15  and  N_16
REMARK    7  A    between atoms: C_17  and  C_19
REMARK                            x       y       z     vdW  Elec       q    Type
REMARK                         _______ _______ _______ _____ _____    ______ ____
ROOT
ATOM      1  C   UNL     1      49.155   4.932  17.478  0.00  0.00    +0.000 A 
ATOM      2  C   UNL     1      49.859   6.076  17.070  0.00  0.00    +0.000 A 
ATOM      3  C   UNL     1      49.528   6.738  15.881  0.00  0.00    +0.000 A 
ATOM      4  C   UNL     1      48.479   6.281  15.070  0.00  0.00    +0.000 A 
ATOM      5  C   UNL     1      47.770   5.144  15.480  0.00  0.00    +0.000 A 
ATOM      6  C   UNL     1      48.092   4.494  16.675  0.00  0.00    +0.000 A 
ENDROOT
BRANCH   1   8
ATOM      7  C   UNL     1      49.409   5.145  19.987  0.00  0.00    +0.000 C 
ATOM      8  C   UNL     1      49.547   4.219  18.767  0.00  0.00    +0.000 C 
BRANCH   8   9
ATOM      9  N   UNL     1      50.888   3.664  18.626  0.00  0.00    +0.000 N 
ATOM     10  C   UNL     1      51.185   2.567  17.852  0.00  0.00    +0.000 C 
ATOM     11  O   UNL     1      50.338   1.889  17.274  0.00  0.00    +0.000 OA
ATOM     12  H   UNL     1      51.684   4.273  18.798  0.00  0.00    +0.000 HD
BRANCH  10  13
ATOM     13  C   UNL     1      52.676   2.197  17.794  0.00  0.00    +0.000 C 
ATOM     14  C   UNL     1      52.949   0.757  17.401  0.00  0.00    +0.000 C 
ATOM     15  C   UNL     1      54.410   0.596  17.790  0.00  0.00    +0.000 C 
ATOM     16  C   UNL     1      54.587   1.523  18.988  0.00  0.00    +0.000 C 
ATOM     17  N   UNL     1      53.327   2.275  19.127  0.00  0.00    +0.000 NA
ATOM     18  H   UNL     1      53.526   3.245  19.355  0.00  0.00    +0.000 HD
ENDBRANCH  10  13
ENDBRANCH   8   9
ENDBRANCH   1   8
BRANCH   4  19
ATOM     19  C   UNL     1      48.127   6.961  13.773  0.00  0.00    +0.000 C 
BRANCH  19  20
ATOM     20  N   UNL     1      47.360   6.098  12.911  0.00  0.00    +0.000 N 
ATOM     21  C   UNL     1      46.522   6.591  11.944  0.00  0.00    +0.000 C 
ATOM     22  O   UNL     1      46.392   7.797  11.741  0.00  0.00    +0.000 OA
ATOM     23  H   UNL     1      47.223   5.144  13.231  0.00  0.00    +0.000 HD
BRANCH  21  24
ATOM     24  C   UNL     1      45.835   5.594  11.112  0.00  0.00    +0.000 A 
ATOM     25  C   UNL     1      45.948   5.641   9.730  0.00  0.00    +0.000 A 
ATOM     26  S   UNL     1      45.117   4.378   8.935  0.00  0.00    +0.000 S 
ATOM     27  C   UNL     1      44.539   3.757  10.409  0.00  0.00    +0.000 A 
ATOM     28  N   UNL     1      43.723   2.670  10.433  0.00  0.00    +0.000 NA
ATOM     29  C   UNL     1      43.331   2.321  11.613  0.00  0.00    +0.000 A 
ATOM     30  N   UNL     1      43.701   2.964  12.774  0.00  0.00    +0.000 N 
ATOM     31  C   UNL     1      44.552   4.032  12.800  0.00  0.00    +0.000 A 
ATOM     32  O   UNL     1      44.917   4.533  13.856  0.00  0.00    +0.000 OA
ATOM     33  C   UNL     1      44.991   4.481  11.490  0.00  0.00    +0.000 A 
ATOM     34  H   UNL     1      43.377   2.625  13.670  0.00  0.00    +0.000 HD
ENDBRANCH  21  24
ENDBRANCH  19  20
ENDBRANCH   4  19
TORSDOF 6
ENDMDL
MODEL 5
REMARK VINA RESULT:    -6.923      4.038      9.105
REMARK INTER + INTRA:         -10.290
REMARK INTER:                  -9.294
REMARK INTRA:                  -0.996
REMARK UNBOUND:                -0.938
REMARK  Name = 
REMARK  7 active torsions:
REMARK  status: ('A' for Active; 'I' for Inactive)
REMARK    1  A    between atoms: C_1  and  C_2
REMARK    2  A    between atoms: C_2  and  N_3
REMARK    3  A    between atoms: C_2  and  C_11
REMARK    4  A    between atoms: C_4  and  C_6
REMARK    5  A    between atoms: C_14  and  C_15
REMARK    6  A    between atoms: C_15  and  N_16
REMARK    7  A    between atoms: C_17  and  C_19
REMARK                            x       y       z     vdW  Elec       q    Type
REMARK                         _______ _______ _______ _____ _____    ______ ____
ROOT
ATOM      1  C   UNL     1      51.480   4.620  17.685  0.00  0.00    +0.000 A 
ATOM      2  C   UNL     1      51.052   3.284  17.734  0.00  0.00    +0.000 A 
ATOM      3  C   UNL     1      49.739   2.936  17.394  0.00  0.00    +0.000 A 
ATOM      4  C   UNL     1      48.817   3.912  16.988  0.00  0.00    +0.000 A 
ATOM      5  C   UNL     1      49.245   5.246  16.931  0.00  0.00    +0.000 A 
ATOM      6  C   UNL     1      50.561   5.589  17.255  0.00  0.00    +0.000 A 
ENDROOT
BRANCH   1   8
ATOM      7  C   UNL     1      52.983   5.502  19.521  0.00  0.00    +0.000 C 
ATOM      8  C   UNL     1      52.910   4.974  18.078  0.00  0.00    +0.000 C 
BRANCH   8   9
ATOM      9  N   UNL     1      53.463   5.909  17.105  0.00  0.00    +0.000 N 
ATOM     10  C   UNL     1      54.557   5.636  16.318  0.00  0.00    +0.000 C 
ATOM     11  O   UNL     1      55.235   4.615  16.420  0.00  0.00    +0.000 OA
ATOM     12  H   UNL     1      52.853   6.629  16.725  0.00  0.00    +0.000 HD
BRANCH  10  13
ATOM     13  C   UNL     1      54.925   6.739  15.312  0.00  0.00    +0.000 C 
ATOM     14  C   UNL     1      54.046   7.974  15.388  0.00  0.00    +0.000 C 
ATOM     15  C   UNL     1      54.386   8.682  14.086  0.00  0.00    +0.000 C 
ATOM     16  C   UNL     1      54.715   7.553  13.115  0.00  0.00    +0.000 C 
ATOM     17  N   UNL     1      54.720   6.308  13.905  0.00  0.00    +0.000 NA
ATOM     18  H   UNL     1      55.493   5.716  13.613  0.00  0.00    +0.000 HD
ENDBRANCH  10  13
ENDBRANCH   8   9
ENDBRANCH   1   8
BRANCH   4  19
ATOM     19  C   UNL     1      47.392   3.563  16.647  0.00  0.00    +0.000 C 
BRANCH  19  20
ATOM     20  N   UNL     1      46.832   4.487  15.695  0.00  0.00    +0.000 N 
ATOM     21  C   UNL     1      46.795   4.218  14.351  0.00  0.00    +0.000 C 
ATOM     22  O   UNL     1      47.220   3.163  13.882  0.00  0.00    +0.000 OA
ATOM     23  H   UNL     1      46.744   5.452  15.999  0.00  0.00    +0.000 HD
BRANCH  21  24
ATOM     24  C   UNL     1      46.157   5.233  13.503  0.00  0.00    +0.000 A 
ATOM     25  C   UNL     1      46.786   6.449  13.275  0.00  0.00    +0.000 A 
ATOM     26  S   UNL     1      45.914   7.482  12.231  0.00  0.00    +0.000 S 
ATOM     27  C   UNL     1      44.645   6.358  12.088  0.00  0.00    +0.000 A 
ATOM     28  N   UNL     1      43.546   6.643  11.342  0.00  0.00    +0.000 NA
ATOM     29  C   UNL     1      42.645   5.717  11.343  0.00  0.00    +0.000 A 
ATOM     30  N   UNL     1      42.761   4.523  12.020  0.00  0.00    +0.000 N 
ATOM     31  C   UNL     1      43.865   4.178  12.746  0.00  0.00    +0.000 A 
ATOM     32  O   UNL     1      43.965   3.078  13.274  0.00  0.00    +0.000 OA
ATOM     33  C   UNL     1      44.891   5.205  12.801  0.00  0.00    +0.000 A 
ATOM     34  H   UNL     1      42.027   3.829  11.961  0.00  0.00    +0.000 HD
ENDBRANCH  21  24
ENDBRANCH  19  20
ENDBRANCH   4  19
TORSDOF 6
ENDMDL
MODEL 6
REMARK VINA RESULT:    -6.487      2.016      2.434
REMARK INTER + INTRA:          -9.701
REMARK INTER:                  -9.786
REMARK INTRA:                   0.085
REMARK UNBOUND:                -0.938
REMARK  Name = 
REMARK  7 active torsions:
REMARK  status: ('A' for Active; 'I' for Inactive)
REMARK    1  A    between atoms: C_1  and  C_2
REMARK    2  A    between atoms: C_2  and  N_3
REMARK    3  A    between atoms: C_2  and  C_11
REMARK    4  A    between atoms: C_4  and  C_6
REMARK    5  A    between atoms: C_14  and  C_15
REMARK    6  A    between atoms: C_15  and  N_16
REMARK    7  A    between atoms: C_17  and  C_19
REMARK                            x       y       z     vdW  Elec       q    Type
REMARK                         _______ _______ _______ _____ _____    ______ ____
ROOT
ATOM      1  C   UNL     1      45.153   5.251  11.359  0.00  0.00    +0.000 A 
ATOM      2  C   UNL     1      45.965   6.277  10.850  0.00  0.00    +0.000 A 
ATOM      3  C   UNL     1      46.892   6.934  11.670  0.00  0.00    +0.000 A 
ATOM      4  C   UNL     1      47.038   6.581  13.019  0.00  0.00    +0.000 A 
ATOM      5  C   UNL     1      46.233   5.551  13.526  0.00  0.00    +0.000 A 
ATOM      6  C   UNL     1      45.321   4.886  12.703  0.00  0.00    +0.000 A 
ENDROOT
BRANCH   1   8
ATOM      7  C   UNL     1      43.399   3.435  11.186  0.00  0.00    +0.000 C 
ATOM      8  C   UNL     1      44.140   4.564  10.450  0.00  0.00    +0.000 C 
BRANCH   8   9
ATOM      9  N   UNL     1      44.807   4.106   9.238  0.00  0.00    +0.000 N 
ATOM     10  C   UNL     1      44.920   2.783   8.878  0.00  0.00    +0.000 C 
ATOM     11  O   UNL     1      44.550   1.849   9.587  0.00  0.00    +0.000 OA
ATOM     12  H   UNL     1      44.887   4.752   8.456  0.00  0.00    +0.000 HD
BRANCH  10  13
ATOM     13  C   UNL     1      45.602   2.534   7.523  0.00  0.00    +0.000 C 
ATOM     14  C   UNL     1      46.837   1.655   7.598  0.00  0.00    +0.000 C 
ATOM     15  C   UNL     1      47.478   1.899   6.240  0.00  0.00    +0.000 C 
ATOM     16  C   UNL     1      47.097   3.334   5.893  0.00  0.00    +0.000 C 
ATOM     17  N   UNL     1      46.153   3.781   6.934  0.00  0.00    +0.000 NA
ATOM     18  H   UNL     1      45.403   4.321   6.511  0.00  0.00    +0.000 HD
ENDBRANCH  10  13
ENDBRANCH   8   9
ENDBRANCH   1   8
BRANCH   4  19
ATOM     19  C   UNL     1      48.007   7.296  13.924  0.00  0.00    +0.000 C 
BRANCH  19  20
ATOM     20  N   UNL     1      48.597   6.399  14.885  0.00  0.00    +0.000 N 
ATOM     21  C   UNL     1      48.950   6.810  16.145  0.00  0.00    +0.000 C 
ATOM     22  O   UNL     1      48.764   7.962  16.536  0.00  0.00    +0.000 OA
ATOM     23  H   UNL     1      49.018   5.552  14.515  0.00  0.00    +0.000 HD
BRANCH  21  24
ATOM     24  C   UNL     1      49.502   5.778  17.033  0.00  0.00    +0.000 A 
ATOM     25  C   UNL     1      48.655   4.978  17.787  0.00  0.00    +0.000 A 
ATOM     26  S   UNL     1      49.476   3.810  18.724  0.00  0.00    +0.000 S 
ATOM     27  C   UNL     1      50.992   4.366  18.190  0.00  0.00    +0.000 A 
ATOM     28  N   UNL     1      52.140   3.801  18.647  0.00  0.00    +0.000 NA
ATOM     29  C   UNL     1      53.221   4.338  18.186  0.00  0.00    +0.000 A 
ATOM     30  N   UNL     1      53.246   5.387  17.293  0.00  0.00    +0.000 N 
ATOM     31  C   UNL     1      52.118   5.957  16.776  0.00  0.00    +0.000 A 
ATOM     32  O   UNL     1      52.178   6.839  15.929  0.00  0.00    +0.000 OA
ATOM     33  C   UNL     1      50.876   5.407  17.294  0.00  0.00    +0.000 A 
ATOM     34  H   UNL     1      54.128   5.747  16.954  0.00  0.00    +0.000 HD
ENDBRANCH  21  24
ENDBRANCH  19  20
ENDBRANCH   4  19
TORSDOF 6
ENDMDL
MODEL 7
REMARK VINA RESULT:    -6.415      3.601      5.401
REMARK INTER + INTRA:          -9.603
REMARK INTER:                  -8.576
REMARK INTRA:                  -1.027
REMARK UNBOUND:                -0.938
REMARK  Name = 
REMARK  7 active torsions:
REMARK  status: ('A' for Active; 'I' for Inactive)
REMARK    1  A    between atoms: C_1  and  C_2
REMARK    2  A    between atoms: C_2  and  N_3
REMARK    3  A    between atoms: C_2  and  C_11
REMARK    4  A    between atoms: C_4  and  C_6
REMARK    5  A    between atoms: C_14  and  C_15
REMARK    6  A    between atoms: C_15  and  N_16
REMARK    7  A    between atoms: C_17  and  C_19
REMARK                            x       y       z     vdW  Elec       q    Type
REMARK                         _______ _______ _______ _____ _____    ______ ____
ROOT
ATOM      1  C   UNL     1      45.698   5.269  11.674  0.00  0.00    +0.000 A 
ATOM      2  C   UNL     1      45.810   4.719  12.961  0.00  0.00    +0.000 A 
ATOM      3  C   UNL     1      46.732   5.230  13.883  0.00  0.00    +0.000 A 
ATOM      4  C   UNL     1      47.563   6.309  13.549  0.00  0.00    +0.000 A 
ATOM      5  C   UNL     1      47.448   6.863  12.267  0.00  0.00    +0.000 A 
ATOM      6  C   UNL     1      46.516   6.363  11.353  0.00  0.00    +0.000 A 
ENDROOT
BRANCH   1   8
ATOM      7  C   UNL     1      43.616   3.857  11.396  0.00  0.00    +0.000 C 
ATOM      8  C   UNL     1      44.700   4.683  10.682  0.00  0.00    +0.000 C 
BRANCH   8   9
ATOM      9  N   UNL     1      45.415   3.921   9.666  0.00  0.00    +0.000 N 
ATOM     10  C   UNL     1      45.015   3.831   8.353  0.00  0.00    +0.000 C 
ATOM     11  O   UNL     1      43.965   4.308   7.924  0.00  0.00    +0.000 OA
ATOM     12  H   UNL     1      46.405   3.737   9.806  0.00  0.00    +0.000 HD
BRANCH  10  13
ATOM     13  C   UNL     1      45.957   3.031   7.439  0.00  0.00    +0.000 C 
ATOM     14  C   UNL     1      46.452   1.728   8.038  0.00  0.00    +0.000 C 
ATOM     15  C   UNL     1      47.606   1.375   7.113  0.00  0.00    +0.000 C 
ATOM     16  C   UNL     1      48.156   2.723   6.661  0.00  0.00    +0.000 C 
ATOM     17  N   UNL     1      47.232   3.749   7.181  0.00  0.00    +0.000 NA
ATOM     18  H   UNL     1      47.085   4.469   6.480  0.00  0.00    +0.000 HD
ENDBRANCH  10  13
ENDBRANCH   8   9
ENDBRANCH   1   8
BRANCH   4  19
ATOM     19  C   UNL     1      48.582   6.852  14.516  0.00  0.00    +0.000 C 
BRANCH  19  20
ATOM     20  N   UNL     1      49.850   7.088  13.875  0.00  0.00    +0.000 N 
ATOM     21  C   UNL     1      50.597   8.211  14.126  0.00  0.00    +0.000 C 
ATOM     22  O   UNL     1      50.238   9.072  14.927  0.00  0.00    +0.000 OA
ATOM     23  H   UNL     1      50.031   6.565  13.023  0.00  0.00    +0.000 HD
BRANCH  21  24
ATOM     24  C   UNL     1      51.889   8.299  13.432  0.00  0.00    +0.000 A 
ATOM     25  C   UNL     1      53.046   8.583  14.144  0.00  0.00    +0.000 A 
ATOM     26  S   UNL     1      54.453   8.602  13.177  0.00  0.00    +0.000 S 
ATOM     27  C   UNL     1      53.557   8.279  11.768  0.00  0.00    +0.000 A 
ATOM     28  N   UNL     1      54.170   8.196  10.559  0.00  0.00    +0.000 NA
ATOM     29  C   UNL     1      53.370   7.977   9.568  0.00  0.00    +0.000 A 
ATOM     30  N   UNL     1      52.007   7.822   9.692  0.00  0.00    +0.000 N 
ATOM     31  C   UNL     1      51.355   7.855  10.891  0.00  0.00    +0.000 A 
ATOM     32  O   UNL     1      50.153   7.640  10.971  0.00  0.00    +0.000 OA
ATOM     33  C   UNL     1      52.212   8.134  12.031  0.00  0.00    +0.000 A 
ATOM     34  H   UNL     1      51.440   7.630   8.876  0.00  0.00    +0.000 HD
ENDBRANCH  21  24
ENDBRANCH  19  20
ENDBRANCH   4  19
TORSDOF 6
ENDMDL
MODEL 8
REMARK VINA RESULT:    -5.916      3.677      5.385
REMARK INTER + INTRA:          -8.929
REMARK INTER:                  -7.924
REMARK INTRA:                  -1.005
REMARK UNBOUND:                -0.938
REMARK  Name = 
REMARK  7 active torsions:
REMARK  status: ('A' for Active; 'I' for Inactive)
REMARK    1  A    between atoms: C_1  and  C_2
REMARK    2  A    between atoms: C_2  and  N_3
REMARK    3  A    between atoms: C_2  and  C_11
REMARK    4  A    between atoms: C_4  and  C_6
REMARK    5  A    between atoms: C_14  and  C_15
REMARK    6  A    between atoms: C_15  and  N_16
REMARK    7  A    between atoms: C_17  and  C_19
REMARK                            x       y       z     vdW  Elec       q    Type
REMARK                         _______ _______ _______ _____ _____    ______ ____
ROOT
ATOM      1  C   UNL     1      48.604   8.255  13.667  0.00  0.00    +0.000 A 
ATOM      2  C   UNL     1      48.007   8.984  14.707  0.00  0.00    +0.000 A 
ATOM      3  C   UNL     1      48.436   8.829  16.031  0.00  0.00    +0.000 A 
ATOM      4  C   UNL     1      49.478   7.948  16.353  0.00  0.00    +0.000 A 
ATOM      5  C   UNL     1      50.081   7.225  15.314  0.00  0.00    +0.000 A 
ATOM      6  C   UNL     1      49.662   7.393  13.991  0.00  0.00    +0.000 A 
ENDROOT
BRANCH   1   8
ATOM      7  C   UNL     1      48.318   9.867  11.736  0.00  0.00    +0.000 C 
ATOM      8  C   UNL     1      48.107   8.428  12.236  0.00  0.00    +0.000 C 
BRANCH   8   9
ATOM      9  N   UNL     1      46.716   7.998  12.150  0.00  0.00    +0.000 N 
ATOM     10  C   UNL     1      46.306   6.695  12.313  0.00  0.00    +0.000 C 
ATOM     11  O   UNL     1      47.079   5.749  12.457  0.00  0.00    +0.000 OA
ATOM     12  H   UNL     1      45.986   8.683  12.327  0.00  0.00    +0.000 HD
BRANCH  10  13
ATOM     13  C   UNL     1      44.785   6.479  12.250  0.00  0.00    +0.000 C 
ATOM     14  C   UNL     1      44.286   5.302  13.066  0.00  0.00    +0.000 C 
ATOM     15  C   UNL     1      42.878   5.117  12.523  0.00  0.00    +0.000 C 
ATOM     16  C   UNL     1      42.973   5.560  11.067  0.00  0.00    +0.000 C 
ATOM     17  N   UNL     1      44.325   6.118  10.885  0.00  0.00    +0.000 NA
ATOM     18  H   UNL     1      44.280   6.953  10.306  0.00  0.00    +0.000 HD
ENDBRANCH  10  13
ENDBRANCH   8   9
ENDBRANCH   1   8
BRANCH   4  19
ATOM     19  C   UNL     1      49.934   7.745  17.774  0.00  0.00    +0.000 C 
BRANCH  19  20
ATOM     20  N   UNL     1      50.792   6.594  17.898  0.00  0.00    +0.000 N 
ATOM     21  C   UNL     1      51.004   5.968  19.099  0.00  0.00    +0.000 C 
ATOM     22  O   UNL     1      50.457   6.338  20.138  0.00  0.00    +0.000 OA
ATOM     23  H   UNL     1      51.463   6.447  17.150  0.00  0.00    +0.000 HD
BRANCH  21  24
ATOM     24  C   UNL     1      51.870   4.782  19.069  0.00  0.00    +0.000 A 
ATOM     25  C   UNL     1      53.069   4.776  19.768  0.00  0.00    +0.000 A 
ATOM     26  S   UNL     1      53.918   3.299  19.649  0.00  0.00    +0.000 S 
ATOM     27  C   UNL     1      52.735   2.637  18.622  0.00  0.00    +0.000 A 
ATOM     28  N   UNL     1      52.873   1.381  18.122  0.00  0.00    +0.000 NA
ATOM     29  C   UNL     1      51.920   1.013  17.331  0.00  0.00    +0.000 A 
ATOM     30  N   UNL     1      50.832   1.795  17.012  0.00  0.00    +0.000 N 
ATOM     31  C   UNL     1      50.632   3.045  17.524  0.00  0.00    +0.000 A 
ATOM     32  O   UNL     1      49.617   3.683  17.276  0.00  0.00    +0.000 OA
ATOM     33  C   UNL     1      51.698   3.514  18.393  0.00  0.00    +0.000 A 
ATOM     34  H   UNL     1      50.108   1.437  16.403  0.00  0.00    +0.000 HD
ENDBRANCH  21  24
ENDBRANCH  19  20
ENDBRANCH   4  19
TORSDOF 6
ENDMDL
MODEL 9
REMARK VINA RESULT:    -5.749      3.760      9.296
REMARK INTER + INTRA:          -8.704
REMARK INTER:                  -7.700
REMARK INTRA:                  -1.004
REMARK UNBOUND:                -0.938
REMARK  Name = 
REMARK  7 active torsions:
REMARK  status: ('A' for Active; 'I' for Inactive)
REMARK    1  A    between atoms: C_1  and  C_2
REMARK    2  A    between atoms: C_2  and  N_3
REMARK    3  A    between atoms: C_2  and  C_11
REMARK    4  A    between atoms: C_4  and  C_6
REMARK    5  A    between atoms: C_14  and  C_15
REMARK    6  A    between atoms: C_15  and  N_16
REMARK    7  A    between atoms: C_17  and  C_19
REMARK                            x       y       z     vdW  Elec       q    Type
REMARK                         _______ _______ _______ _____ _____    ______ ____
ROOT
ATOM      1  C   UNL     1      51.009   6.899  17.606  0.00  0.00    +0.000 A 
ATOM      2  C   UNL     1      51.553   7.668  16.565  0.00  0.00    +0.000 A 
ATOM      3  C   UNL     1      50.732   8.217  15.572  0.00  0.00    +0.000 A 
ATOM      4  C   UNL     1      49.344   8.021  15.595  0.00  0.00    +0.000 A 
ATOM      5  C   UNL     1      48.798   7.260  16.638  0.00  0.00    +0.000 A 
ATOM      6  C   UNL     1      49.617   6.726  17.637  0.00  0.00    +0.000 A 
ENDROOT
BRANCH   1   8
ATOM      7  C   UNL     1      53.012   7.295  19.102  0.00  0.00    +0.000 C 
ATOM      8  C   UNL     1      51.926   6.297  18.665  0.00  0.00    +0.000 C 
BRANCH   8   9
ATOM      9  N   UNL     1      52.477   5.041  18.172  0.00  0.00    +0.000 N 
ATOM     10  C   UNL     1      52.830   3.988  18.984  0.00  0.00    +0.000 C 
ATOM     11  O   UNL     1      52.804   4.035  20.213  0.00  0.00    +0.000 OA
ATOM     12  H   UNL     1      52.279   4.769  17.212  0.00  0.00    +0.000 HD
BRANCH  10  13
ATOM     13  C   UNL     1      53.325   2.735  18.245  0.00  0.00    +0.000 C 
ATOM     14  C   UNL     1      52.218   1.843  17.715  0.00  0.00    +0.000 C 
ATOM     15  C   UNL     1      52.972   0.561  17.397  0.00  0.00    +0.000 C 
ATOM     16  C   UNL     1      54.100   0.521  18.421  0.00  0.00    +0.000 C 
ATOM     17  N   UNL     1      54.058   1.806  19.144  0.00  0.00    +0.000 NA
ATOM     18  H   UNL     1      55.003   2.149  19.295  0.00  0.00    +0.000 HD
ENDBRANCH  10  13
ENDBRANCH   8   9
ENDBRANCH   1   8
BRANCH   4  19
ATOM     19  C   UNL     1      48.447   8.577  14.519  0.00  0.00    +0.000 C 
BRANCH  19  20
ATOM     20  N   UNL     1      47.449   7.622  14.113  0.00  0.00    +0.000 N 
ATOM     21  C   UNL     1      47.734   6.588  13.259  0.00  0.00    +0.000 C 
ATOM     22  O   UNL     1      48.863   6.403  12.806  0.00  0.00    +0.000 OA
ATOM     23  H   UNL     1      46.480   7.903  14.227  0.00  0.00    +0.000 HD
BRANCH  21  24
ATOM     24  C   UNL     1      46.629   5.666  12.964  0.00  0.00    +0.000 A 
ATOM     25  C   UNL     1      46.738   4.320  13.281  0.00  0.00    +0.000 A 
ATOM     26  S   UNL     1      45.340   3.415  12.903  0.00  0.00    +0.000 S 
ATOM     27  C   UNL     1      44.561   4.783  12.259  0.00  0.00    +0.000 A 
ATOM     28  N   UNL     1      43.315   4.687  11.726  0.00  0.00    +0.000 NA
ATOM     29  C   UNL     1      42.853   5.792  11.244  0.00  0.00    +0.000 A 
ATOM     30  N   UNL     1      43.532   6.991  11.265  0.00  0.00    +0.000 N 
ATOM     31  C   UNL     1      44.766   7.143  11.828  0.00  0.00    +0.000 A 
ATOM     32  O   UNL     1      45.308   8.238  11.893  0.00  0.00    +0.000 OA
ATOM     33  C   UNL     1      45.341   5.915  12.352  0.00  0.00    +0.000 A 
ATOM     34  H   UNL     1      43.102   7.827  10.889  0.00  0.00    +0.000 HD
ENDBRANCH  21  24
ENDBRANCH  19  20
ENDBRANCH   4  19
TORSDOF 6
ENDMDL
