MODEL 1
REMARK VINA RESULT:    -7.708      0.000      0.000
REMARK INTER + INTRA:         -13.227
REMARK INTER:                 -11.764
REMARK INTRA:                  -1.463
REMARK UNBOUND:                -1.463
REMARK  Name = 
REMARK  10 active torsions:
REMARK  status: ('A' for Active; 'I' for Inactive)
REMARK    1  A    between atoms: N_1  and  C_2
REMARK    2  A    between atoms: C_2  and  C_3
REMARK    3  A    between atoms: C_3  and  N_4
REMARK    4  A    between atoms: N_4  and  C_5
REMARK    5  A    between atoms: C_5  and  C_6
REMARK    6  A    between atoms: C_9  and  C_10
REMARK    7  A    between atoms: C_10  and  N_11
REMARK    8  A    between atoms: N_11  and  C_12
REMARK    9  A    between atoms: C_15  and  N_16
REMARK   10  A    between atoms: C_21  and  C_23
REMARK                            x       y       z     vdW  Elec       q    Type
REMARK                         _______ _______ _______ _____ _____    ______ ____
ROOT
ATOM      1  N   UNL     1      48.854   7.300  13.871  0.00  0.00    +0.000 N 
ATOM      2  C   UNL     1      49.636   7.782  14.955  0.00  0.00    +0.000 C 
ATOM      3  O   UNL     1      50.844   7.982  14.811  0.00  0.00    +0.000 OA
ENDROOT
BRANCH   2   4
ATOM      4  C   UNL     1      49.052   8.004  16.298  0.00  0.00    +0.000 A 
ATOM      5  C   UNL     1      48.443   9.170  16.733  0.00  0.00    +0.000 A 
ATOM      6  S   UNL     1      47.789   9.065  18.309  0.00  0.00    +0.000 S 
ATOM      7  C   UNL     1      48.157   7.410  18.412  0.00  0.00    +0.000 A 
ATOM      8  N   UNL     1      47.765   6.670  19.481  0.00  0.00    +0.000 NA
ATOM      9  C   UNL     1      48.046   5.411  19.384  0.00  0.00    +0.000 A 
ATOM     10  N   UNL     1      48.719   4.839  18.338  0.00  0.00    +0.000 N 
ATOM     11  C   UNL     1      49.254   5.570  17.300  0.00  0.00    +0.000 A 
ATOM     12  O   UNL     1      50.036   5.050  16.512  0.00  0.00    +0.000 OA
ATOM     13  C   UNL     1      48.857   6.970  17.295  0.00  0.00    +0.000 A 
ATOM     14  H   UNL     1      48.959   3.861  18.356  0.00  0.00    +0.000 HD
ENDBRANCH   2   4
BRANCH   1  15
ATOM     15  C   UNL     1      49.591   7.039  12.627  0.00  0.00    +0.000 C 
BRANCH  15  16
ATOM     16  C   UNL     1      49.637   8.236  11.654  0.00  0.00    +0.000 C 
BRANCH  16  17
ATOM     17  N   UNL     1      50.840   9.062  11.761  0.00  0.00    +0.000 NA
ATOM     18  H   UNL     1      50.663   9.849  12.382  0.00  0.00    +0.000 HD
ATOM     19  H   UNL     1      51.067   9.460  10.843  0.00  0.00    +0.000 HD
ENDBRANCH  16  17
ENDBRANCH  15  16
ENDBRANCH   1  15
BRANCH   1  20
ATOM     20  C   UNL     1      47.441   6.922  13.970  0.00  0.00    +0.000 C 
BRANCH  20  21
ATOM     21  C   UNL     1      46.792   5.898  13.049  0.00  0.00    +0.000 A 
ATOM     22  C   UNL     1      46.271   6.319  11.828  0.00  0.00    +0.000 A 
ATOM     23  C   UNL     1      45.389   5.499  11.122  0.00  0.00    +0.000 A 
ATOM     24  C   UNL     1      45.055   4.222  11.597  0.00  0.00    +0.000 A 
ATOM     25  N   UNL     1      45.579   3.762  12.761  0.00  0.00    +0.000 NA
ATOM     26  C   UNL     1      46.410   4.613  13.461  0.00  0.00    +0.000 A 
BRANCH  24  27
ATOM     27  C   UNL     1      44.037   3.448  10.731  0.00  0.00    +0.000 C 
BRANCH  27  28
ATOM     28  N   UNL     1      44.376   2.212  10.001  0.00  0.00    +0.000 NA
ATOM     29  H   UNL     1      43.541   1.904   9.502  0.00  0.00    +0.000 HD
BRANCH  28  30
ATOM     30  C   UNL     1      45.493   2.311   9.062  0.00  0.00    +0.000 C 
ATOM     31  C   UNL     1      45.785   1.036   8.255  0.00  0.00    +0.000 C 
ATOM     32  C   UNL     1      47.133   1.208   7.562  0.00  0.00    +0.000 C 
ATOM     33  C   UNL     1      47.144   2.406   6.609  0.00  0.00    +0.000 C 
ATOM     34  C   UNL     1      46.531   3.683   7.216  0.00  0.00    +0.000 C 
ATOM     35  C   UNL     1      45.242   3.422   8.013  0.00  0.00    +0.000 C 
BRANCH  33  36
ATOM     36  N   UNL     1      48.530   2.631   6.189  0.00  0.00    +0.000 NA
ATOM     37  H   UNL     1      49.146   2.649   7.003  0.00  0.00    +0.000 HD
ATOM     38  H   UNL     1      48.623   3.541   5.744  0.00  0.00    +0.000 HD
ENDBRANCH  33  36
ENDBRANCH  28  30
ENDBRANCH  27  28
ENDBRANCH  24  27
ENDBRANCH  20  21
ENDBRANCH   1  20
TORSDOF 10
ENDMDL
MODEL 2
REMARK VINA RESULT:    -7.658      1.372      1.809
REMARK INTER + INTRA:         -13.150
REMARK INTER:                 -11.688
REMARK INTRA:                  -1.463
REMARK UNBOUND:                -1.463
REMARK  Name = 
REMARK  10 active torsions:
REMARK  status: ('A' for Active; 'I' for Inactive)
REMARK    1  A    between atoms: N_1  and  C_2
REMARK    2  A    between atoms: C_2  and  C_3
REMARK    3  A    between atoms: C_3  and  N_4
REMARK    4  A    between atoms: N_4  and  C_5
REMARK    5  A    between atoms: C_5  and  C_6
REMARK    6  A    between atoms: C_9  and  C_10
REMARK    7  A    between atoms: C_10  and  N_11
REMARK    8  A    between atoms: N_11  and  C_12
REMARK    9  A    between atoms: C_15  and  N_16
REMARK   10  A    between atoms: C_21  and  C_23
REMARK                            x       y       z     vdW  Elec       q    Type
REMARK                         _______ _______ _______ _____ _____    ______ ____
ROOT
ATOM      1  N   UNL     1      48.694   7.216  13.963  0.00  0.00    +0.000 N 
ATOM      2  C   UNL     1      49.347   6.765  15.141  0.00  0.00    +0.000 C 
ATOM      3  O   UNL     1      50.574   6.833  15.239  0.00  0.00    +0.000 OA
ENDROOT
BRANCH   2   4
ATOM      4  C   UNL     1      48.596   6.150  16.260  0.00  0.00    +0.000 A 
ATOM      5  C   UNL     1      48.185   4.828  16.329  0.00  0.00    +0.000 A 
ATOM      6  S   UNL     1      47.421   4.415  17.802  0.00  0.00    +0.000 S 
ATOM      7  C   UNL     1      47.749   5.944  18.465  0.00  0.00    +0.000 A 
ATOM      8  N   UNL     1      47.448   6.225  19.759  0.00  0.00    +0.000 NA
ATOM      9  C   UNL     1      47.827   7.401  20.146  0.00  0.00    +0.000 A 
ATOM     10  N   UNL     1      48.437   8.328  19.344  0.00  0.00    +0.000 N 
ATOM     11  C   UNL     1      48.637   8.139  17.994  0.00  0.00    +0.000 A 
ATOM     12  O   UNL     1      48.976   9.075  17.280  0.00  0.00    +0.000 OA
ATOM     13  C   UNL     1      48.347   6.788  17.538  0.00  0.00    +0.000 A 
ATOM     14  H   UNL     1      48.649   9.248  19.695  0.00  0.00    +0.000 HD
ENDBRANCH   2   4
BRANCH   1  15
ATOM     15  C   UNL     1      49.579   7.716  12.901  0.00  0.00    +0.000 C 
BRANCH  15  16
ATOM     16  C   UNL     1      49.709   9.253  12.855  0.00  0.00    +0.000 C 
BRANCH  16  17
ATOM     17  N   UNL     1      50.428   9.838  13.986  0.00  0.00    +0.000 NA
ATOM     18  H   UNL     1      50.421   9.191  14.772  0.00  0.00    +0.000 HD
ATOM     19  H   UNL     1      49.944  10.686  14.301  0.00  0.00    +0.000 HD
ENDBRANCH  16  17
ENDBRANCH  15  16
ENDBRANCH   1  15
BRANCH   1  20
ATOM     20  C   UNL     1      47.258   7.072  13.702  0.00  0.00    +0.000 C 
BRANCH  20  21
ATOM     21  C   UNL     1      46.687   5.997  12.787  0.00  0.00    +0.000 A 
ATOM     22  C   UNL     1      46.314   6.340  11.489  0.00  0.00    +0.000 A 
ATOM     23  C   UNL     1      45.493   5.487  10.749  0.00  0.00    +0.000 A 
ATOM     24  C   UNL     1      45.075   4.254  11.271  0.00  0.00    +0.000 A 
ATOM     25  N   UNL     1      45.456   3.869  12.515  0.00  0.00    +0.000 NA
ATOM     26  C   UNL     1      46.228   4.752  13.243  0.00  0.00    +0.000 A 
BRANCH  24  27
ATOM     27  C   UNL     1      44.138   3.439  10.353  0.00  0.00    +0.000 C 
BRANCH  27  28
ATOM     28  N   UNL     1      44.511   2.134   9.776  0.00  0.00    +0.000 NA
ATOM     29  H   UNL     1      43.679   1.734   9.342  0.00  0.00    +0.000 HD
BRANCH  28  30
ATOM     30  C   UNL     1      45.604   2.155   8.804  0.00  0.00    +0.000 C 
ATOM     31  C   UNL     1      45.875   0.817   8.095  0.00  0.00    +0.000 C 
ATOM     32  C   UNL     1      47.203   0.930   7.356  0.00  0.00    +0.000 C 
ATOM     33  C   UNL     1      47.190   2.048   6.309  0.00  0.00    +0.000 C 
ATOM     34  C   UNL     1      46.593   3.371   6.827  0.00  0.00    +0.000 C 
ATOM     35  C   UNL     1      45.326   3.177   7.675  0.00  0.00    +0.000 C 
BRANCH  33  36
ATOM     36  N   UNL     1      48.565   2.234   5.837  0.00  0.00    +0.000 NA
ATOM     37  H   UNL     1      48.821   3.221   5.881  0.00  0.00    +0.000 HD
ATOM     38  H   UNL     1      48.645   1.964   4.860  0.00  0.00    +0.000 HD
ENDBRANCH  33  36
ENDBRANCH  28  30
ENDBRANCH  27  28
ENDBRANCH  24  27
ENDBRANCH  20  21
ENDBRANCH   1  20
TORSDOF 10
ENDMDL
MODEL 3
REMARK VINA RESULT:    -7.511      2.013      2.581
REMARK INTER + INTRA:         -12.926
REMARK INTER:                 -11.436
REMARK INTRA:                  -1.490
REMARK UNBOUND:                -1.463
REMARK  Name = 
REMARK  10 active torsions:
REMARK  status: ('A' for Active; 'I' for Inactive)
REMARK    1  A    between atoms: N_1  and  C_2
REMARK    2  A    between atoms: C_2  and  C_3
REMARK    3  A    between atoms: C_3  and  N_4
REMARK    4  A    between atoms: N_4  and  C_5
REMARK    5  A    between atoms: C_5  and  C_6
REMARK    6  A    between atoms: C_9  and  C_10
REMARK    7  A    between atoms: C_10  and  N_11
REMARK    8  A    between atoms: N_11  and  C_12
REMARK    9  A    between atoms: C_15  and  N_16
REMARK   10  A    between atoms: C_21  and  C_23
REMARK                            x       y       z     vdW  Elec       q    Type
REMARK                         _______ _______ _______ _____ _____    ______ ____
ROOT
ATOM      1  N   UNL     1      48.394   7.264  14.818  0.00  0.00    +0.000 N 
ATOM      2  C   UNL     1      48.553   7.059  16.215  0.00  0.00    +0.000 C 
ATOM      3  O   UNL     1      48.661   8.022  16.978  0.00  0.00    +0.000 OA
ENDROOT
BRANCH   2   4
ATOM      4  C   UNL     1      48.653   5.701  16.796  0.00  0.00    +0.000 A 
ATOM      5  C   UNL     1      47.614   4.791  16.911  0.00  0.00    +0.000 A 
ATOM      6  S   UNL     1      48.087   3.274  17.543  0.00  0.00    +0.000 S 
ATOM      7  C   UNL     1      49.725   3.722  17.542  0.00  0.00    +0.000 A 
ATOM      8  N   UNL     1      50.695   2.831  17.875  0.00  0.00    +0.000 NA
ATOM      9  C   UNL     1      51.899   3.290  17.753  0.00  0.00    +0.000 A 
ATOM     10  N   UNL     1      52.212   4.567  17.372  0.00  0.00    +0.000 N 
ATOM     11  C   UNL     1      51.263   5.542  17.158  0.00  0.00    +0.000 A 
ATOM     12  O   UNL     1      51.594   6.716  17.041  0.00  0.00    +0.000 OA
ATOM     13  C   UNL     1      49.895   5.045  17.156  0.00  0.00    +0.000 A 
ATOM     14  H   UNL     1      53.171   4.876  17.357  0.00  0.00    +0.000 HD
ENDBRANCH   2   4
BRANCH   1  15
ATOM     15  C   UNL     1      48.406   8.666  14.379  0.00  0.00    +0.000 C 
BRANCH  15  16
ATOM     16  C   UNL     1      49.780   9.163  13.881  0.00  0.00    +0.000 C 
BRANCH  16  17
ATOM     17  N   UNL     1      50.873   8.996  14.839  0.00  0.00    +0.000 NA
ATOM     18  H   UNL     1      51.406   8.158  14.613  0.00  0.00    +0.000 HD
ATOM     19  H   UNL     1      50.488   8.852  15.779  0.00  0.00    +0.000 HD
ENDBRANCH  16  17
ENDBRANCH  15  16
ENDBRANCH   1  15
BRANCH   1  20
ATOM     20  C   UNL     1      48.374   6.191  13.819  0.00  0.00    +0.000 C 
BRANCH  20  21
ATOM     21  C   UNL     1      47.102   5.743  13.111  0.00  0.00    +0.000 A 
ATOM     22  C   UNL     1      46.507   4.540  13.484  0.00  0.00    +0.000 A 
ATOM     23  C   UNL     1      45.559   3.942  12.654  0.00  0.00    +0.000 A 
ATOM     24  C   UNL     1      45.147   4.560  11.464  0.00  0.00    +0.000 A 
ATOM     25  N   UNL     1      45.674   5.754  11.092  0.00  0.00    +0.000 NA
ATOM     26  C   UNL     1      46.645   6.300  11.908  0.00  0.00    +0.000 A 
BRANCH  24  27
ATOM     27  C   UNL     1      44.123   3.760  10.630  0.00  0.00    +0.000 C 
BRANCH  27  28
ATOM     28  N   UNL     1      44.433   2.460  10.006  0.00  0.00    +0.000 NA
ATOM     29  H   UNL     1      43.589   2.127   9.540  0.00  0.00    +0.000 HD
BRANCH  28  30
ATOM     30  C   UNL     1      45.545   2.457   9.056  0.00  0.00    +0.000 C 
ATOM     31  C   UNL     1      45.754   1.136   8.298  0.00  0.00    +0.000 C 
ATOM     32  C   UNL     1      47.102   1.201   7.589  0.00  0.00    +0.000 C 
ATOM     33  C   UNL     1      47.175   2.359   6.589  0.00  0.00    +0.000 C 
ATOM     34  C   UNL     1      46.643   3.692   7.150  0.00  0.00    +0.000 C 
ATOM     35  C   UNL     1      45.349   3.538   7.965  0.00  0.00    +0.000 C 
BRANCH  33  36
ATOM     36  N   UNL     1      48.568   2.485   6.151  0.00  0.00    +0.000 NA
ATOM     37  H   UNL     1      48.608   2.894   5.217  0.00  0.00    +0.000 HD
ATOM     38  H   UNL     1      49.001   1.567   6.077  0.00  0.00    +0.000 HD
ENDBRANCH  33  36
ENDBRANCH  28  30
ENDBRANCH  27  28
ENDBRANCH  24  27
ENDBRANCH  20  21
ENDBRANCH   1  20
TORSDOF 10
ENDMDL
MODEL 4
REMARK VINA RESULT:    -7.205      3.904      8.646
REMARK INTER + INTRA:         -12.458
REMARK INTER:                 -11.128
REMARK INTRA:                  -1.330
REMARK UNBOUND:                -1.463
REMARK  Name = 
REMARK  10 active torsions:
REMARK  status: ('A' for Active; 'I' for Inactive)
REMARK    1  A    between atoms: N_1  and  C_2
REMARK    2  A    between atoms: C_2  and  C_3
REMARK    3  A    between atoms: C_3  and  N_4
REMARK    4  A    between atoms: N_4  and  C_5
REMARK    5  A    between atoms: C_5  and  C_6
REMARK    6  A    between atoms: C_9  and  C_10
REMARK    7  A    between atoms: C_10  and  N_11
REMARK    8  A    between atoms: N_11  and  C_12
REMARK    9  A    between atoms: C_15  and  N_16
REMARK   10  A    between atoms: C_21  and  C_23
REMARK                            x       y       z     vdW  Elec       q    Type
REMARK                         _______ _______ _______ _____ _____    ______ ____
ROOT
ATOM      1  N   UNL     1      46.065   7.130  11.759  0.00  0.00    +0.000 N 
ATOM      2  C   UNL     1      44.787   6.663  11.351  0.00  0.00    +0.000 C 
ATOM      3  O   UNL     1      43.898   7.463  11.051  0.00  0.00    +0.000 OA
ENDROOT
BRANCH   2   4
ATOM      4  C   UNL     1      44.457   5.220  11.326  0.00  0.00    +0.000 A 
ATOM      5  C   UNL     1      43.663   4.555  12.248  0.00  0.00    +0.000 A 
ATOM      6  S   UNL     1      43.402   2.906  11.877  0.00  0.00    +0.000 S 
ATOM      7  C   UNL     1      44.211   3.055  10.391  0.00  0.00    +0.000 A 
ATOM      8  N   UNL     1      44.261   2.019   9.514  0.00  0.00    +0.000 NA
ATOM      9  C   UNL     1      44.841   2.303   8.393  0.00  0.00    +0.000 A 
ATOM     10  N   UNL     1      45.409   3.512   8.092  0.00  0.00    +0.000 N 
ATOM     11  C   UNL     1      45.503   4.545   8.999  0.00  0.00    +0.000 A 
ATOM     12  O   UNL     1      46.214   5.515   8.764  0.00  0.00    +0.000 OA
ATOM     13  C   UNL     1      44.755   4.322  10.227  0.00  0.00    +0.000 A 
ATOM     14  H   UNL     1      45.900   3.646   7.222  0.00  0.00    +0.000 HD
ENDBRANCH   2   4
BRANCH   1  15
ATOM     15  C   UNL     1      46.214   8.591  11.824  0.00  0.00    +0.000 C 
BRANCH  15  16
ATOM     16  C   UNL     1      45.415   9.260  12.962  0.00  0.00    +0.000 C 
BRANCH  16  17
ATOM     17  N   UNL     1      44.334  10.138  12.514  0.00  0.00    +0.000 NA
ATOM     18  H   UNL     1      43.560   9.579  12.161  0.00  0.00    +0.000 HD
ATOM     19  H   UNL     1      44.660  10.713  11.730  0.00  0.00    +0.000 HD
ENDBRANCH  16  17
ENDBRANCH  15  16
ENDBRANCH   1  15
BRANCH   1  20
ATOM     20  C   UNL     1      47.148   6.268  12.246  0.00  0.00    +0.000 C 
BRANCH  20  21
ATOM     21  C   UNL     1      47.319   5.905  13.714  0.00  0.00    +0.000 A 
ATOM     22  C   UNL     1      48.222   6.628  14.490  0.00  0.00    +0.000 A 
ATOM     23  C   UNL     1      48.648   6.124  15.720  0.00  0.00    +0.000 A 
ATOM     24  C   UNL     1      48.140   4.916  16.221  0.00  0.00    +0.000 A 
ATOM     25  N   UNL     1      47.226   4.207  15.510  0.00  0.00    +0.000 NA
ATOM     26  C   UNL     1      46.858   4.705  14.277  0.00  0.00    +0.000 A 
BRANCH  24  27
ATOM     27  C   UNL     1      48.736   4.465  17.572  0.00  0.00    +0.000 C 
BRANCH  27  28
ATOM     28  N   UNL     1      50.154   4.655  17.930  0.00  0.00    +0.000 NA
ATOM     29  H   UNL     1      50.191   5.217  18.780  0.00  0.00    +0.000 HD
BRANCH  28  30
ATOM     30  C   UNL     1      50.933   3.431  18.124  0.00  0.00    +0.000 C 
ATOM     31  C   UNL     1      50.608   2.288  17.149  0.00  0.00    +0.000 C 
ATOM     32  C   UNL     1      51.275   1.017  17.665  0.00  0.00    +0.000 C 
ATOM     33  C   UNL     1      52.796   1.161  17.764  0.00  0.00    +0.000 C 
ATOM     34  C   UNL     1      53.249   2.477  18.428  0.00  0.00    +0.000 C 
ATOM     35  C   UNL     1      52.448   3.703  17.959  0.00  0.00    +0.000 C 
BRANCH  33  36
ATOM     36  N   UNL     1      53.309  -0.003  18.491  0.00  0.00    +0.000 NA
ATOM     37  H   UNL     1      53.782   0.295  19.345  0.00  0.00    +0.000 HD
ATOM     38  H   UNL     1      54.009  -0.489  17.934  0.00  0.00    +0.000 HD
ENDBRANCH  33  36
ENDBRANCH  28  30
ENDBRANCH  27  28
ENDBRANCH  24  27
ENDBRANCH  20  21
ENDBRANCH   1  20
TORSDOF 10
ENDMDL
MODEL 5
REMARK VINA RESULT:    -6.838      3.598      8.590
REMARK INTER + INTRA:         -11.899
REMARK INTER:                 -10.690
REMARK INTRA:                  -1.209
REMARK UNBOUND:                -1.463
REMARK  Name = 
REMARK  10 active torsions:
REMARK  status: ('A' for Active; 'I' for Inactive)
REMARK    1  A    between atoms: N_1  and  C_2
REMARK    2  A    between atoms: C_2  and  C_3
REMARK    3  A    between atoms: C_3  and  N_4
REMARK    4  A    between atoms: N_4  and  C_5
REMARK    5  A    between atoms: C_5  and  C_6
REMARK    6  A    between atoms: C_9  and  C_10
REMARK    7  A    between atoms: C_10  and  N_11
REMARK    8  A    between atoms: N_11  and  C_12
REMARK    9  A    between atoms: C_15  and  N_16
REMARK   10  A    between atoms: C_21  and  C_23
REMARK                            x       y       z     vdW  Elec       q    Type
REMARK                         _______ _______ _______ _____ _____    ______ ____
ROOT
ATOM      1  N   UNL     1      46.150   7.091  11.986  0.00  0.00    +0.000 N 
ATOM      2  C   UNL     1      44.847   6.672  11.605  0.00  0.00    +0.000 C 
ATOM      3  O   UNL     1      43.959   7.503  11.402  0.00  0.00    +0.000 OA
ENDROOT
BRANCH   2   4
ATOM      4  C   UNL     1      44.492   5.238  11.496  0.00  0.00    +0.000 A 
ATOM      5  C   UNL     1      43.714   4.526  12.395  0.00  0.00    +0.000 A 
ATOM      6  S   UNL     1      43.415   2.909  11.926  0.00  0.00    +0.000 S 
ATOM      7  C   UNL     1      44.182   3.144  10.428  0.00  0.00    +0.000 A 
ATOM      8  N   UNL     1      44.188   2.168   9.484  0.00  0.00    +0.000 NA
ATOM      9  C   UNL     1      44.740   2.516   8.367  0.00  0.00    +0.000 A 
ATOM     10  N   UNL     1      45.319   3.734   8.129  0.00  0.00    +0.000 N 
ATOM     11  C   UNL     1      45.458   4.703   9.099  0.00  0.00    +0.000 A 
ATOM     12  O   UNL     1      46.177   5.676   8.906  0.00  0.00    +0.000 OA
ATOM     13  C   UNL     1      44.742   4.411  10.332  0.00  0.00    +0.000 A 
ATOM     14  H   UNL     1      45.786   3.917   7.255  0.00  0.00    +0.000 HD
ENDBRANCH   2   4
BRANCH   1  15
ATOM     15  C   UNL     1      46.326   8.542  12.144  0.00  0.00    +0.000 C 
BRANCH  15  16
ATOM     16  C   UNL     1      47.504   8.941  13.058  0.00  0.00    +0.000 C 
BRANCH  16  17
ATOM     17  N   UNL     1      47.139   9.179  14.455  0.00  0.00    +0.000 NA
ATOM     18  H   UNL     1      47.970   9.411  14.994  0.00  0.00    +0.000 HD
ATOM     19  H   UNL     1      46.756   8.320  14.862  0.00  0.00    +0.000 HD
ENDBRANCH  16  17
ENDBRANCH  15  16
ENDBRANCH   1  15
BRANCH   1  20
ATOM     20  C   UNL     1      47.239   6.183  12.361  0.00  0.00    +0.000 C 
BRANCH  20  21
ATOM     21  C   UNL     1      47.194   5.309  13.607  0.00  0.00    +0.000 A 
ATOM     22  C   UNL     1      47.579   5.854  14.830  0.00  0.00    +0.000 A 
ATOM     23  C   UNL     1      47.870   5.016  15.908  0.00  0.00    +0.000 A 
ATOM     24  C   UNL     1      47.729   3.624  15.801  0.00  0.00    +0.000 A 
ATOM     25  N   UNL     1      47.314   3.064  14.637  0.00  0.00    +0.000 NA
ATOM     26  C   UNL     1      47.079   3.911  13.574  0.00  0.00    +0.000 A 
BRANCH  24  27
ATOM     27  C   UNL     1      48.127   2.827  17.062  0.00  0.00    +0.000 C 
BRANCH  27  28
ATOM     28  N   UNL     1      49.527   2.522  17.414  0.00  0.00    +0.000 NA
ATOM     29  H   UNL     1      49.919   1.947  16.669  0.00  0.00    +0.000 HD
BRANCH  28  30
ATOM     30  C   UNL     1      50.394   3.678  17.642  0.00  0.00    +0.000 C 
ATOM     31  C   UNL     1      50.049   4.520  18.881  0.00  0.00    +0.000 C 
ATOM     32  C   UNL     1      50.840   5.822  18.808  0.00  0.00    +0.000 C 
ATOM     33  C   UNL     1      52.351   5.581  18.782  0.00  0.00    +0.000 C 
ATOM     34  C   UNL     1      52.782   4.475  17.799  0.00  0.00    +0.000 C 
ATOM     35  C   UNL     1      51.867   3.240  17.830  0.00  0.00    +0.000 C 
BRANCH  33  36
ATOM     36  N   UNL     1      53.002   6.856  18.466  0.00  0.00    +0.000 NA
ATOM     37  H   UNL     1      52.325   7.618  18.516  0.00  0.00    +0.000 HD
ATOM     38  H   UNL     1      53.351   6.848  17.510  0.00  0.00    +0.000 HD
ENDBRANCH  33  36
ENDBRANCH  28  30
ENDBRANCH  27  28
ENDBRANCH  24  27
ENDBRANCH  20  21
ENDBRANCH   1  20
TORSDOF 10
ENDMDL
MODEL 6
REMARK VINA RESULT:    -6.729      2.451      3.214
REMARK INTER + INTRA:         -11.732
REMARK INTER:                 -10.686
REMARK INTRA:                  -1.046
REMARK UNBOUND:                -1.463
REMARK  Name = 
REMARK  10 active torsions:
REMARK  status: ('A' for Active; 'I' for Inactive)
REMARK    1  A    between atoms: N_1  and  C_2
REMARK    2  A    between atoms: C_2  and  C_3
REMARK    3  A    between atoms: C_3  and  N_4
REMARK    4  A    between atoms: N_4  and  C_5
REMARK    5  A    between atoms: C_5  and  C_6
REMARK    6  A    between atoms: C_9  and  C_10
REMARK    7  A    between atoms: C_10  and  N_11
REMARK    8  A    between atoms: N_11  and  C_12
REMARK    9  A    between atoms: C_15  and  N_16
REMARK   10  A    between atoms: C_21  and  C_23
REMARK                            x       y       z     vdW  Elec       q    Type
REMARK                         _______ _______ _______ _____ _____    ______ ____
ROOT
ATOM      1  N   UNL     1      47.586   8.322  13.523  0.00  0.00    +0.000 N 
ATOM      2  C   UNL     1      48.645   9.135  14.009  0.00  0.00    +0.000 C 
ATOM      3  O   UNL     1      48.410  10.253  14.471  0.00  0.00    +0.000 OA
ENDROOT
BRANCH   2   4
ATOM      4  C   UNL     1      50.059   8.701  13.928  0.00  0.00    +0.000 A 
ATOM      5  C   UNL     1      51.010   9.202  13.053  0.00  0.00    +0.000 A 
ATOM      6  S   UNL     1      52.575   8.552  13.283  0.00  0.00    +0.000 S 
ATOM      7  C   UNL     1      52.076   7.692  14.661  0.00  0.00    +0.000 A 
ATOM      8  N   UNL     1      52.967   6.997  15.413  0.00  0.00    +0.000 NA
ATOM      9  C   UNL     1      52.457   6.458  16.473  0.00  0.00    +0.000 A 
ATOM     10  N   UNL     1      51.134   6.519  16.820  0.00  0.00    +0.000 N 
ATOM     11  C   UNL     1      50.172   7.095  16.019  0.00  0.00    +0.000 A 
ATOM     12  O   UNL     1      48.982   6.928  16.259  0.00  0.00    +0.000 OA
ATOM     13  C   UNL     1      50.711   7.825  14.881  0.00  0.00    +0.000 A 
ATOM     14  H   UNL     1      50.793   6.024  17.629  0.00  0.00    +0.000 HD
ENDBRANCH   2   4
BRANCH   1  15
ATOM     15  C   UNL     1      46.247   8.925  13.584  0.00  0.00    +0.000 C 
BRANCH  15  16
ATOM     16  C   UNL     1      45.867   9.754  12.339  0.00  0.00    +0.000 C 
BRANCH  16  17
ATOM     17  N   UNL     1      44.462  10.156  12.279  0.00  0.00    +0.000 NA
ATOM     18  H   UNL     1      44.294  10.919  12.932  0.00  0.00    +0.000 HD
ATOM     19  H   UNL     1      43.868   9.377  12.582  0.00  0.00    +0.000 HD
ENDBRANCH  16  17
ENDBRANCH  15  16
ENDBRANCH   1  15
BRANCH   1  20
ATOM     20  C   UNL     1      47.770   7.031  12.851  0.00  0.00    +0.000 C 
BRANCH  20  21
ATOM     21  C   UNL     1      46.614   6.228  12.271  0.00  0.00    +0.000 A 
ATOM     22  C   UNL     1      46.235   5.041  12.894  0.00  0.00    +0.000 A 
ATOM     23  C   UNL     1      45.426   4.125  12.219  0.00  0.00    +0.000 A 
ATOM     24  C   UNL     1      44.937   4.402  10.933  0.00  0.00    +0.000 A 
ATOM     25  N   UNL     1      45.252   5.568  10.315  0.00  0.00    +0.000 NA
ATOM     26  C   UNL     1      46.092   6.434  10.986  0.00  0.00    +0.000 A 
BRANCH  24  27
ATOM     27  C   UNL     1      44.091   3.277  10.299  0.00  0.00    +0.000 C 
BRANCH  27  28
ATOM     28  N   UNL     1      44.669   2.012   9.809  0.00  0.00    +0.000 NA
ATOM     29  H   UNL     1      43.904   1.424   9.480  0.00  0.00    +0.000 HD
BRANCH  28  30
ATOM     30  C   UNL     1      45.675   2.136   8.754  0.00  0.00    +0.000 C 
ATOM     31  C   UNL     1      46.069   0.818   8.068  0.00  0.00    +0.000 C 
ATOM     32  C   UNL     1      47.313   1.074   7.223  0.00  0.00    +0.000 C 
ATOM     33  C   UNL     1      47.073   2.136   6.147  0.00  0.00    +0.000 C 
ATOM     34  C   UNL     1      46.344   3.390   6.669  0.00  0.00    +0.000 C 
ATOM     35  C   UNL     1      45.180   3.067   7.620  0.00  0.00    +0.000 C 
BRANCH  33  36
ATOM     36  N   UNL     1      48.372   2.482   5.563  0.00  0.00    +0.000 NA
ATOM     37  H   UNL     1      48.977   2.899   6.272  0.00  0.00    +0.000 HD
ATOM     38  H   UNL     1      48.259   3.186   4.837  0.00  0.00    +0.000 HD
ENDBRANCH  33  36
ENDBRANCH  28  30
ENDBRANCH  27  28
ENDBRANCH  24  27
ENDBRANCH  20  21
ENDBRANCH   1  20
TORSDOF 10
ENDMDL
MODEL 7
REMARK VINA RESULT:    -6.194      1.919      3.762
REMARK INTER + INTRA:         -10.916
REMARK INTER:                  -9.478
REMARK INTRA:                  -1.437
REMARK UNBOUND:                -1.463
REMARK  Name = 
REMARK  10 active torsions:
REMARK  status: ('A' for Active; 'I' for Inactive)
REMARK    1  A    between atoms: N_1  and  C_2
REMARK    2  A    between atoms: C_2  and  C_3
REMARK    3  A    between atoms: C_3  and  N_4
REMARK    4  A    between atoms: N_4  and  C_5
REMARK    5  A    between atoms: C_5  and  C_6
REMARK    6  A    between atoms: C_9  and  C_10
REMARK    7  A    between atoms: C_10  and  N_11
REMARK    8  A    between atoms: N_11  and  C_12
REMARK    9  A    between atoms: C_15  and  N_16
REMARK   10  A    between atoms: C_21  and  C_23
REMARK                            x       y       z     vdW  Elec       q    Type
REMARK                         _______ _______ _______ _____ _____    ______ ____
ROOT
ATOM      1  N   UNL     1      49.557   5.011  17.392  0.00  0.00    +0.000 N 
ATOM      2  C   UNL     1      50.031   6.198  18.011  0.00  0.00    +0.000 C 
ATOM      3  O   UNL     1      51.184   6.259  18.443  0.00  0.00    +0.000 OA
ENDROOT
BRANCH   2   4
ATOM      4  C   UNL     1      49.154   7.375  18.211  0.00  0.00    +0.000 A 
ATOM      5  C   UNL     1      48.315   7.585  19.294  0.00  0.00    +0.000 A 
ATOM      6  S   UNL     1      47.508   9.092  19.265  0.00  0.00    +0.000 S 
ATOM      7  C   UNL     1      48.365   9.588  17.885  0.00  0.00    +0.000 A 
ATOM      8  N   UNL     1      48.226  10.843  17.387  0.00  0.00    +0.000 NA
ATOM      9  C   UNL     1      48.999  11.103  16.383  0.00  0.00    +0.000 A 
ATOM     10  N   UNL     1      49.862  10.207  15.811  0.00  0.00    +0.000 N 
ATOM     11  C   UNL     1      49.938   8.886  16.194  0.00  0.00    +0.000 A 
ATOM     12  O   UNL     1      50.553   8.076  15.511  0.00  0.00    +0.000 OA
ATOM     13  C   UNL     1      49.185   8.576  17.400  0.00  0.00    +0.000 A 
ATOM     14  H   UNL     1      50.391  10.458  14.990  0.00  0.00    +0.000 HD
ENDBRANCH   2   4
BRANCH   1  15
ATOM     15  C   UNL     1      50.513   3.895  17.349  0.00  0.00    +0.000 C 
BRANCH  15  16
ATOM     16  C   UNL     1      49.861   2.499  17.434  0.00  0.00    +0.000 C 
BRANCH  16  17
ATOM     17  N   UNL     1      49.795   1.779  16.162  0.00  0.00    +0.000 NA
ATOM     18  H   UNL     1      49.775   2.442  15.390  0.00  0.00    +0.000 HD
ATOM     19  H   UNL     1      48.920   1.247  16.113  0.00  0.00    +0.000 HD
ENDBRANCH  16  17
ENDBRANCH  15  16
ENDBRANCH   1  15
BRANCH   1  20
ATOM     20  C   UNL     1      48.174   4.798  16.951  0.00  0.00    +0.000 C 
BRANCH  20  21
ATOM     21  C   UNL     1      47.754   4.858  15.489  0.00  0.00    +0.000 A 
ATOM     22  C   UNL     1      47.902   6.054  14.790  0.00  0.00    +0.000 A 
ATOM     23  C   UNL     1      47.234   6.245  13.580  0.00  0.00    +0.000 A 
ATOM     24  C   UNL     1      46.449   5.226  13.020  0.00  0.00    +0.000 A 
ATOM     25  N   UNL     1      46.317   4.033  13.653  0.00  0.00    +0.000 NA
ATOM     26  C   UNL     1      46.951   3.889  14.870  0.00  0.00    +0.000 A 
BRANCH  24  27
ATOM     27  C   UNL     1      45.738   5.598  11.700  0.00  0.00    +0.000 C 
BRANCH  27  28
ATOM     28  N   UNL     1      44.848   4.672  10.976  0.00  0.00    +0.000 NA
ATOM     29  H   UNL     1      44.085   5.218  10.576  0.00  0.00    +0.000 HD
BRANCH  28  30
ATOM     30  C   UNL     1      45.477   3.874   9.924  0.00  0.00    +0.000 C 
ATOM     31  C   UNL     1      44.723   2.592   9.536  0.00  0.00    +0.000 C 
ATOM     32  C   UNL     1      45.641   1.744   8.662  0.00  0.00    +0.000 C 
ATOM     33  C   UNL     1      46.060   2.475   7.383  0.00  0.00    +0.000 C 
ATOM     34  C   UNL     1      46.511   3.929   7.623  0.00  0.00    +0.000 C 
ATOM     35  C   UNL     1      45.616   4.689   8.615  0.00  0.00    +0.000 C 
BRANCH  33  36
ATOM     36  N   UNL     1      47.119   1.688   6.745  0.00  0.00    +0.000 NA
ATOM     37  H   UNL     1      46.794   0.737   6.568  0.00  0.00    +0.000 HD
ATOM     38  H   UNL     1      47.921   1.603   7.367  0.00  0.00    +0.000 HD
ENDBRANCH  33  36
ENDBRANCH  28  30
ENDBRANCH  27  28
ENDBRANCH  24  27
ENDBRANCH  20  21
ENDBRANCH   1  20
TORSDOF 10
ENDMDL
MODEL 8
REMARK VINA RESULT:    -6.161      3.792      8.666
REMARK INTER + INTRA:         -10.865
REMARK INTER:                  -9.456
REMARK INTRA:                  -1.410
REMARK UNBOUND:                -1.463
REMARK  Name = 
REMARK  10 active torsions:
REMARK  status: ('A' for Active; 'I' for Inactive)
REMARK    1  A    between atoms: N_1  and  C_2
REMARK    2  A    between atoms: C_2  and  C_3
REMARK    3  A    between atoms: C_3  and  N_4
REMARK    4  A    between atoms: N_4  and  C_5
REMARK    5  A    between atoms: C_5  and  C_6
REMARK    6  A    between atoms: C_9  and  C_10
REMARK    7  A    between atoms: C_10  and  N_11
REMARK    8  A    between atoms: N_11  and  C_12
REMARK    9  A    between atoms: C_15  and  N_16
REMARK   10  A    between atoms: C_21  and  C_23
REMARK                            x       y       z     vdW  Elec       q    Type
REMARK                         _______ _______ _______ _____ _____    ______ ____
ROOT
ATOM      1  N   UNL     1      46.391   7.568  12.130  0.00  0.00    +0.000 N 
ATOM      2  C   UNL     1      45.186   7.273  11.437  0.00  0.00    +0.000 C 
ATOM      3  O   UNL     1      44.252   8.078  11.442  0.00  0.00    +0.000 OA
ENDROOT
BRANCH   2   4
ATOM      4  C   UNL     1      44.983   5.982  10.742  0.00  0.00    +0.000 A 
ATOM      5  C   UNL     1      45.554   5.615   9.533  0.00  0.00    +0.000 A 
ATOM      6  S   UNL     1      45.190   4.016   9.050  0.00  0.00    +0.000 S 
ATOM      7  C   UNL     1      44.385   3.699  10.512  0.00  0.00    +0.000 A 
ATOM      8  N   UNL     1      43.913   2.458  10.796  0.00  0.00    +0.000 NA
ATOM      9  C   UNL     1      43.394   2.347  11.977  0.00  0.00    +0.000 A 
ATOM     10  N   UNL     1      43.269   3.374  12.874  0.00  0.00    +0.000 N 
ATOM     11  C   UNL     1      43.608   4.676  12.577  0.00  0.00    +0.000 A 
ATOM     12  O   UNL     1      43.271   5.590  13.321  0.00  0.00    +0.000 OA
ATOM     13  C   UNL     1      44.313   4.831  11.314  0.00  0.00    +0.000 A 
ATOM     14  H   UNL     1      42.798   3.232  13.753  0.00  0.00    +0.000 HD
ENDBRANCH   2   4
BRANCH   1  15
ATOM     15  C   UNL     1      46.409   8.848  12.851  0.00  0.00    +0.000 C 
BRANCH  15  16
ATOM     16  C   UNL     1      47.797   9.519  12.915  0.00  0.00    +0.000 C 
BRANCH  16  17
ATOM     17  N   UNL     1      48.250   9.857  14.265  0.00  0.00    +0.000 NA
ATOM     18  H   UNL     1      48.222   9.028  14.855  0.00  0.00    +0.000 HD
ATOM     19  H   UNL     1      47.607  10.536  14.684  0.00  0.00    +0.000 HD
ENDBRANCH  16  17
ENDBRANCH  15  16
ENDBRANCH   1  15
BRANCH   1  20
ATOM     20  C   UNL     1      47.511   6.633  12.282  0.00  0.00    +0.000 C 
BRANCH  20  21
ATOM     21  C   UNL     1      47.702   5.766  13.519  0.00  0.00    +0.000 A 
ATOM     22  C   UNL     1      46.927   4.618  13.668  0.00  0.00    +0.000 A 
ATOM     23  C   UNL     1      46.831   3.996  14.914  0.00  0.00    +0.000 A 
ATOM     24  C   UNL     1      47.551   4.476  16.019  0.00  0.00    +0.000 A 
ATOM     25  N   UNL     1      48.350   5.566  15.897  0.00  0.00    +0.000 NA
ATOM     26  C   UNL     1      48.388   6.189  14.667  0.00  0.00    +0.000 A 
BRANCH  24  27
ATOM     27  C   UNL     1      47.312   3.710  17.338  0.00  0.00    +0.000 C 
BRANCH  27  28
ATOM     28  N   UNL     1      48.401   3.330  18.257  0.00  0.00    +0.000 NA
ATOM     29  H   UNL     1      49.099   2.816  17.719  0.00  0.00    +0.000 HD
BRANCH  28  30
ATOM     30  C   UNL     1      49.050   4.431  18.968  0.00  0.00    +0.000 C 
ATOM     31  C   UNL     1      48.795   4.472  20.483  0.00  0.00    +0.000 C 
ATOM     32  C   UNL     1      49.282   5.816  21.013  0.00  0.00    +0.000 C 
ATOM     33  C   UNL     1      50.777   6.031  20.760  0.00  0.00    +0.000 C 
ATOM     34  C   UNL     1      51.218   5.671  19.328  0.00  0.00    +0.000 C 
ATOM     35  C   UNL     1      50.589   4.369  18.805  0.00  0.00    +0.000 C 
BRANCH  33  36
ATOM     36  N   UNL     1      51.088   7.427  21.077  0.00  0.00    +0.000 NA
ATOM     37  H   UNL     1      50.728   8.042  20.346  0.00  0.00    +0.000 HD
ATOM     38  H   UNL     1      52.095   7.571  21.097  0.00  0.00    +0.000 HD
ENDBRANCH  33  36
ENDBRANCH  28  30
ENDBRANCH  27  28
ENDBRANCH  24  27
ENDBRANCH  20  21
ENDBRANCH   1  20
TORSDOF 10
ENDMDL
MODEL 9
REMARK VINA RESULT:    -5.859      2.774      5.024
REMARK INTER + INTRA:         -10.404
REMARK INTER:                  -9.055
REMARK INTRA:                  -1.349
REMARK UNBOUND:                -1.463
REMARK  Name = 
REMARK  10 active torsions:
REMARK  status: ('A' for Active; 'I' for Inactive)
REMARK    1  A    between atoms: N_1  and  C_2
REMARK    2  A    between atoms: C_2  and  C_3
REMARK    3  A    between atoms: C_3  and  N_4
REMARK    4  A    between atoms: N_4  and  C_5
REMARK    5  A    between atoms: C_5  and  C_6
REMARK    6  A    between atoms: C_9  and  C_10
REMARK    7  A    between atoms: C_10  and  N_11
REMARK    8  A    between atoms: N_11  and  C_12
REMARK    9  A    between atoms: C_15  and  N_16
REMARK   10  A    between atoms: C_21  and  C_23
REMARK                            x       y       z     vdW  Elec       q    Type
REMARK                         _______ _______ _______ _____ _____    ______ ____
ROOT
ATOM      1  N   UNL     1      49.317   4.635  18.272  0.00  0.00    +0.000 N 
ATOM      2  C   UNL     1      50.316   5.277  19.052  0.00  0.00    +0.000 C 
ATOM      3  O   UNL     1      51.125   4.609  19.700  0.00  0.00    +0.000 OA
ENDROOT
BRANCH   2   4
ATOM      4  C   UNL     1      50.388   6.752  19.164  0.00  0.00    +0.000 A 
ATOM      5  C   UNL     1      49.863   7.512  20.196  0.00  0.00    +0.000 A 
ATOM      6  S   UNL     1      50.202   9.184  20.070  0.00  0.00    +0.000 S 
ATOM      7  C   UNL     1      51.196   8.936  18.715  0.00  0.00    +0.000 A 
ATOM      8  N   UNL     1      51.895   9.960  18.162  0.00  0.00    +0.000 NA
ATOM      9  C   UNL     1      52.669   9.607  17.187  0.00  0.00    +0.000 A 
ATOM     10  N   UNL     1      52.770   8.334  16.692  0.00  0.00    +0.000 N 
ATOM     11  C   UNL     1      51.981   7.293  17.130  0.00  0.00    +0.000 A 
ATOM     12  O   UNL     1      51.946   6.237  16.509  0.00  0.00    +0.000 OA
ATOM     13  C   UNL     1      51.188   7.607  18.309  0.00  0.00    +0.000 A 
ATOM     14  H   UNL     1      53.347   8.141  15.889  0.00  0.00    +0.000 HD
ENDBRANCH   2   4
BRANCH   1  15
ATOM     15  C   UNL     1      49.313   3.167  18.333  0.00  0.00    +0.000 C 
BRANCH  15  16
ATOM     16  C   UNL     1      50.168   2.484  17.246  0.00  0.00    +0.000 C 
BRANCH  16  17
ATOM     17  N   UNL     1      49.401   1.769  16.226  0.00  0.00    +0.000 NA
ATOM     18  H   UNL     1      49.138   0.849  16.574  0.00  0.00    +0.000 HD
ATOM     19  H   UNL     1      49.989   1.612  15.400  0.00  0.00    +0.000 HD
ENDBRANCH  16  17
ENDBRANCH  15  16
ENDBRANCH   1  15
BRANCH   1  20
ATOM     20  C   UNL     1      48.241   5.335  17.561  0.00  0.00    +0.000 C 
BRANCH  20  21
ATOM     21  C   UNL     1      48.227   5.509  16.048  0.00  0.00    +0.000 A 
ATOM     22  C   UNL     1      48.668   6.712  15.501  0.00  0.00    +0.000 A 
ATOM     23  C   UNL     1      48.361   7.032  14.177  0.00  0.00    +0.000 A 
ATOM     24  C   UNL     1      47.656   6.135  13.361  0.00  0.00    +0.000 A 
ATOM     25  N   UNL     1      47.250   4.935  13.850  0.00  0.00    +0.000 NA
ATOM     26  C   UNL     1      47.525   4.665  15.175  0.00  0.00    +0.000 A 
BRANCH  24  27
ATOM     27  C   UNL     1      47.355   6.644  11.935  0.00  0.00    +0.000 C 
BRANCH  27  28
ATOM     28  N   UNL     1      46.010   6.605  11.333  0.00  0.00    +0.000 NA
ATOM     29  H   UNL     1      46.104   6.817  10.340  0.00  0.00    +0.000 HD
BRANCH  28  30
ATOM     30  C   UNL     1      45.276   5.349  11.493  0.00  0.00    +0.000 C 
ATOM     31  C   UNL     1      43.957   5.458  12.276  0.00  0.00    +0.000 C 
ATOM     32  C   UNL     1      43.480   4.047  12.604  0.00  0.00    +0.000 C 
ATOM     33  C   UNL     1      43.237   3.211  11.344  0.00  0.00    +0.000 C 
ATOM     34  C   UNL     1      44.373   3.314  10.308  0.00  0.00    +0.000 C 
ATOM     35  C   UNL     1      44.898   4.746  10.118  0.00  0.00    +0.000 C 
BRANCH  33  36
ATOM     36  N   UNL     1      43.025   1.822  11.764  0.00  0.00    +0.000 NA
ATOM     37  H   UNL     1      43.902   1.416  12.091  0.00  0.00    +0.000 HD
ATOM     38  H   UNL     1      42.726   1.255  10.974  0.00  0.00    +0.000 HD
ENDBRANCH  33  36
ENDBRANCH  28  30
ENDBRANCH  27  28
ENDBRANCH  24  27
ENDBRANCH  20  21
ENDBRANCH   1  20
TORSDOF 10
ENDMDL
