MODEL 1
REMARK VINA RESULT:    -8.475      0.000      0.000
REMARK INTER + INTRA:         -11.228
REMARK INTER:                 -10.952
REMARK INTRA:                  -0.275
REMARK UNBOUND:                -0.275
REMARK  Name = 
REMARK  6 active torsions:
REMARK  status: ('A' for Active; 'I' for Inactive)
REMARK    1  A    between atoms: C_1  and  C_2
REMARK    2  A    between atoms: C_2  and  N_3
REMARK    3  A    between atoms: C_2  and  C_16
REMARK    4  A    between atoms: C_4  and  C_6
REMARK    5  A    between atoms: C_19  and  O_20
REMARK    6  A    between atoms: O_20  and  C_21
REMARK                            x       y       z     vdW  Elec       q    Type
REMARK                         _______ _______ _______ _____ _____    ______ ____
ROOT
ATOM      1  C   UNL     1      45.512   8.607  12.841  0.00  0.00    +0.000 C 
ATOM      2  C   UNL     1      46.565   7.501  12.698  0.00  0.00    +0.000 C 
ENDROOT
BRANCH   2   3
ATOM      3  C   UNL     1      46.001   6.353  11.875  0.00  0.00    +0.000 A 
ATOM      4  C   UNL     1      45.358   5.284  12.513  0.00  0.00    +0.000 A 
ATOM      5  C   UNL     1      44.886   4.194  11.775  0.00  0.00    +0.000 A 
ATOM      6  C   UNL     1      45.009   4.177  10.384  0.00  0.00    +0.000 A 
ATOM      7  C   UNL     1      45.644   5.237   9.738  0.00  0.00    +0.000 A 
ATOM      8  C   UNL     1      46.128   6.322  10.475  0.00  0.00    +0.000 A 
BRANCH   6   9
ATOM      9  O   UNL     1      44.620   3.126   9.585  0.00  0.00    +0.000 OA
BRANCH   9  10
ATOM     10  C   UNL     1      45.440   2.760   8.527  0.00  0.00    +0.000 A 
ATOM     11  N   UNL     1      45.636   3.619   7.509  0.00  0.00    +0.000 NA
ATOM     12  C   UNL     1      46.414   3.181   6.506  0.00  0.00    +0.000 A 
ATOM     13  C   UNL     1      47.024   1.950   6.502  0.00  0.00    +0.000 A 
ATOM     14  C   UNL     1      46.793   1.171   7.612  0.00  0.00    +0.000 A 
ATOM     15  N   UNL     1      46.010   1.548   8.639  0.00  0.00    +0.000 NA
ENDBRANCH   9  10
ENDBRANCH   6   9
ENDBRANCH   2   3
BRANCH   2  16
ATOM     16  N   UNL     1      47.034   7.005  13.979  0.00  0.00    +0.000 N 
ATOM     17  C   UNL     1      48.351   6.688  14.208  0.00  0.00    +0.000 C 
ATOM     18  O   UNL     1      49.230   6.850  13.368  0.00  0.00    +0.000 OA
ATOM     19  H   UNL     1      46.333   6.563  14.566  0.00  0.00    +0.000 HD
BRANCH  17  20
ATOM     20  C   UNL     1      48.675   6.202  15.554  0.00  0.00    +0.000 A 
ATOM     21  C   UNL     1      49.533   6.938  16.360  0.00  0.00    +0.000 A 
ATOM     22  S   UNL     1      49.798   6.234  17.890  0.00  0.00    +0.000 S 
ATOM     23  C   UNL     1      48.810   4.902  17.508  0.00  0.00    +0.000 A 
ATOM     24  N   UNL     1      48.639   3.882  18.390  0.00  0.00    +0.000 NA
ATOM     25  C   UNL     1      47.887   2.922  17.954  0.00  0.00    +0.000 A 
ATOM     26  N   UNL     1      47.282   2.902  16.723  0.00  0.00    +0.000 N 
ATOM     27  C   UNL     1      47.400   3.924  15.815  0.00  0.00    +0.000 A 
ATOM     28  O   UNL     1      46.799   3.910  14.746  0.00  0.00    +0.000 OA
ATOM     29  C   UNL     1      48.257   5.011  16.245  0.00  0.00    +0.000 A 
ATOM     30  H   UNL     1      46.691   2.129  16.452  0.00  0.00    +0.000 HD
ENDBRANCH  17  20
ENDBRANCH   2  16
TORSDOF 5
ENDMDL
MODEL 2
REMARK VINA RESULT:    -8.088      2.803      4.067
REMARK INTER + INTRA:         -10.727
REMARK INTER:                  -9.767
REMARK INTRA:                  -0.960
REMARK UNBOUND:                -0.275
REMARK  Name = 
REMARK  6 active torsions:
REMARK  status: ('A' for Active; 'I' for Inactive)
REMARK    1  A    between atoms: C_1  and  C_2
REMARK    2  A    between atoms: C_2  and  N_3
REMARK    3  A    between atoms: C_2  and  C_16
REMARK    4  A    between atoms: C_4  and  C_6
REMARK    5  A    between atoms: C_19  and  O_20
REMARK    6  A    between atoms: O_20  and  C_21
REMARK                            x       y       z     vdW  Elec       q    Type
REMARK                         _______ _______ _______ _____ _____    ______ ____
ROOT
ATOM      1  C   UNL     1      46.308   4.744  14.346  0.00  0.00    +0.000 C 
ATOM      2  C   UNL     1      45.982   5.786  13.268  0.00  0.00    +0.000 C 
ENDROOT
BRANCH   2   3
ATOM      3  C   UNL     1      45.566   5.086  11.983  0.00  0.00    +0.000 A 
ATOM      4  C   UNL     1      45.047   3.786  12.029  0.00  0.00    +0.000 A 
ATOM      5  C   UNL     1      44.715   3.110  10.851  0.00  0.00    +0.000 A 
ATOM      6  C   UNL     1      44.856   3.739   9.612  0.00  0.00    +0.000 A 
ATOM      7  C   UNL     1      45.368   5.034   9.554  0.00  0.00    +0.000 A 
ATOM      8  C   UNL     1      45.712   5.708  10.729  0.00  0.00    +0.000 A 
BRANCH   6   9
ATOM      9  O   UNL     1      44.602   3.133   8.402  0.00  0.00    +0.000 OA
BRANCH   9  10
ATOM     10  C   UNL     1      45.679   2.755   7.614  0.00  0.00    +0.000 A 
ATOM     11  N   UNL     1      46.028   3.512   6.557  0.00  0.00    +0.000 NA
ATOM     12  C   UNL     1      47.059   3.064   5.821  0.00  0.00    +0.000 A 
ATOM     13  C   UNL     1      47.764   1.924   6.121  0.00  0.00    +0.000 A 
ATOM     14  C   UNL     1      47.353   1.251   7.247  0.00  0.00    +0.000 A 
ATOM     15  N   UNL     1      46.317   1.641   8.013  0.00  0.00    +0.000 NA
ENDBRANCH   9  10
ENDBRANCH   6   9
ENDBRANCH   2   3
BRANCH   2  16
ATOM     16  N   UNL     1      47.093   6.683  13.003  0.00  0.00    +0.000 N 
ATOM     17  C   UNL     1      46.957   8.049  13.033  0.00  0.00    +0.000 C 
ATOM     18  O   UNL     1      45.907   8.608  13.335  0.00  0.00    +0.000 OA
ATOM     19  H   UNL     1      47.853   6.296  12.452  0.00  0.00    +0.000 HD
BRANCH  17  20
ATOM     20  C   UNL     1      48.168   8.826  12.748  0.00  0.00    +0.000 A 
ATOM     21  C   UNL     1      48.098   9.916  11.890  0.00  0.00    +0.000 A 
ATOM     22  S   UNL     1      49.592  10.708  11.674  0.00  0.00    +0.000 S 
ATOM     23  C   UNL     1      50.389   9.595  12.686  0.00  0.00    +0.000 A 
ATOM     24  N   UNL     1      51.729   9.678  12.899  0.00  0.00    +0.000 NA
ATOM     25  C   UNL     1      52.205   8.749  13.664  0.00  0.00    +0.000 A 
ATOM     26  N   UNL     1      51.457   7.756  14.243  0.00  0.00    +0.000 N 
ATOM     27  C   UNL     1      50.098   7.652  14.082  0.00  0.00    +0.000 A 
ATOM     28  O   UNL     1      49.444   6.791  14.660  0.00  0.00    +0.000 OA
ATOM     29  C   UNL     1      49.521   8.655  13.208  0.00  0.00    +0.000 A 
ATOM     30  H   UNL     1      51.889   7.070  14.846  0.00  0.00    +0.000 HD
ENDBRANCH  17  20
ENDBRANCH   2  16
TORSDOF 5
ENDMDL
MODEL 3
REMARK VINA RESULT:    -7.958      2.141      2.821
REMARK INTER + INTRA:         -10.559
REMARK INTER:                  -9.564
REMARK INTRA:                  -0.995
REMARK UNBOUND:                -0.275
REMARK  Name = 
REMARK  6 active torsions:
REMARK  status: ('A' for Active; 'I' for Inactive)
REMARK    1  A    between atoms: C_1  and  C_2
REMARK    2  A    between atoms: C_2  and  N_3
REMARK    3  A    between atoms: C_2  and  C_16
REMARK    4  A    between atoms: C_4  and  C_6
REMARK    5  A    between atoms: C_19  and  O_20
REMARK    6  A    between atoms: O_20  and  C_21
REMARK                            x       y       z     vdW  Elec       q    Type
REMARK                         _______ _______ _______ _____ _____    ______ ____
ROOT
ATOM      1  C   UNL     1      47.588   8.877  13.879  0.00  0.00    +0.000 C 
ATOM      2  C   UNL     1      47.918   7.379  13.860  0.00  0.00    +0.000 C 
ENDROOT
BRANCH   2   3
ATOM      3  C   UNL     1      46.955   6.649  12.937  0.00  0.00    +0.000 A 
ATOM      4  C   UNL     1      46.567   5.335  13.228  0.00  0.00    +0.000 A 
ATOM      5  C   UNL     1      45.729   4.631  12.358  0.00  0.00    +0.000 A 
ATOM      6  C   UNL     1      45.230   5.245  11.207  0.00  0.00    +0.000 A 
ATOM      7  C   UNL     1      45.607   6.554  10.909  0.00  0.00    +0.000 A 
ATOM      8  C   UNL     1      46.455   7.255  11.771  0.00  0.00    +0.000 A 
BRANCH   6   9
ATOM      9  O   UNL     1      44.443   4.613  10.271  0.00  0.00    +0.000 OA
BRANCH   9  10
ATOM     10  C   UNL     1      45.056   3.790   9.338  0.00  0.00    +0.000 A 
ATOM     11  N   UNL     1      45.055   2.457   9.523  0.00  0.00    +0.000 NA
ATOM     12  C   UNL     1      45.698   1.729   8.595  0.00  0.00    +0.000 A 
ATOM     13  C   UNL     1      46.300   2.275   7.487  0.00  0.00    +0.000 A 
ATOM     14  C   UNL     1      46.203   3.642   7.373  0.00  0.00    +0.000 A 
ATOM     15  N   UNL     1      45.587   4.425   8.278  0.00  0.00    +0.000 NA
ENDBRANCH   9  10
ENDBRANCH   6   9
ENDBRANCH   2   3
BRANCH   2  16
ATOM     16  N   UNL     1      47.882   6.782  15.183  0.00  0.00    +0.000 N 
ATOM     17  C   UNL     1      49.021   6.404  15.851  0.00  0.00    +0.000 C 
ATOM     18  O   UNL     1      50.148   6.591  15.404  0.00  0.00    +0.000 OA
ATOM     19  H   UNL     1      47.011   6.326  15.439  0.00  0.00    +0.000 HD
BRANCH  17  20
ATOM     20  C   UNL     1      48.827   5.817  17.181  0.00  0.00    +0.000 A 
ATOM     21  C   UNL     1      49.098   4.471  17.383  0.00  0.00    +0.000 A 
ATOM     22  S   UNL     1      48.825   3.955  18.985  0.00  0.00    +0.000 S 
ATOM     23  C   UNL     1      48.295   5.504  19.450  0.00  0.00    +0.000 A 
ATOM     24  N   UNL     1      47.862   5.745  20.715  0.00  0.00    +0.000 NA
ATOM     25  C   UNL     1      47.459   6.958  20.918  0.00  0.00    +0.000 A 
ATOM     26  N   UNL     1      47.465   7.951  19.972  0.00  0.00    +0.000 N 
ATOM     27  C   UNL     1      47.924   7.762  18.693  0.00  0.00    +0.000 A 
ATOM     28  O   UNL     1      47.976   8.682  17.883  0.00  0.00    +0.000 OA
ATOM     29  C   UNL     1      48.359   6.409  18.406  0.00  0.00    +0.000 A 
ATOM     30  H   UNL     1      47.154   8.885  20.202  0.00  0.00    +0.000 HD
ENDBRANCH  17  20
ENDBRANCH   2  16
TORSDOF 5
ENDMDL
MODEL 4
REMARK VINA RESULT:    -7.644      3.184      7.813
REMARK INTER + INTRA:         -10.154
REMARK INTER:                  -9.244
REMARK INTRA:                  -0.909
REMARK UNBOUND:                -0.275
REMARK  Name = 
REMARK  6 active torsions:
REMARK  status: ('A' for Active; 'I' for Inactive)
REMARK    1  A    between atoms: C_1  and  C_2
REMARK    2  A    between atoms: C_2  and  N_3
REMARK    3  A    between atoms: C_2  and  C_16
REMARK    4  A    between atoms: C_4  and  C_6
REMARK    5  A    between atoms: C_19  and  O_20
REMARK    6  A    between atoms: O_20  and  C_21
REMARK                            x       y       z     vdW  Elec       q    Type
REMARK                         _______ _______ _______ _____ _____    ______ ____
ROOT
ATOM      1  C   UNL     1      49.523   7.857  12.359  0.00  0.00    +0.000 C 
ATOM      2  C   UNL     1      48.278   7.363  13.107  0.00  0.00    +0.000 C 
ENDROOT
BRANCH   2   3
ATOM      3  C   UNL     1      48.683   6.769  14.448  0.00  0.00    +0.000 A 
ATOM      4  C   UNL     1      49.868   7.182  15.068  0.00  0.00    +0.000 A 
ATOM      5  C   UNL     1      50.282   6.602  16.271  0.00  0.00    +0.000 A 
ATOM      6  C   UNL     1      49.495   5.632  16.895  0.00  0.00    +0.000 A 
ATOM      7  C   UNL     1      48.310   5.216  16.288  0.00  0.00    +0.000 A 
ATOM      8  C   UNL     1      47.901   5.785  15.079  0.00  0.00    +0.000 A 
BRANCH   6   9
ATOM      9  O   UNL     1      49.847   4.973  18.051  0.00  0.00    +0.000 OA
BRANCH   9  10
ATOM     10  C   UNL     1      50.705   3.887  17.957  0.00  0.00    +0.000 A 
ATOM     11  N   UNL     1      51.930   3.957  18.512  0.00  0.00    +0.000 NA
ATOM     12  C   UNL     1      52.716   2.880  18.350  0.00  0.00    +0.000 A 
ATOM     13  C   UNL     1      52.314   1.740  17.696  0.00  0.00    +0.000 A 
ATOM     14  C   UNL     1      51.028   1.758  17.209  0.00  0.00    +0.000 A 
ATOM     15  N   UNL     1      50.201   2.813  17.324  0.00  0.00    +0.000 NA
ENDBRANCH   9  10
ENDBRANCH   6   9
ENDBRANCH   2   3
BRANCH   2  16
ATOM     16  N   UNL     1      47.518   6.389  12.345  0.00  0.00    +0.000 N 
ATOM     17  C   UNL     1      46.343   6.707  11.709  0.00  0.00    +0.000 C 
ATOM     18  O   UNL     1      45.881   7.844  11.693  0.00  0.00    +0.000 OA
ATOM     19  H   UNL     1      47.672   5.416  12.593  0.00  0.00    +0.000 HD
BRANCH  17  20
ATOM     20  C   UNL     1      45.688   5.619  10.975  0.00  0.00    +0.000 A 
ATOM     21  C   UNL     1      45.749   5.593   9.589  0.00  0.00    +0.000 A 
ATOM     22  S   UNL     1      44.941   4.260   8.898  0.00  0.00    +0.000 S 
ATOM     23  C   UNL     1      44.448   3.699  10.427  0.00  0.00    +0.000 A 
ATOM     24  N   UNL     1      43.668   2.592  10.548  0.00  0.00    +0.000 NA
ATOM     25  C   UNL     1      43.344   2.300  11.767  0.00  0.00    +0.000 A 
ATOM     26  N   UNL     1      43.743   3.008  12.872  0.00  0.00    +0.000 N 
ATOM     27  C   UNL     1      44.556   4.111  12.800  0.00  0.00    +0.000 A 
ATOM     28  O   UNL     1      44.948   4.691  13.807  0.00  0.00    +0.000 OA
ATOM     29  C   UNL     1      44.923   4.497  11.451  0.00  0.00    +0.000 A 
ATOM     30  H   UNL     1      43.469   2.714  13.799  0.00  0.00    +0.000 HD
ENDBRANCH  17  20
ENDBRANCH   2  16
TORSDOF 5
ENDMDL
MODEL 5
REMARK VINA RESULT:    -7.549      1.849      2.381
REMARK INTER + INTRA:         -10.031
REMARK INTER:                  -9.215
REMARK INTRA:                  -0.816
REMARK UNBOUND:                -0.275
REMARK  Name = 
REMARK  6 active torsions:
REMARK  status: ('A' for Active; 'I' for Inactive)
REMARK    1  A    between atoms: C_1  and  C_2
REMARK    2  A    between atoms: C_2  and  N_3
REMARK    3  A    between atoms: C_2  and  C_16
REMARK    4  A    between atoms: C_4  and  C_6
REMARK    5  A    between atoms: C_19  and  O_20
REMARK    6  A    between atoms: O_20  and  C_21
REMARK                            x       y       z     vdW  Elec       q    Type
REMARK                         _______ _______ _______ _____ _____    ______ ____
ROOT
ATOM      1  C   UNL     1      48.322   9.464  13.393  0.00  0.00    +0.000 C 
ATOM      2  C   UNL     1      48.347   7.986  13.801  0.00  0.00    +0.000 C 
ENDROOT
BRANCH   2   3
ATOM      3  C   UNL     1      47.271   7.222  13.044  0.00  0.00    +0.000 A 
ATOM      4  C   UNL     1      47.128   5.842  13.232  0.00  0.00    +0.000 A 
ATOM      5  C   UNL     1      46.183   5.118  12.499  0.00  0.00    +0.000 A 
ATOM      6  C   UNL     1      45.337   5.769  11.599  0.00  0.00    +0.000 A 
ATOM      7  C   UNL     1      45.468   7.144  11.407  0.00  0.00    +0.000 A 
ATOM      8  C   UNL     1      46.420   7.868  12.129  0.00  0.00    +0.000 A 
BRANCH   6   9
ATOM      9  O   UNL     1      44.414   5.131  10.801  0.00  0.00    +0.000 OA
BRANCH   9  10
ATOM     10  C   UNL     1      44.876   4.256   9.828  0.00  0.00    +0.000 A 
ATOM     11  N   UNL     1      45.550   4.737   8.766  0.00  0.00    +0.000 NA
ATOM     12  C   UNL     1      45.934   3.834   7.849  0.00  0.00    +0.000 A 
ATOM     13  C   UNL     1      45.704   2.485   7.972  0.00  0.00    +0.000 A 
ATOM     14  C   UNL     1      45.048   2.097   9.116  0.00  0.00    +0.000 A 
ATOM     15  N   UNL     1      44.623   2.956  10.061  0.00  0.00    +0.000 NA
ENDBRANCH   9  10
ENDBRANCH   6   9
ENDBRANCH   2   3
BRANCH   2  16
ATOM     16  N   UNL     1      48.171   7.797  15.230  0.00  0.00    +0.000 N 
ATOM     17  C   UNL     1      49.084   7.121  16.001  0.00  0.00    +0.000 C 
ATOM     18  O   UNL     1      50.135   6.675  15.550  0.00  0.00    +0.000 OA
ATOM     19  H   UNL     1      47.215   7.850  15.569  0.00  0.00    +0.000 HD
BRANCH  17  20
ATOM     20  C   UNL     1      48.773   7.013  17.430  0.00  0.00    +0.000 A 
ATOM     21  C   UNL     1      48.444   8.154  18.149  0.00  0.00    +0.000 A 
ATOM     22  S   UNL     1      48.107   7.849  19.792  0.00  0.00    +0.000 S 
ATOM     23  C   UNL     1      48.431   6.189  19.605  0.00  0.00    +0.000 A 
ATOM     24  N   UNL     1      48.368   5.340  20.665  0.00  0.00    +0.000 NA
ATOM     25  C   UNL     1      48.669   4.113  20.384  0.00  0.00    +0.000 A 
ATOM     26  N   UNL     1      49.014   3.661  19.135  0.00  0.00    +0.000 N 
ATOM     27  C   UNL     1      49.059   4.475  18.031  0.00  0.00    +0.000 A 
ATOM     28  O   UNL     1      49.310   4.034  16.915  0.00  0.00    +0.000 OA
ATOM     29  C   UNL     1      48.758   5.867  18.301  0.00  0.00    +0.000 A 
ATOM     30  H   UNL     1      49.219   2.684  18.979  0.00  0.00    +0.000 HD
ENDBRANCH  17  20
ENDBRANCH   2  16
TORSDOF 5
ENDMDL
MODEL 6
REMARK VINA RESULT:    -7.515      3.331      5.094
REMARK INTER + INTRA:          -9.987
REMARK INTER:                  -8.827
REMARK INTRA:                  -1.159
REMARK UNBOUND:                -0.275
REMARK  Name = 
REMARK  6 active torsions:
REMARK  status: ('A' for Active; 'I' for Inactive)
REMARK    1  A    between atoms: C_1  and  C_2
REMARK    2  A    between atoms: C_2  and  N_3
REMARK    3  A    between atoms: C_2  and  C_16
REMARK    4  A    between atoms: C_4  and  C_6
REMARK    5  A    between atoms: C_19  and  O_20
REMARK    6  A    between atoms: O_20  and  C_21
REMARK                            x       y       z     vdW  Elec       q    Type
REMARK                         _______ _______ _______ _____ _____    ______ ____
ROOT
ATOM      1  C   UNL     1      48.144   6.853  18.235  0.00  0.00    +0.000 C 
ATOM      2  C   UNL     1      49.078   6.309  17.146  0.00  0.00    +0.000 C 
ENDROOT
BRANCH   2   3
ATOM      3  C   UNL     1      48.264   5.609  16.068  0.00  0.00    +0.000 A 
ATOM      4  C   UNL     1      47.648   4.382  16.343  0.00  0.00    +0.000 A 
ATOM      5  C   UNL     1      46.946   3.699  15.346  0.00  0.00    +0.000 A 
ATOM      6  C   UNL     1      46.811   4.253  14.071  0.00  0.00    +0.000 A 
ATOM      7  C   UNL     1      47.416   5.477  13.787  0.00  0.00    +0.000 A 
ATOM      8  C   UNL     1      48.130   6.155  14.779  0.00  0.00    +0.000 A 
BRANCH   6   9
ATOM      9  O   UNL     1      46.182   3.630  13.017  0.00  0.00    +0.000 OA
BRANCH   9  10
ATOM     10  C   UNL     1      45.000   4.175  12.536  0.00  0.00    +0.000 A 
ATOM     11  N   UNL     1      44.842   4.359  11.212  0.00  0.00    +0.000 NA
ATOM     12  C   UNL     1      43.687   4.923  10.825  0.00  0.00    +0.000 A 
ATOM     13  C   UNL     1      42.684   5.270  11.698  0.00  0.00    +0.000 A 
ATOM     14  C   UNL     1      42.930   4.997  13.023  0.00  0.00    +0.000 A 
ATOM     15  N   UNL     1      44.075   4.449  13.472  0.00  0.00    +0.000 NA
ENDBRANCH   9  10
ENDBRANCH   6   9
ENDBRANCH   2   3
BRANCH   2  16
ATOM     16  N   UNL     1      50.083   5.403  17.672  0.00  0.00    +0.000 N 
ATOM     17  C   UNL     1      51.383   5.409  17.230  0.00  0.00    +0.000 C 
ATOM     18  O   UNL     1      51.801   6.213  16.402  0.00  0.00    +0.000 OA
ATOM     19  H   UNL     1      49.731   4.546  18.090  0.00  0.00    +0.000 HD
BRANCH  17  20
ATOM     20  C   UNL     1      52.285   4.437  17.856  0.00  0.00    +0.000 A 
ATOM     21  C   UNL     1      53.395   4.886  18.561  0.00  0.00    +0.000 A 
ATOM     22  S   UNL     1      54.331   3.627  19.228  0.00  0.00    +0.000 S 
ATOM     23  C   UNL     1      53.309   2.441  18.561  0.00  0.00    +0.000 A 
ATOM     24  N   UNL     1      53.573   1.117  18.721  0.00  0.00    +0.000 NA
ATOM     25  C   UNL     1      52.730   0.330  18.135  0.00  0.00    +0.000 A 
ATOM     26  N   UNL     1      51.641   0.751  17.415  0.00  0.00    +0.000 N 
ATOM     27  C   UNL     1      51.316   2.075  17.255  0.00  0.00    +0.000 A 
ATOM     28  O   UNL     1      50.303   2.423  16.658  0.00  0.00    +0.000 OA
ATOM     29  C   UNL     1      52.249   2.999  17.869  0.00  0.00    +0.000 A 
ATOM     30  H   UNL     1      51.009   0.082  16.997  0.00  0.00    +0.000 HD
ENDBRANCH  17  20
ENDBRANCH   2  16
TORSDOF 5
ENDMDL
MODEL 7
REMARK VINA RESULT:    -7.153      2.988      8.257
REMARK INTER + INTRA:          -9.519
REMARK INTER:                  -8.760
REMARK INTRA:                  -0.759
REMARK UNBOUND:                -0.275
REMARK  Name = 
REMARK  6 active torsions:
REMARK  status: ('A' for Active; 'I' for Inactive)
REMARK    1  A    between atoms: C_1  and  C_2
REMARK    2  A    between atoms: C_2  and  N_3
REMARK    3  A    between atoms: C_2  and  C_16
REMARK    4  A    between atoms: C_4  and  C_6
REMARK    5  A    between atoms: C_19  and  O_20
REMARK    6  A    between atoms: O_20  and  C_21
REMARK                            x       y       z     vdW  Elec       q    Type
REMARK                         _______ _______ _______ _____ _____    ______ ____
ROOT
ATOM      1  C   UNL     1      48.724   7.423  12.575  0.00  0.00    +0.000 C 
ATOM      2  C   UNL     1      47.630   6.856  13.488  0.00  0.00    +0.000 C 
ENDROOT
BRANCH   2   3
ATOM      3  C   UNL     1      48.248   6.341  14.779  0.00  0.00    +0.000 A 
ATOM      4  C   UNL     1      49.429   6.914  15.267  0.00  0.00    +0.000 A 
ATOM      5  C   UNL     1      50.040   6.413  16.420  0.00  0.00    +0.000 A 
ATOM      6  C   UNL     1      49.456   5.359  17.128  0.00  0.00    +0.000 A 
ATOM      7  C   UNL     1      48.279   4.783  16.653  0.00  0.00    +0.000 A 
ATOM      8  C   UNL     1      47.673   5.274  15.493  0.00  0.00    +0.000 A 
BRANCH   6   9
ATOM      9  O   UNL     1      50.013   4.771  18.241  0.00  0.00    +0.000 OA
BRANCH   9  10
ATOM     10  C   UNL     1      50.905   3.724  18.059  0.00  0.00    +0.000 A 
ATOM     11  N   UNL     1      50.486   2.587  17.473  0.00  0.00    +0.000 NA
ATOM     12  C   UNL     1      51.397   1.606  17.364  0.00  0.00    +0.000 A 
ATOM     13  C   UNL     1      52.701   1.733  17.778  0.00  0.00    +0.000 A 
ATOM     14  C   UNL     1      53.034   2.952  18.321  0.00  0.00    +0.000 A 
ATOM     15  N   UNL     1      52.161   3.965  18.473  0.00  0.00    +0.000 NA
ENDBRANCH   9  10
ENDBRANCH   6   9
ENDBRANCH   2   3
BRANCH   2  16
ATOM     16  N   UNL     1      46.864   5.798  12.852  0.00  0.00    +0.000 N 
ATOM     17  C   UNL     1      45.549   5.957  12.492  0.00  0.00    +0.000 C 
ATOM     18  O   UNL     1      44.943   7.016  12.631  0.00  0.00    +0.000 OA
ATOM     19  H   UNL     1      47.199   4.852  13.012  0.00  0.00    +0.000 HD
BRANCH  17  20
ATOM     20  C   UNL     1      44.907   4.802  11.856  0.00  0.00    +0.000 A 
ATOM     21  C   UNL     1      44.122   3.947  12.618  0.00  0.00    +0.000 A 
ATOM     22  S   UNL     1      43.448   2.662  11.723  0.00  0.00    +0.000 S 
ATOM     23  C   UNL     1      44.218   3.182  10.297  0.00  0.00    +0.000 A 
ATOM     24  N   UNL     1      44.092   2.483   9.138  0.00  0.00    +0.000 NA
ATOM     25  C   UNL     1      44.756   2.976   8.143  0.00  0.00    +0.000 A 
ATOM     26  N   UNL     1      45.522   4.112   8.203  0.00  0.00    +0.000 N 
ATOM     27  C   UNL     1      45.652   4.868   9.341  0.00  0.00    +0.000 A 
ATOM     28  O   UNL     1      46.294   5.913   9.352  0.00  0.00    +0.000 OA
ATOM     29  C   UNL     1      44.949   4.339  10.494  0.00  0.00    +0.000 A 
ATOM     30  H   UNL     1      46.001   4.455   7.382  0.00  0.00    +0.000 HD
ENDBRANCH  17  20
ENDBRANCH   2  16
TORSDOF 5
ENDMDL
MODEL 8
REMARK VINA RESULT:    -7.062      3.247      8.400
REMARK INTER + INTRA:          -9.401
REMARK INTER:                  -8.394
REMARK INTRA:                  -1.007
REMARK UNBOUND:                -0.275
REMARK  Name = 
REMARK  6 active torsions:
REMARK  status: ('A' for Active; 'I' for Inactive)
REMARK    1  A    between atoms: C_1  and  C_2
REMARK    2  A    between atoms: C_2  and  N_3
REMARK    3  A    between atoms: C_2  and  C_16
REMARK    4  A    between atoms: C_4  and  C_6
REMARK    5  A    between atoms: C_19  and  O_20
REMARK    6  A    between atoms: O_20  and  C_21
REMARK                            x       y       z     vdW  Elec       q    Type
REMARK                         _______ _______ _______ _____ _____    ______ ____
ROOT
ATOM      1  C   UNL     1      49.678   8.001  11.766  0.00  0.00    +0.000 C 
ATOM      2  C   UNL     1      48.403   7.616  12.528  0.00  0.00    +0.000 C 
ENDROOT
BRANCH   2   3
ATOM      3  C   UNL     1      48.759   7.163  13.936  0.00  0.00    +0.000 A 
ATOM      4  C   UNL     1      49.882   7.697  14.580  0.00  0.00    +0.000 A 
ATOM      5  C   UNL     1      50.255   7.248  15.851  0.00  0.00    +0.000 A 
ATOM      6  C   UNL     1      49.485   6.291  16.515  0.00  0.00    +0.000 A 
ATOM      7  C   UNL     1      48.363   5.755  15.885  0.00  0.00    +0.000 A 
ATOM      8  C   UNL     1      47.996   6.193  14.610  0.00  0.00    +0.000 A 
BRANCH   6   9
ATOM      9  O   UNL     1      49.804   5.755  17.743  0.00  0.00    +0.000 OA
BRANCH   9  10
ATOM     10  C   UNL     1      49.147   6.237  18.865  0.00  0.00    +0.000 A 
ATOM     11  N   UNL     1      49.308   7.523  19.229  0.00  0.00    +0.000 NA
ATOM     12  C   UNL     1      48.668   7.908  20.346  0.00  0.00    +0.000 A 
ATOM     13  C   UNL     1      47.856   7.075  21.078  0.00  0.00    +0.000 A 
ATOM     14  C   UNL     1      47.726   5.796  20.592  0.00  0.00    +0.000 A 
ATOM     15  N   UNL     1      48.355   5.348  19.490  0.00  0.00    +0.000 NA
ENDBRANCH   9  10
ENDBRANCH   6   9
ENDBRANCH   2   3
BRANCH   2  16
ATOM     16  N   UNL     1      47.642   6.578  11.855  0.00  0.00    +0.000 N 
ATOM     17  C   UNL     1      46.316   6.731  11.533  0.00  0.00    +0.000 C 
ATOM     18  O   UNL     1      45.695   7.769  11.742  0.00  0.00    +0.000 OA
ATOM     19  H   UNL     1      47.997   5.632  11.957  0.00  0.00    +0.000 HD
BRANCH  17  20
ATOM     20  C   UNL     1      45.679   5.599  10.852  0.00  0.00    +0.000 A 
ATOM     21  C   UNL     1      45.767   5.492   9.471  0.00  0.00    +0.000 A 
ATOM     22  S   UNL     1      44.979   4.116   8.844  0.00  0.00    +0.000 S 
ATOM     23  C   UNL     1      44.457   3.643  10.393  0.00  0.00    +0.000 A 
ATOM     24  N   UNL     1      43.680   2.541  10.564  0.00  0.00    +0.000 NA
ATOM     25  C   UNL     1      43.333   2.319  11.791  0.00  0.00    +0.000 A 
ATOM     26  N   UNL     1      43.707   3.093  12.860  0.00  0.00    +0.000 N 
ATOM     27  C   UNL     1      44.517   4.194  12.739  0.00  0.00    +0.000 A 
ATOM     28  O   UNL     1      44.886   4.834  13.718  0.00  0.00    +0.000 OA
ATOM     29  C   UNL     1      44.909   4.503  11.378  0.00  0.00    +0.000 A 
ATOM     30  H   UNL     1      43.416   2.853  13.797  0.00  0.00    +0.000 HD
ENDBRANCH  17  20
ENDBRANCH   2  16
TORSDOF 5
ENDMDL
MODEL 9
REMARK VINA RESULT:    -7.048      2.792      8.627
REMARK INTER + INTRA:          -9.384
REMARK INTER:                  -8.418
REMARK INTRA:                  -0.966
REMARK UNBOUND:                -0.275
REMARK  Name = 
REMARK  6 active torsions:
REMARK  status: ('A' for Active; 'I' for Inactive)
REMARK    1  A    between atoms: C_1  and  C_2
REMARK    2  A    between atoms: C_2  and  N_3
REMARK    3  A    between atoms: C_2  and  C_16
REMARK    4  A    between atoms: C_4  and  C_6
REMARK    5  A    between atoms: C_19  and  O_20
REMARK    6  A    between atoms: O_20  and  C_21
REMARK                            x       y       z     vdW  Elec       q    Type
REMARK                         _______ _______ _______ _____ _____    ______ ____
ROOT
ATOM      1  C   UNL     1      48.792   7.761  11.483  0.00  0.00    +0.000 C 
ATOM      2  C   UNL     1      47.751   7.368  12.540  0.00  0.00    +0.000 C 
ENDROOT
BRANCH   2   3
ATOM      3  C   UNL     1      48.440   7.102  13.870  0.00  0.00    +0.000 A 
ATOM      4  C   UNL     1      49.615   7.788  14.200  0.00  0.00    +0.000 A 
ATOM      5  C   UNL     1      50.290   7.511  15.393  0.00  0.00    +0.000 A 
ATOM      6  C   UNL     1      49.776   6.576  16.294  0.00  0.00    +0.000 A 
ATOM      7  C   UNL     1      48.605   5.890  15.978  0.00  0.00    +0.000 A 
ATOM      8  C   UNL     1      47.935   6.156  14.780  0.00  0.00    +0.000 A 
BRANCH   6   9
ATOM      9  O   UNL     1      50.398   6.205  17.465  0.00  0.00    +0.000 OA
BRANCH   9  10
ATOM     10  C   UNL     1      49.625   6.056  18.606  0.00  0.00    +0.000 A 
ATOM     11  N   UNL     1      49.526   4.847  19.191  0.00  0.00    +0.000 NA
ATOM     12  C   UNL     1      48.732   4.774  20.271  0.00  0.00    +0.000 A 
ATOM     13  C   UNL     1      48.072   5.856  20.801  0.00  0.00    +0.000 A 
ATOM     14  C   UNL     1      48.279   7.052  20.154  0.00  0.00    +0.000 A 
ATOM     15  N   UNL     1      49.049   7.184  19.058  0.00  0.00    +0.000 NA
ENDBRANCH   9  10
ENDBRANCH   6   9
ENDBRANCH   2   3
BRANCH   2  16
ATOM     16  N   UNL     1      46.968   6.209  12.149  0.00  0.00    +0.000 N 
ATOM     17  C   UNL     1      45.599   6.249  12.043  0.00  0.00    +0.000 C 
ATOM     18  O   UNL     1      44.947   7.274  12.216  0.00  0.00    +0.000 OA
ATOM     19  H   UNL     1      47.403   5.306  12.313  0.00  0.00    +0.000 HD
BRANCH  17  20
ATOM     20  C   UNL     1      44.945   5.001  11.636  0.00  0.00    +0.000 A 
ATOM     21  C   UNL     1      44.181   4.295  12.555  0.00  0.00    +0.000 A 
ATOM     22  S   UNL     1      43.489   2.874  11.916  0.00  0.00    +0.000 S 
ATOM     23  C   UNL     1      44.224   3.133  10.403  0.00  0.00    +0.000 A 
ATOM     24  N   UNL     1      44.071   2.241   9.389  0.00  0.00    +0.000 NA
ATOM     25  C   UNL     1      44.711   2.550   8.307  0.00  0.00    +0.000 A 
ATOM     26  N   UNL     1      45.476   3.677   8.148  0.00  0.00    +0.000 N 
ATOM     27  C   UNL     1      45.631   4.621   9.132  0.00  0.00    +0.000 A 
ATOM     28  O   UNL     1      46.271   5.650   8.944  0.00  0.00    +0.000 OA
ATOM     29  C   UNL     1      44.957   4.305  10.376  0.00  0.00    +0.000 A 
ATOM     30  H   UNL     1      45.935   3.869   7.269  0.00  0.00    +0.000 HD
ENDBRANCH  17  20
ENDBRANCH   2  16
TORSDOF 5
ENDMDL
