MODEL 1
REMARK VINA RESULT:    -6.986      0.000      0.000
REMARK INTER + INTRA:          -8.923
REMARK INTER:                  -8.823
REMARK INTRA:                  -0.100
REMARK UNBOUND:                -0.100
REMARK  Name = 
REMARK  5 active torsions:
REMARK  status: ('A' for Active; 'I' for Inactive)
REMARK    1  A    between atoms: N_1  and  C_2
REMARK    2  A    between atoms: C_2  and  C_3
REMARK    3  A    between atoms: C_3  and  C_4
REMARK    4  A    between atoms: N_8  and  C_9
REMARK    5  A    between atoms: C_9  and  C_10
REMARK                            x       y       z     vdW  Elec       q    Type
REMARK                         _______ _______ _______ _____ _____    ______ ____
ROOT
ATOM      1  C   UNL     1      46.359   2.222   7.702  0.00  0.00    +0.000 A 
ATOM      2  C   UNL     1      45.575   1.731   8.732  0.00  0.00    +0.000 A 
ATOM      3  C   UNL     1      44.692   2.592   9.379  0.00  0.00    +0.000 A 
ATOM      4  C   UNL     1      44.610   3.926   9.005  0.00  0.00    +0.000 A 
ATOM      5  N   UNL     1      43.676   4.803   9.553  0.00  0.00    +0.000 N 
ATOM      6  N   UNL     1      45.378   4.425   8.023  0.00  0.00    +0.000 NA
ATOM      7  C   UNL     1      46.229   3.569   7.393  0.00  0.00    +0.000 A 
ATOM      8  H   UNL     1      43.868   5.749   9.239  0.00  0.00    +0.000 HD
ENDROOT
BRANCH   1   9
ATOM      9  C   UNL     1      47.278   1.310   6.936  0.00  0.00    +0.000 C 
BRANCH   9  10
ATOM     10  C   UNL     1      48.468   2.066   6.335  0.00  0.00    +0.000 C 
BRANCH  10  11
ATOM     11  N   UNL     1      48.290   2.257   4.898  0.00  0.00    +0.000 NA
ATOM     12  H   UNL     1      47.902   1.406   4.491  0.00  0.00    +0.000 HD
ATOM     13  H   UNL     1      49.196   2.394   4.453  0.00  0.00    +0.000 HD
ENDBRANCH  10  11
ENDBRANCH   9  10
ENDBRANCH   1   9
BRANCH   5  14
ATOM     14  C   UNL     1      43.247   4.608  10.922  0.00  0.00    +0.000 C 
BRANCH  14  15
ATOM     15  C   UNL     1      43.480   5.855  11.790  0.00  0.00    +0.000 C 
ATOM     16  C   UNL     1      44.677   6.657  11.245  0.00  0.00    +0.000 C 
ATOM     17  C   UNL     1      45.998   5.919  11.465  0.00  0.00    +0.000 C 
ATOM     18  N   UNL     1      46.220   5.629  12.882  0.00  0.00    +0.000 NA
ATOM     19  C   UNL     1      45.128   4.837  13.456  0.00  0.00    +0.000 C 
ATOM     20  C   UNL     1      43.761   5.500  13.261  0.00  0.00    +0.000 C 
ATOM     21  H   UNL     1      46.286   6.512  13.390  0.00  0.00    +0.000 HD
ENDBRANCH  14  15
ENDBRANCH   5  14
TORSDOF 5
ENDMDL
MODEL 2
REMARK VINA RESULT:    -6.837      1.483      2.057
REMARK INTER + INTRA:          -8.736
REMARK INTER:                  -8.486
REMARK INTRA:                  -0.250
REMARK UNBOUND:                -0.100
REMARK  Name = 
REMARK  5 active torsions:
REMARK  status: ('A' for Active; 'I' for Inactive)
REMARK    1  A    between atoms: N_1  and  C_2
REMARK    2  A    between atoms: C_2  and  C_3
REMARK    3  A    between atoms: C_3  and  C_4
REMARK    4  A    between atoms: N_8  and  C_9
REMARK    5  A    between atoms: C_9  and  C_10
REMARK                            x       y       z     vdW  Elec       q    Type
REMARK                         _______ _______ _______ _____ _____    ______ ____
ROOT
ATOM      1  C   UNL     1      46.005   2.932   7.144  0.00  0.00    +0.000 A 
ATOM      2  C   UNL     1      45.387   4.009   7.755  0.00  0.00    +0.000 A 
ATOM      3  C   UNL     1      44.840   3.844   9.025  0.00  0.00    +0.000 A 
ATOM      4  C   UNL     1      44.904   2.612   9.662  0.00  0.00    +0.000 A 
ATOM      5  N   UNL     1      44.460   2.420  10.969  0.00  0.00    +0.000 N 
ATOM      6  N   UNL     1      45.479   1.551   9.076  0.00  0.00    +0.000 NA
ATOM      7  C   UNL     1      46.018   1.731   7.839  0.00  0.00    +0.000 A 
ATOM      8  H   UNL     1      44.478   1.432  11.196  0.00  0.00    +0.000 HD
ENDROOT
BRANCH   1   9
ATOM      9  C   UNL     1      46.663   3.087   5.800  0.00  0.00    +0.000 C 
BRANCH   9  10
ATOM     10  C   UNL     1      47.876   2.163   5.644  0.00  0.00    +0.000 C 
BRANCH  10  11
ATOM     11  N   UNL     1      48.978   2.604   6.496  0.00  0.00    +0.000 NA
ATOM     12  H   UNL     1      48.663   3.379   7.078  0.00  0.00    +0.000 HD
ATOM     13  H   UNL     1      49.732   2.975   5.919  0.00  0.00    +0.000 HD
ENDBRANCH  10  11
ENDBRANCH   9  10
ENDBRANCH   1   9
BRANCH   5  14
ATOM     14  C   UNL     1      43.356   3.217  11.462  0.00  0.00    +0.000 C 
BRANCH  14  15
ATOM     15  C   UNL     1      43.660   3.854  12.828  0.00  0.00    +0.000 C 
ATOM     16  C   UNL     1      42.932   5.205  12.950  0.00  0.00    +0.000 C 
ATOM     17  C   UNL     1      43.532   6.258  12.017  0.00  0.00    +0.000 C 
ATOM     18  N   UNL     1      44.958   6.455  12.281  0.00  0.00    +0.000 NA
ATOM     19  C   UNL     1      45.717   5.209  12.148  0.00  0.00    +0.000 C 
ATOM     20  C   UNL     1      45.166   4.091  13.040  0.00  0.00    +0.000 C 
ATOM     21  H   UNL     1      45.069   6.806  13.233  0.00  0.00    +0.000 HD
ENDBRANCH  14  15
ENDBRANCH   5  14
TORSDOF 5
ENDMDL
MODEL 3
REMARK VINA RESULT:    -6.560      1.331      1.774
REMARK INTER + INTRA:          -8.386
REMARK INTER:                  -8.262
REMARK INTRA:                  -0.124
REMARK UNBOUND:                -0.100
REMARK  Name = 
REMARK  5 active torsions:
REMARK  status: ('A' for Active; 'I' for Inactive)
REMARK    1  A    between atoms: N_1  and  C_2
REMARK    2  A    between atoms: C_2  and  C_3
REMARK    3  A    between atoms: C_3  and  C_4
REMARK    4  A    between atoms: N_8  and  C_9
REMARK    5  A    between atoms: C_9  and  C_10
REMARK                            x       y       z     vdW  Elec       q    Type
REMARK                         _______ _______ _______ _____ _____    ______ ____
ROOT
ATOM      1  C   UNL     1      45.814   3.054   7.721  0.00  0.00    +0.000 A 
ATOM      2  C   UNL     1      46.026   4.365   8.113  0.00  0.00    +0.000 A 
ATOM      3  C   UNL     1      45.497   4.802   9.325  0.00  0.00    +0.000 A 
ATOM      4  C   UNL     1      44.757   3.938  10.121  0.00  0.00    +0.000 A 
ATOM      5  N   UNL     1      44.290   4.297  11.384  0.00  0.00    +0.000 N 
ATOM      6  N   UNL     1      44.523   2.671   9.747  0.00  0.00    +0.000 NA
ATOM      7  C   UNL     1      45.055   2.255   8.565  0.00  0.00    +0.000 A 
ATOM      8  H   UNL     1      43.671   3.575  11.739  0.00  0.00    +0.000 HD
ENDROOT
BRANCH   1   9
ATOM      9  C   UNL     1      46.422   2.526   6.451  0.00  0.00    +0.000 C 
BRANCH   9  10
ATOM     10  C   UNL     1      47.740   1.788   6.708  0.00  0.00    +0.000 C 
BRANCH  10  11
ATOM     11  N   UNL     1      48.570   1.771   5.506  0.00  0.00    +0.000 NA
ATOM     12  H   UNL     1      48.984   2.693   5.371  0.00  0.00    +0.000 HD
ATOM     13  H   UNL     1      47.987   1.603   4.687  0.00  0.00    +0.000 HD
ENDBRANCH  10  11
ENDBRANCH   9  10
ENDBRANCH   1   9
BRANCH   5  14
ATOM     14  C   UNL     1      43.949   5.681  11.642  0.00  0.00    +0.000 C 
BRANCH  14  15
ATOM     15  C   UNL     1      44.522   6.183  12.977  0.00  0.00    +0.000 C 
ATOM     16  C   UNL     1      45.285   7.503  12.757  0.00  0.00    +0.000 C 
ATOM     17  C   UNL     1      46.577   7.283  11.969  0.00  0.00    +0.000 C 
ATOM     18  N   UNL     1      47.457   6.326  12.640  0.00  0.00    +0.000 NA
ATOM     19  C   UNL     1      46.801   5.034  12.852  0.00  0.00    +0.000 C 
ATOM     20  C   UNL     1      45.482   5.167  13.621  0.00  0.00    +0.000 C 
ATOM     21  H   UNL     1      47.725   6.710  13.548  0.00  0.00    +0.000 HD
ENDBRANCH  14  15
ENDBRANCH   5  14
TORSDOF 5
ENDMDL
MODEL 4
REMARK VINA RESULT:    -6.244      3.708      5.886
REMARK INTER + INTRA:          -7.987
REMARK INTER:                  -7.629
REMARK INTRA:                  -0.358
REMARK UNBOUND:                -0.100
REMARK  Name = 
REMARK  5 active torsions:
REMARK  status: ('A' for Active; 'I' for Inactive)
REMARK    1  A    between atoms: N_1  and  C_2
REMARK    2  A    between atoms: C_2  and  C_3
REMARK    3  A    between atoms: C_3  and  C_4
REMARK    4  A    between atoms: N_8  and  C_9
REMARK    5  A    between atoms: C_9  and  C_10
REMARK                            x       y       z     vdW  Elec       q    Type
REMARK                         _______ _______ _______ _____ _____    ______ ____
ROOT
ATOM      1  C   UNL     1      44.786   4.549  11.335  0.00  0.00    +0.000 A 
ATOM      2  C   UNL     1      45.410   5.594  11.995  0.00  0.00    +0.000 A 
ATOM      3  C   UNL     1      46.202   5.315  13.106  0.00  0.00    +0.000 A 
ATOM      4  C   UNL     1      46.352   4.010  13.552  0.00  0.00    +0.000 A 
ATOM      5  N   UNL     1      47.209   3.668  14.596  0.00  0.00    +0.000 N 
ATOM      6  N   UNL     1      45.737   2.986  12.938  0.00  0.00    +0.000 NA
ATOM      7  C   UNL     1      44.974   3.273  11.848  0.00  0.00    +0.000 A 
ATOM      8  H   UNL     1      47.075   2.693  14.845  0.00  0.00    +0.000 HD
ENDROOT
BRANCH   1   9
ATOM      9  C   UNL     1      43.974   4.802  10.094  0.00  0.00    +0.000 C 
BRANCH   9  10
ATOM     10  C   UNL     1      44.585   4.129   8.861  0.00  0.00    +0.000 C 
BRANCH  10  11
ATOM     11  N   UNL     1      45.708   4.909   8.347  0.00  0.00    +0.000 NA
ATOM     12  H   UNL     1      46.066   5.511   9.088  0.00  0.00    +0.000 HD
ATOM     13  H   UNL     1      45.386   5.534   7.609  0.00  0.00    +0.000 HD
ENDBRANCH  10  11
ENDBRANCH   9  10
ENDBRANCH   1   9
BRANCH   5  14
ATOM     14  C   UNL     1      47.438   4.622  15.661  0.00  0.00    +0.000 C 
BRANCH  14  15
ATOM     15  C   UNL     1      47.101   4.045  17.045  0.00  0.00    +0.000 C 
ATOM     16  C   UNL     1      47.540   5.029  18.145  0.00  0.00    +0.000 C 
ATOM     17  C   UNL     1      49.063   5.120  18.248  0.00  0.00    +0.000 C 
ATOM     18  N   UNL     1      49.660   3.810  18.511  0.00  0.00    +0.000 NA
ATOM     19  C   UNL     1      49.308   2.831  17.479  0.00  0.00    +0.000 C 
ATOM     20  C   UNL     1      47.792   2.692  17.298  0.00  0.00    +0.000 C 
ATOM     21  H   UNL     1      49.322   3.471  19.413  0.00  0.00    +0.000 HD
ENDBRANCH  14  15
ENDBRANCH   5  14
TORSDOF 5
ENDMDL
MODEL 5
REMARK VINA RESULT:    -5.840      4.252      8.035
REMARK INTER + INTRA:          -7.476
REMARK INTER:                  -7.141
REMARK INTRA:                  -0.335
REMARK UNBOUND:                -0.100
REMARK  Name = 
REMARK  5 active torsions:
REMARK  status: ('A' for Active; 'I' for Inactive)
REMARK    1  A    between atoms: N_1  and  C_2
REMARK    2  A    between atoms: C_2  and  C_3
REMARK    3  A    between atoms: C_3  and  C_4
REMARK    4  A    between atoms: N_8  and  C_9
REMARK    5  A    between atoms: C_9  and  C_10
REMARK                            x       y       z     vdW  Elec       q    Type
REMARK                         _______ _______ _______ _____ _____    ______ ____
ROOT
ATOM      1  C   UNL     1      48.951   4.166  17.308  0.00  0.00    +0.000 A 
ATOM      2  C   UNL     1      48.313   5.279  16.787  0.00  0.00    +0.000 A 
ATOM      3  C   UNL     1      47.479   5.124  15.682  0.00  0.00    +0.000 A 
ATOM      4  C   UNL     1      47.302   3.874  15.106  0.00  0.00    +0.000 A 
ATOM      5  N   UNL     1      46.405   3.650  14.063  0.00  0.00    +0.000 N 
ATOM      6  N   UNL     1      47.929   2.788  15.584  0.00  0.00    +0.000 NA
ATOM      7  C   UNL     1      48.733   2.953  16.670  0.00  0.00    +0.000 A 
ATOM      8  H   UNL     1      46.521   2.707  13.707  0.00  0.00    +0.000 HD
ENDROOT
BRANCH   1   9
ATOM      9  C   UNL     1      49.809   4.280  18.539  0.00  0.00    +0.000 C 
BRANCH   9  10
ATOM     10  C   UNL     1      48.992   4.670  19.775  0.00  0.00    +0.000 C 
BRANCH  10  11
ATOM     11  N   UNL     1      48.382   3.493  20.387  0.00  0.00    +0.000 NA
ATOM     12  H   UNL     1      48.686   2.658  19.887  0.00  0.00    +0.000 HD
ATOM     13  H   UNL     1      47.369   3.532  20.278  0.00  0.00    +0.000 HD
ENDBRANCH  10  11
ENDBRANCH   9  10
ENDBRANCH   1   9
BRANCH   5  14
ATOM     14  C   UNL     1      46.147   4.714  13.114  0.00  0.00    +0.000 C 
BRANCH  14  15
ATOM     15  C   UNL     1      45.214   4.269  11.978  0.00  0.00    +0.000 C 
ATOM     16  C   UNL     1      45.028   5.419  10.970  0.00  0.00    +0.000 C 
ATOM     17  C   UNL     1      44.208   6.564  11.565  0.00  0.00    +0.000 C 
ATOM     18  N   UNL     1      42.895   6.105  12.016  0.00  0.00    +0.000 NA
ATOM     19  C   UNL     1      43.001   5.029  13.005  0.00  0.00    +0.000 C 
ATOM     20  C   UNL     1      43.826   3.844  12.493  0.00  0.00    +0.000 C 
ATOM     21  H   UNL     1      42.375   5.758  11.209  0.00  0.00    +0.000 HD
ENDBRANCH  14  15
ENDBRANCH   5  14
TORSDOF 5
ENDMDL
MODEL 6
REMARK VINA RESULT:    -5.751      4.014      8.051
REMARK INTER + INTRA:          -7.364
REMARK INTER:                  -7.037
REMARK INTRA:                  -0.327
REMARK UNBOUND:                -0.100
REMARK  Name = 
REMARK  5 active torsions:
REMARK  status: ('A' for Active; 'I' for Inactive)
REMARK    1  A    between atoms: N_1  and  C_2
REMARK    2  A    between atoms: C_2  and  C_3
REMARK    3  A    between atoms: C_3  and  C_4
REMARK    4  A    between atoms: N_8  and  C_9
REMARK    5  A    between atoms: C_9  and  C_10
REMARK                            x       y       z     vdW  Elec       q    Type
REMARK                         _______ _______ _______ _____ _____    ______ ____
ROOT
ATOM      1  C   UNL     1      48.771   4.642  17.288  0.00  0.00    +0.000 A 
ATOM      2  C   UNL     1      47.777   3.746  16.936  0.00  0.00    +0.000 A 
ATOM      3  C   UNL     1      47.088   3.934  15.740  0.00  0.00    +0.000 A 
ATOM      4  C   UNL     1      47.386   5.014  14.921  0.00  0.00    +0.000 A 
ATOM      5  N   UNL     1      46.796   5.193  13.671  0.00  0.00    +0.000 N 
ATOM      6  N   UNL     1      48.331   5.906  15.256  0.00  0.00    +0.000 NA
ATOM      7  C   UNL     1      49.003   5.703  16.423  0.00  0.00    +0.000 A 
ATOM      8  H   UNL     1      47.053   6.100  13.296  0.00  0.00    +0.000 HD
ENDROOT
BRANCH   1   9
ATOM      9  C   UNL     1      49.580   4.438  18.539  0.00  0.00    +0.000 C 
BRANCH   9  10
ATOM     10  C   UNL     1      48.808   4.849  19.797  0.00  0.00    +0.000 C 
BRANCH  10  11
ATOM     11  N   UNL     1      48.419   3.675  20.574  0.00  0.00    +0.000 NA
ATOM     12  H   UNL     1      49.094   3.529  21.324  0.00  0.00    +0.000 HD
ATOM     13  H   UNL     1      48.465   2.842  19.988  0.00  0.00    +0.000 HD
ENDBRANCH  10  11
ENDBRANCH   9  10
ENDBRANCH   1   9
BRANCH   5  14
ATOM     14  C   UNL     1      45.443   4.721  13.457  0.00  0.00    +0.000 C 
BRANCH  14  15
ATOM     15  C   UNL     1      44.524   5.820  12.901  0.00  0.00    +0.000 C 
ATOM     16  C   UNL     1      43.129   5.237  12.606  0.00  0.00    +0.000 C 
ATOM     17  C   UNL     1      43.157   4.275  11.418  0.00  0.00    +0.000 C 
ATOM     18  N   UNL     1      43.668   4.929  10.213  0.00  0.00    +0.000 NA
ATOM     19  C   UNL     1      45.011   5.479  10.415  0.00  0.00    +0.000 C 
ATOM     20  C   UNL     1      45.074   6.443  11.605  0.00  0.00    +0.000 C 
ATOM     21  H   UNL     1      43.037   5.691   9.962  0.00  0.00    +0.000 HD
ENDBRANCH  14  15
ENDBRANCH   5  14
TORSDOF 5
ENDMDL
MODEL 7
REMARK VINA RESULT:    -5.559      3.498      6.112
REMARK INTER + INTRA:          -7.121
REMARK INTER:                  -6.653
REMARK INTRA:                  -0.468
REMARK UNBOUND:                -0.100
REMARK  Name = 
REMARK  5 active torsions:
REMARK  status: ('A' for Active; 'I' for Inactive)
REMARK    1  A    between atoms: N_1  and  C_2
REMARK    2  A    between atoms: C_2  and  C_3
REMARK    3  A    between atoms: C_3  and  C_4
REMARK    4  A    between atoms: N_8  and  C_9
REMARK    5  A    between atoms: C_9  and  C_10
REMARK                            x       y       z     vdW  Elec       q    Type
REMARK                         _______ _______ _______ _____ _____    ______ ____
ROOT
ATOM      1  C   UNL     1      49.082   7.569  12.913  0.00  0.00    +0.000 A 
ATOM      2  C   UNL     1      48.199   7.204  11.910  0.00  0.00    +0.000 A 
ATOM      3  C   UNL     1      47.224   6.248  12.183  0.00  0.00    +0.000 A 
ATOM      4  C   UNL     1      47.148   5.660  13.438  0.00  0.00    +0.000 A 
ATOM      5  N   UNL     1      46.133   4.772  13.790  0.00  0.00    +0.000 N 
ATOM      6  N   UNL     1      48.009   5.984  14.415  0.00  0.00    +0.000 NA
ATOM      7  C   UNL     1      48.950   6.928  14.137  0.00  0.00    +0.000 A 
ATOM      8  H   UNL     1      46.333   4.365  14.697  0.00  0.00    +0.000 HD
ENDROOT
BRANCH   1   9
ATOM      9  C   UNL     1      50.108   8.643  12.677  0.00  0.00    +0.000 C 
BRANCH   9  10
ATOM     10  C   UNL     1      51.095   8.263  11.569  0.00  0.00    +0.000 C 
BRANCH  10  11
ATOM     11  N   UNL     1      52.415   7.976  12.126  0.00  0.00    +0.000 NA
ATOM     12  H   UNL     1      53.129   8.222  11.441  0.00  0.00    +0.000 HD
ATOM     13  H   UNL     1      52.512   6.973  12.284  0.00  0.00    +0.000 HD
ENDBRANCH  10  11
ENDBRANCH   9  10
ENDBRANCH   1   9
BRANCH   5  14
ATOM     14  C   UNL     1      45.555   3.922  12.769  0.00  0.00    +0.000 C 
BRANCH  14  15
ATOM     15  C   UNL     1      44.019   3.960  12.781  0.00  0.00    +0.000 C 
ATOM     16  C   UNL     1      43.468   3.269  11.519  0.00  0.00    +0.000 C 
ATOM     17  C   UNL     1      43.753   4.086  10.258  0.00  0.00    +0.000 C 
ATOM     18  N   UNL     1      43.188   5.432  10.353  0.00  0.00    +0.000 NA
ATOM     19  C   UNL     1      43.698   6.159  11.519  0.00  0.00    +0.000 C 
ATOM     20  C   UNL     1      43.469   5.397  12.829  0.00  0.00    +0.000 C 
ATOM     21  H   UNL     1      42.173   5.356  10.433  0.00  0.00    +0.000 HD
ENDBRANCH  14  15
ENDBRANCH   5  14
TORSDOF 5
ENDMDL
MODEL 8
REMARK VINA RESULT:    -5.400      4.450      7.848
REMARK INTER + INTRA:          -6.921
REMARK INTER:                  -6.614
REMARK INTRA:                  -0.307
REMARK UNBOUND:                -0.100
REMARK  Name = 
REMARK  5 active torsions:
REMARK  status: ('A' for Active; 'I' for Inactive)
REMARK    1  A    between atoms: N_1  and  C_2
REMARK    2  A    between atoms: C_2  and  C_3
REMARK    3  A    between atoms: C_3  and  C_4
REMARK    4  A    between atoms: N_8  and  C_9
REMARK    5  A    between atoms: C_9  and  C_10
REMARK                            x       y       z     vdW  Elec       q    Type
REMARK                         _______ _______ _______ _____ _____    ______ ____
ROOT
ATOM      1  C   UNL     1      49.308   4.310  17.390  0.00  0.00    +0.000 A 
ATOM      2  C   UNL     1      49.061   5.488  16.706  0.00  0.00    +0.000 A 
ATOM      3  C   UNL     1      48.027   5.524  15.773  0.00  0.00    +0.000 A 
ATOM      4  C   UNL     1      47.266   4.390  15.524  0.00  0.00    +0.000 A 
ATOM      5  N   UNL     1      46.162   4.401  14.674  0.00  0.00    +0.000 N 
ATOM      6  N   UNL     1      47.505   3.234  16.161  0.00  0.00    +0.000 NA
ATOM      7  C   UNL     1      48.512   3.217  17.078  0.00  0.00    +0.000 A 
ATOM      8  H   UNL     1      45.828   3.453  14.533  0.00  0.00    +0.000 HD
ENDROOT
BRANCH   1   9
ATOM      9  C   UNL     1      50.372   4.249  18.451  0.00  0.00    +0.000 C 
BRANCH   9  10
ATOM     10  C   UNL     1      51.728   3.818  17.881  0.00  0.00    +0.000 C 
BRANCH  10  11
ATOM     11  N   UNL     1      52.043   2.446  18.271  0.00  0.00    +0.000 NA
ATOM     12  H   UNL     1      51.999   1.845  17.448  0.00  0.00    +0.000 HD
ATOM     13  H   UNL     1      51.332   2.098  18.912  0.00  0.00    +0.000 HD
ENDBRANCH  10  11
ENDBRANCH   9  10
ENDBRANCH   1   9
BRANCH   5  14
ATOM     14  C   UNL     1      46.151   5.306  13.544  0.00  0.00    +0.000 C 
BRANCH  14  15
ATOM     15  C   UNL     1      45.510   4.676  12.297  0.00  0.00    +0.000 C 
ATOM     16  C   UNL     1      45.415   5.722  11.171  0.00  0.00    +0.000 C 
ATOM     17  C   UNL     1      44.384   6.805  11.491  0.00  0.00    +0.000 C 
ATOM     18  N   UNL     1      43.059   6.229  11.725  0.00  0.00    +0.000 NA
ATOM     19  C   UNL     1      43.073   5.246  12.811  0.00  0.00    +0.000 C 
ATOM     20  C   UNL     1      44.098   4.131  12.577  0.00  0.00    +0.000 C 
ATOM     21  H   UNL     1      42.747   5.768  10.870  0.00  0.00    +0.000 HD
ENDBRANCH  14  15
ENDBRANCH   5  14
TORSDOF 5
ENDMDL
MODEL 9
REMARK VINA RESULT:    -5.326      3.938      6.530
REMARK INTER + INTRA:          -6.827
REMARK INTER:                  -6.372
REMARK INTRA:                  -0.455
REMARK UNBOUND:                -0.100
REMARK  Name = 
REMARK  5 active torsions:
REMARK  status: ('A' for Active; 'I' for Inactive)
REMARK    1  A    between atoms: N_1  and  C_2
REMARK    2  A    between atoms: C_2  and  C_3
REMARK    3  A    between atoms: C_3  and  C_4
REMARK    4  A    between atoms: N_8  and  C_9
REMARK    5  A    between atoms: C_9  and  C_10
REMARK                            x       y       z     vdW  Elec       q    Type
REMARK                         _______ _______ _______ _____ _____    ______ ____
ROOT
ATOM      1  C   UNL     1      45.576   5.022  11.941  0.00  0.00    +0.000 A 
ATOM      2  C   UNL     1      45.873   4.180  12.999  0.00  0.00    +0.000 A 
ATOM      3  C   UNL     1      46.675   4.652  14.035  0.00  0.00    +0.000 A 
ATOM      4  C   UNL     1      47.181   5.945  13.998  0.00  0.00    +0.000 A 
ATOM      5  N   UNL     1      47.906   6.496  15.052  0.00  0.00    +0.000 N 
ATOM      6  N   UNL     1      46.922   6.768  12.970  0.00  0.00    +0.000 NA
ATOM      7  C   UNL     1      46.128   6.295  11.970  0.00  0.00    +0.000 A 
ATOM      8  H   UNL     1      48.288   7.394  14.774  0.00  0.00    +0.000 HD
ENDROOT
BRANCH   1   9
ATOM      9  C   UNL     1      44.661   4.571  10.836  0.00  0.00    +0.000 C 
BRANCH   9  10
ATOM     10  C   UNL     1      44.334   3.077  10.934  0.00  0.00    +0.000 C 
BRANCH  10  11
ATOM     11  N   UNL     1      42.978   2.874  11.439  0.00  0.00    +0.000 NA
ATOM     12  H   UNL     1      42.943   3.138  12.423  0.00  0.00    +0.000 HD
ATOM     13  H   UNL     1      42.742   1.883  11.405  0.00  0.00    +0.000 HD
ENDBRANCH  10  11
ENDBRANCH   9  10
ENDBRANCH   1   9
BRANCH   5  14
ATOM     14  C   UNL     1      48.725   5.629  15.874  0.00  0.00    +0.000 C 
BRANCH  14  15
ATOM     15  C   UNL     1      48.279   5.627  17.345  0.00  0.00    +0.000 C 
ATOM     16  C   UNL     1      49.496   5.405  18.262  0.00  0.00    +0.000 C 
ATOM     17  C   UNL     1      50.044   3.983  18.140  0.00  0.00    +0.000 C 
ATOM     18  N   UNL     1      49.019   2.986  18.452  0.00  0.00    +0.000 NA
ATOM     19  C   UNL     1      47.842   3.121  17.590  0.00  0.00    +0.000 C 
ATOM     20  C   UNL     1      47.240   4.529  17.640  0.00  0.00    +0.000 C 
ATOM     21  H   UNL     1      48.729   3.109  19.424  0.00  0.00    +0.000 HD
ENDBRANCH  14  15
ENDBRANCH   5  14
TORSDOF 5
ENDMDL
