MODEL 1
REMARK VINA RESULT:    -8.677      0.000      0.000
REMARK INTER + INTRA:         -11.840
REMARK INTER:                 -11.214
REMARK INTRA:                  -0.626
REMARK UNBOUND:                -0.626
REMARK  Name = 
REMARK  5 active torsions:
REMARK  status: ('A' for Active; 'I' for Inactive)
REMARK    1  A    between atoms: C_2  and  C_4
REMARK    2  A    between atoms: C_8  and  C_9
REMARK    3  A    between atoms: C_9  and  O_10
REMARK    4  A    between atoms: O_10  and  C_11
REMARK    5  A    between atoms: C_16  and  C_17
REMARK                            x       y       z     vdW  Elec       q    Type
REMARK                         _______ _______ _______ _____ _____    ______ ____
ROOT
ATOM      1  C   UNL     1      44.847   4.728  11.914  0.00  0.00    +0.000 A 
ATOM      2  C   UNL     1      45.338   3.810  12.827  0.00  0.00    +0.000 A 
ATOM      3  C   UNL     1      46.392   4.199  13.642  0.00  0.00    +0.000 A 
ATOM      4  C   UNL     1      46.931   5.469  13.485  0.00  0.00    +0.000 A 
ATOM      5  F   UNL     1      47.934   5.839  14.294  0.00  0.00    +0.000 F 
ATOM      6  C   UNL     1      46.418   6.329  12.508  0.00  0.00    +0.000 A 
ATOM      7  N   UNL     1      45.356   5.966  11.732  0.00  0.00    +0.000 NA
ENDROOT
BRANCH   6   8
ATOM      8  C   UNL     1      46.981   7.668  12.224  0.00  0.00    +0.000 A 
ATOM      9  C   UNL     1      48.345   7.825  11.904  0.00  0.00    +0.000 A 
ATOM     10  C   UNL     1      48.904   9.087  11.660  0.00  0.00    +0.000 A 
ATOM     11  C   UNL     1      48.106  10.223  11.734  0.00  0.00    +0.000 A 
ATOM     12  C   UNL     1      46.762  10.087  12.050  0.00  0.00    +0.000 A 
ATOM     13  F   UNL     1      45.992  11.179  12.133  0.00  0.00    +0.000 F 
ATOM     14  C   UNL     1      46.201   8.835  12.295  0.00  0.00    +0.000 A 
ENDBRANCH   6   8
BRANCH   1  15
ATOM     15  O   UNL     1      43.778   4.308  11.154  0.00  0.00    +0.000 OA
BRANCH  15  16
ATOM     16  C   UNL     1      43.939   2.983  10.649  0.00  0.00    +0.000 C 
BRANCH  16  21
ATOM     17  C   UNL     1      46.323   2.071   7.821  0.00  0.00    +0.000 A 
ATOM     18  C   UNL     1      46.405   3.308   7.200  0.00  0.00    +0.000 A 
ATOM     19  N   UNL     1      45.720   4.404   7.614  0.00  0.00    +0.000 NA
ATOM     20  C   UNL     1      44.943   4.262   8.713  0.00  0.00    +0.000 A 
ATOM     21  C   UNL     1      44.811   3.073   9.424  0.00  0.00    +0.000 A 
ATOM     22  C   UNL     1      45.513   1.955   8.951  0.00  0.00    +0.000 A 
BRANCH  17  24
ATOM     23  N   UNL     1      46.749  -0.317   7.664  0.00  0.00    +0.000 N 
ATOM     24  C   UNL     1      47.109   0.944   7.277  0.00  0.00    +0.000 C 
ATOM     25  O   UNL     1      48.025   1.124   6.487  0.00  0.00    +0.000 OA
ATOM     26  H   UNL     1      47.228  -1.081   7.203  0.00  0.00    +0.000 HD
ATOM     27  H   UNL     1      45.860  -0.521   8.101  0.00  0.00    +0.000 HD
ENDBRANCH  17  24
ENDBRANCH  16  21
ENDBRANCH  15  16
ENDBRANCH   1  15
TORSDOF 5
ENDMDL
MODEL 2
REMARK VINA RESULT:    -8.277      1.342      1.608
REMARK INTER + INTRA:         -11.322
REMARK INTER:                 -11.058
REMARK INTRA:                  -0.263
REMARK UNBOUND:                -0.626
REMARK  Name = 
REMARK  5 active torsions:
REMARK  status: ('A' for Active; 'I' for Inactive)
REMARK    1  A    between atoms: C_2  and  C_4
REMARK    2  A    between atoms: C_8  and  C_9
REMARK    3  A    between atoms: C_9  and  O_10
REMARK    4  A    between atoms: O_10  and  C_11
REMARK    5  A    between atoms: C_16  and  C_17
REMARK                            x       y       z     vdW  Elec       q    Type
REMARK                         _______ _______ _______ _____ _____    ______ ____
ROOT
ATOM      1  C   UNL     1      45.224   3.743  12.244  0.00  0.00    +0.000 A 
ATOM      2  C   UNL     1      46.232   3.287  13.077  0.00  0.00    +0.000 A 
ATOM      3  C   UNL     1      47.002   4.228  13.746  0.00  0.00    +0.000 A 
ATOM      4  C   UNL     1      46.758   5.577  13.527  0.00  0.00    +0.000 A 
ATOM      5  F   UNL     1      47.496   6.475  14.196  0.00  0.00    +0.000 F 
ATOM      6  C   UNL     1      45.755   5.969  12.633  0.00  0.00    +0.000 A 
ATOM      7  N   UNL     1      44.968   5.048  12.004  0.00  0.00    +0.000 NA
ENDROOT
BRANCH   6   8
ATOM      8  C   UNL     1      45.479   7.380  12.285  0.00  0.00    +0.000 A 
ATOM      9  C   UNL     1      46.260   8.424  12.823  0.00  0.00    +0.000 A 
ATOM     10  C   UNL     1      45.998   9.769  12.528  0.00  0.00    +0.000 A 
ATOM     11  C   UNL     1      44.942  10.098  11.686  0.00  0.00    +0.000 A 
ATOM     12  C   UNL     1      44.161   9.084  11.149  0.00  0.00    +0.000 A 
ATOM     13  F   UNL     1      43.137   9.398  10.346  0.00  0.00    +0.000 F 
ATOM     14  C   UNL     1      44.417   7.746  11.440  0.00  0.00    +0.000 A 
ENDBRANCH   6   8
BRANCH   1  15
ATOM     15  O   UNL     1      44.464   2.772  11.631  0.00  0.00    +0.000 OA
BRANCH  15  16
ATOM     16  C   UNL     1      43.801   3.240  10.457  0.00  0.00    +0.000 C 
BRANCH  16  21
ATOM     17  C   UNL     1      46.384   2.192   7.860  0.00  0.00    +0.000 A 
ATOM     18  C   UNL     1      46.706   3.444   7.359  0.00  0.00    +0.000 A 
ATOM     19  N   UNL     1      46.124   4.596   7.780  0.00  0.00    +0.000 NA
ATOM     20  C   UNL     1      45.202   4.491   8.765  0.00  0.00    +0.000 A 
ATOM     21  C   UNL     1      44.826   3.288   9.354  0.00  0.00    +0.000 A 
ATOM     22  C   UNL     1      45.429   2.116   8.875  0.00  0.00    +0.000 A 
BRANCH  17  24
ATOM     23  N   UNL     1      46.698  -0.217   7.803  0.00  0.00    +0.000 N 
ATOM     24  C   UNL     1      47.078   1.005   7.319  0.00  0.00    +0.000 C 
ATOM     25  O   UNL     1      47.934   1.102   6.452  0.00  0.00    +0.000 OA
ATOM     26  H   UNL     1      47.108  -1.025   7.348  0.00  0.00    +0.000 HD
ATOM     27  H   UNL     1      45.840  -0.358   8.318  0.00  0.00    +0.000 HD
ENDBRANCH  17  24
ENDBRANCH  16  21
ENDBRANCH  15  16
ENDBRANCH   1  15
TORSDOF 5
ENDMDL
MODEL 3
REMARK VINA RESULT:    -8.264      1.370      2.414
REMARK INTER + INTRA:         -11.306
REMARK INTER:                 -10.799
REMARK INTRA:                  -0.507
REMARK UNBOUND:                -0.626
REMARK  Name = 
REMARK  5 active torsions:
REMARK  status: ('A' for Active; 'I' for Inactive)
REMARK    1  A    between atoms: C_2  and  C_4
REMARK    2  A    between atoms: C_8  and  C_9
REMARK    3  A    between atoms: C_9  and  O_10
REMARK    4  A    between atoms: O_10  and  C_11
REMARK    5  A    between atoms: C_16  and  C_17
REMARK                            x       y       z     vdW  Elec       q    Type
REMARK                         _______ _______ _______ _____ _____    ______ ____
ROOT
ATOM      1  C   UNL     1      44.870   4.680  11.854  0.00  0.00    +0.000 A 
ATOM      2  C   UNL     1      43.729   5.450  11.699  0.00  0.00    +0.000 A 
ATOM      3  C   UNL     1      43.857   6.830  11.783  0.00  0.00    +0.000 A 
ATOM      4  C   UNL     1      45.104   7.376  12.054  0.00  0.00    +0.000 A 
ATOM      5  F   UNL     1      45.216   8.711  12.111  0.00  0.00    +0.000 F 
ATOM      6  C   UNL     1      46.206   6.536  12.249  0.00  0.00    +0.000 A 
ATOM      7  N   UNL     1      46.094   5.181  12.127  0.00  0.00    +0.000 NA
ENDROOT
BRANCH   6   8
ATOM      8  C   UNL     1      47.552   7.030  12.615  0.00  0.00    +0.000 A 
ATOM      9  C   UNL     1      48.314   7.794  11.707  0.00  0.00    +0.000 A 
ATOM     10  C   UNL     1      49.602   8.247  12.024  0.00  0.00    +0.000 A 
ATOM     11  C   UNL     1      50.157   7.940  13.261  0.00  0.00    +0.000 A 
ATOM     12  C   UNL     1      49.423   7.187  14.166  0.00  0.00    +0.000 A 
ATOM     13  F   UNL     1      49.958   6.881  15.355  0.00  0.00    +0.000 F 
ATOM     14  C   UNL     1      48.142   6.733  13.856  0.00  0.00    +0.000 A 
ENDBRANCH   6   8
BRANCH   1  15
ATOM     15  O   UNL     1      44.699   3.319  11.726  0.00  0.00    +0.000 OA
BRANCH  15  16
ATOM     16  C   UNL     1      43.939   2.959  10.573  0.00  0.00    +0.000 C 
BRANCH  16  21
ATOM     17  C   UNL     1      46.395   2.085   7.795  0.00  0.00    +0.000 A 
ATOM     18  C   UNL     1      46.525   3.340   7.220  0.00  0.00    +0.000 A 
ATOM     19  N   UNL     1      45.852   4.437   7.648  0.00  0.00    +0.000 NA
ATOM     20  C   UNL     1      45.035   4.277   8.715  0.00  0.00    +0.000 A 
ATOM     21  C   UNL     1      44.853   3.069   9.381  0.00  0.00    +0.000 A 
ATOM     22  C   UNL     1      45.546   1.950   8.894  0.00  0.00    +0.000 A 
BRANCH  17  24
ATOM     23  N   UNL     1      46.810  -0.304   7.621  0.00  0.00    +0.000 N 
ATOM     24  C   UNL     1      47.174   0.958   7.240  0.00  0.00    +0.000 C 
ATOM     25  O   UNL     1      48.087   1.140   6.446  0.00  0.00    +0.000 OA
ATOM     26  H   UNL     1      47.284  -1.067   7.152  0.00  0.00    +0.000 HD
ATOM     27  H   UNL     1      45.923  -0.507   8.061  0.00  0.00    +0.000 HD
ENDBRANCH  17  24
ENDBRANCH  16  21
ENDBRANCH  15  16
ENDBRANCH   1  15
TORSDOF 5
ENDMDL
MODEL 4
REMARK VINA RESULT:    -8.124      3.451      7.246
REMARK INTER + INTRA:         -11.125
REMARK INTER:                 -10.457
REMARK INTRA:                  -0.668
REMARK UNBOUND:                -0.626
REMARK  Name = 
REMARK  5 active torsions:
REMARK  status: ('A' for Active; 'I' for Inactive)
REMARK    1  A    between atoms: C_2  and  C_4
REMARK    2  A    between atoms: C_8  and  C_9
REMARK    3  A    between atoms: C_9  and  O_10
REMARK    4  A    between atoms: O_10  and  C_11
REMARK    5  A    between atoms: C_16  and  C_17
REMARK                            x       y       z     vdW  Elec       q    Type
REMARK                         _______ _______ _______ _____ _____    ______ ____
ROOT
ATOM      1  C   UNL     1      44.515   5.558  10.852  0.00  0.00    +0.000 A 
ATOM      2  C   UNL     1      43.511   4.958  11.594  0.00  0.00    +0.000 A 
ATOM      3  C   UNL     1      43.253   3.613  11.375  0.00  0.00    +0.000 A 
ATOM      4  C   UNL     1      43.979   2.936  10.404  0.00  0.00    +0.000 A 
ATOM      5  F   UNL     1      43.733   1.631  10.219  0.00  0.00    +0.000 F 
ATOM      6  C   UNL     1      44.947   3.616   9.656  0.00  0.00    +0.000 A 
ATOM      7  N   UNL     1      45.233   4.929   9.896  0.00  0.00    +0.000 NA
ENDROOT
BRANCH   6   8
ATOM      8  C   UNL     1      45.711   2.992   8.554  0.00  0.00    +0.000 A 
ATOM      9  C   UNL     1      46.137   3.754   7.446  0.00  0.00    +0.000 A 
ATOM     10  C   UNL     1      46.837   3.176   6.379  0.00  0.00    +0.000 A 
ATOM     11  C   UNL     1      47.125   1.816   6.397  0.00  0.00    +0.000 A 
ATOM     12  C   UNL     1      46.712   1.050   7.478  0.00  0.00    +0.000 A 
ATOM     13  F   UNL     1      46.978  -0.262   7.495  0.00  0.00    +0.000 F 
ATOM     14  C   UNL     1      46.014   1.620   8.542  0.00  0.00    +0.000 A 
ENDBRANCH   6   8
BRANCH   1  15
ATOM     15  O   UNL     1      44.760   6.884  11.131  0.00  0.00    +0.000 OA
BRANCH  15  16
ATOM     16  C   UNL     1      45.105   7.113  12.496  0.00  0.00    +0.000 C 
BRANCH  16  21
ATOM     17  C   UNL     1      48.737   8.207  12.133  0.00  0.00    +0.000 A 
ATOM     18  C   UNL     1      49.351   7.120  12.736  0.00  0.00    +0.000 A 
ATOM     19  N   UNL     1      48.672   6.077  13.278  0.00  0.00    +0.000 NA
ATOM     20  C   UNL     1      47.322   6.111  13.185  0.00  0.00    +0.000 A 
ATOM     21  C   UNL     1      46.609   7.140  12.578  0.00  0.00    +0.000 A 
ATOM     22  C   UNL     1      47.344   8.214  12.053  0.00  0.00    +0.000 A 
BRANCH  17  24
ATOM     23  N   UNL     1      50.935   9.129  11.657  0.00  0.00    +0.000 N 
ATOM     24  C   UNL     1      49.578   9.290  11.584  0.00  0.00    +0.000 C 
ATOM     25  O   UNL     1      49.087  10.278  11.055  0.00  0.00    +0.000 OA
ATOM     26  H   UNL     1      51.494   9.829  11.184  0.00  0.00    +0.000 HD
ATOM     27  H   UNL     1      51.369   8.237  11.848  0.00  0.00    +0.000 HD
ENDBRANCH  17  24
ENDBRANCH  16  21
ENDBRANCH  15  16
ENDBRANCH   1  15
TORSDOF 5
ENDMDL
MODEL 5
REMARK VINA RESULT:    -8.105      3.538      7.120
REMARK INTER + INTRA:         -11.100
REMARK INTER:                 -10.696
REMARK INTRA:                  -0.403
REMARK UNBOUND:                -0.626
REMARK  Name = 
REMARK  5 active torsions:
REMARK  status: ('A' for Active; 'I' for Inactive)
REMARK    1  A    between atoms: C_2  and  C_4
REMARK    2  A    between atoms: C_8  and  C_9
REMARK    3  A    between atoms: C_9  and  O_10
REMARK    4  A    between atoms: O_10  and  C_11
REMARK    5  A    between atoms: C_16  and  C_17
REMARK                            x       y       z     vdW  Elec       q    Type
REMARK                         _______ _______ _______ _____ _____    ______ ____
ROOT
ATOM      1  C   UNL     1      44.558   5.287  11.031  0.00  0.00    +0.000 A 
ATOM      2  C   UNL     1      43.554   4.635  11.727  0.00  0.00    +0.000 A 
ATOM      3  C   UNL     1      43.282   3.315  11.397  0.00  0.00    +0.000 A 
ATOM      4  C   UNL     1      43.996   2.717  10.366  0.00  0.00    +0.000 A 
ATOM      5  F   UNL     1      43.737   1.435  10.073  0.00  0.00    +0.000 F 
ATOM      6  C   UNL     1      44.965   3.451   9.672  0.00  0.00    +0.000 A 
ATOM      7  N   UNL     1      45.264   4.736  10.020  0.00  0.00    +0.000 NA
ENDROOT
BRANCH   6   8
ATOM      8  C   UNL     1      45.717   2.916   8.515  0.00  0.00    +0.000 A 
ATOM      9  C   UNL     1      46.099   3.756   7.449  0.00  0.00    +0.000 A 
ATOM     10  C   UNL     1      46.786   3.264   6.332  0.00  0.00    +0.000 A 
ATOM     11  C   UNL     1      47.105   1.912   6.257  0.00  0.00    +0.000 A 
ATOM     12  C   UNL     1      46.735   1.070   7.296  0.00  0.00    +0.000 A 
ATOM     13  F   UNL     1      47.031  -0.234   7.223  0.00  0.00    +0.000 F 
ATOM     14  C   UNL     1      46.050   1.555   8.409  0.00  0.00    +0.000 A 
ENDBRANCH   6   8
BRANCH   1  15
ATOM     15  O   UNL     1      44.816   6.583  11.420  0.00  0.00    +0.000 OA
BRANCH  15  16
ATOM     16  C   UNL     1      46.170   6.974  11.194  0.00  0.00    +0.000 C 
BRANCH  16  21
ATOM     17  C   UNL     1      47.476   5.460  14.437  0.00  0.00    +0.000 A 
ATOM     18  C   UNL     1      48.270   6.514  14.862  0.00  0.00    +0.000 A 
ATOM     19  N   UNL     1      48.436   7.663  14.160  0.00  0.00    +0.000 NA
ATOM     20  C   UNL     1      47.755   7.772  12.995  0.00  0.00    +0.000 A 
ATOM     21  C   UNL     1      46.912   6.786  12.492  0.00  0.00    +0.000 A 
ATOM     22  C   UNL     1      46.785   5.602  13.233  0.00  0.00    +0.000 A 
BRANCH  17  24
ATOM     23  N   UNL     1      47.077   4.436  16.605  0.00  0.00    +0.000 N 
ATOM     24  C   UNL     1      47.376   4.252  15.283  0.00  0.00    +0.000 C 
ATOM     25  O   UNL     1      47.521   3.131  14.818  0.00  0.00    +0.000 OA
ATOM     26  H   UNL     1      46.909   3.596  17.146  0.00  0.00    +0.000 HD
ATOM     27  H   UNL     1      46.706   5.304  16.965  0.00  0.00    +0.000 HD
ENDBRANCH  17  24
ENDBRANCH  16  21
ENDBRANCH  15  16
ENDBRANCH   1  15
TORSDOF 5
ENDMDL
MODEL 6
REMARK VINA RESULT:    -7.847      3.464      7.215
REMARK INTER + INTRA:         -10.767
REMARK INTER:                 -10.215
REMARK INTRA:                  -0.552
REMARK UNBOUND:                -0.626
REMARK  Name = 
REMARK  5 active torsions:
REMARK  status: ('A' for Active; 'I' for Inactive)
REMARK    1  A    between atoms: C_2  and  C_4
REMARK    2  A    between atoms: C_8  and  C_9
REMARK    3  A    between atoms: C_9  and  O_10
REMARK    4  A    between atoms: O_10  and  C_11
REMARK    5  A    between atoms: C_16  and  C_17
REMARK                            x       y       z     vdW  Elec       q    Type
REMARK                         _______ _______ _______ _____ _____    ______ ____
ROOT
ATOM      1  C   UNL     1      44.786   5.687  10.831  0.00  0.00    +0.000 A 
ATOM      2  C   UNL     1      43.737   5.164  11.568  0.00  0.00    +0.000 A 
ATOM      3  C   UNL     1      43.371   3.846  11.340  0.00  0.00    +0.000 A 
ATOM      4  C   UNL     1      44.041   3.121  10.363  0.00  0.00    +0.000 A 
ATOM      5  F   UNL     1      43.690   1.841  10.168  0.00  0.00    +0.000 F 
ATOM      6  C   UNL     1      45.060   3.727   9.620  0.00  0.00    +0.000 A 
ATOM      7  N   UNL     1      45.450   5.010   9.869  0.00  0.00    +0.000 NA
ENDROOT
BRANCH   6   8
ATOM      8  C   UNL     1      45.771   3.052   8.512  0.00  0.00    +0.000 A 
ATOM      9  C   UNL     1      46.171   3.768   7.365  0.00  0.00    +0.000 A 
ATOM     10  C   UNL     1      46.820   3.142   6.293  0.00  0.00    +0.000 A 
ATOM     11  C   UNL     1      47.083   1.777   6.346  0.00  0.00    +0.000 A 
ATOM     12  C   UNL     1      46.695   1.056   7.466  0.00  0.00    +0.000 A 
ATOM     13  F   UNL     1      46.937  -0.260   7.517  0.00  0.00    +0.000 F 
ATOM     14  C   UNL     1      46.048   1.674   8.534  0.00  0.00    +0.000 A 
ENDBRANCH   6   8
BRANCH   1  15
ATOM     15  O   UNL     1      45.136   6.987  11.120  0.00  0.00    +0.000 OA
BRANCH  15  16
ATOM     16  C   UNL     1      45.813   7.119  12.369  0.00  0.00    +0.000 C 
BRANCH  16  21
ATOM     17  C   UNL     1      49.351   8.389  11.749  0.00  0.00    +0.000 A 
ATOM     18  C   UNL     1      49.098   9.752  11.774  0.00  0.00    +0.000 A 
ATOM     19  N   UNL     1      47.862  10.285  11.944  0.00  0.00    +0.000 NA
ATOM     20  C   UNL     1      46.840   9.416  12.128  0.00  0.00    +0.000 A 
ATOM     21  C   UNL     1      46.989   8.033  12.147  0.00  0.00    +0.000 A 
ATOM     22  C   UNL     1      48.277   7.518  11.941  0.00  0.00    +0.000 A 
BRANCH  17  24
ATOM     23  N   UNL     1      51.588   8.004  12.616  0.00  0.00    +0.000 N 
ATOM     24  C   UNL     1      50.738   7.922  11.548  0.00  0.00    +0.000 C 
ATOM     25  O   UNL     1      51.107   7.449  10.482  0.00  0.00    +0.000 OA
ATOM     26  H   UNL     1      52.503   7.584  12.493  0.00  0.00    +0.000 HD
ATOM     27  H   UNL     1      51.264   8.144  13.563  0.00  0.00    +0.000 HD
ENDBRANCH  17  24
ENDBRANCH  16  21
ENDBRANCH  15  16
ENDBRANCH   1  15
TORSDOF 5
ENDMDL
MODEL 7
REMARK VINA RESULT:    -7.840      3.680      7.151
REMARK INTER + INTRA:         -10.757
REMARK INTER:                 -10.120
REMARK INTRA:                  -0.637
REMARK UNBOUND:                -0.626
REMARK  Name = 
REMARK  5 active torsions:
REMARK  status: ('A' for Active; 'I' for Inactive)
REMARK    1  A    between atoms: C_2  and  C_4
REMARK    2  A    between atoms: C_8  and  C_9
REMARK    3  A    between atoms: C_9  and  O_10
REMARK    4  A    between atoms: O_10  and  C_11
REMARK    5  A    between atoms: C_16  and  C_17
REMARK                            x       y       z     vdW  Elec       q    Type
REMARK                         _______ _______ _______ _____ _____    ______ ____
ROOT
ATOM      1  C   UNL     1      44.918   5.864  12.251  0.00  0.00    +0.000 A 
ATOM      2  C   UNL     1      43.775   5.445  12.911  0.00  0.00    +0.000 A 
ATOM      3  C   UNL     1      43.149   4.291  12.463  0.00  0.00    +0.000 A 
ATOM      4  C   UNL     1      43.668   3.628  11.359  0.00  0.00    +0.000 A 
ATOM      5  F   UNL     1      43.065   2.502  10.951  0.00  0.00    +0.000 F 
ATOM      6  C   UNL     1      44.799   4.135  10.709  0.00  0.00    +0.000 A 
ATOM      7  N   UNL     1      45.441   5.247  11.170  0.00  0.00    +0.000 NA
ENDROOT
BRANCH   6   8
ATOM      8  C   UNL     1      45.371   3.534   9.484  0.00  0.00    +0.000 A 
ATOM      9  C   UNL     1      45.773   4.344   8.401  0.00  0.00    +0.000 A 
ATOM     10  C   UNL     1      46.290   3.793   7.221  0.00  0.00    +0.000 A 
ATOM     11  C   UNL     1      46.415   2.414   7.098  0.00  0.00    +0.000 A 
ATOM     12  C   UNL     1      46.023   1.602   8.153  0.00  0.00    +0.000 A 
ATOM     13  F   UNL     1      46.132   0.272   8.035  0.00  0.00    +0.000 F 
ATOM     14  C   UNL     1      45.506   2.144   9.328  0.00  0.00    +0.000 A 
ENDBRANCH   6   8
BRANCH   1  15
ATOM     15  O   UNL     1      45.524   6.994  12.754  0.00  0.00    +0.000 OA
BRANCH  15  16
ATOM     16  C   UNL     1      46.941   6.989  12.587  0.00  0.00    +0.000 C 
BRANCH  16  21
ATOM     17  C   UNL     1      47.928   4.855  15.585  0.00  0.00    +0.000 A 
ATOM     18  C   UNL     1      48.648   5.803  16.296  0.00  0.00    +0.000 A 
ATOM     19  N   UNL     1      48.861   7.070  15.859  0.00  0.00    +0.000 NA
ATOM     20  C   UNL     1      48.305   7.411  14.673  0.00  0.00    +0.000 A 
ATOM     21  C   UNL     1      47.544   6.545  13.894  0.00  0.00    +0.000 A 
ATOM     22  C   UNL     1      47.367   5.236  14.365  0.00  0.00    +0.000 A 
BRANCH  17  24
ATOM     23  N   UNL     1      46.863   3.355  17.173  0.00  0.00    +0.000 N 
ATOM     24  C   UNL     1      47.766   3.502  16.156  0.00  0.00    +0.000 C 
ATOM     25  O   UNL     1      48.388   2.544  15.720  0.00  0.00    +0.000 OA
ATOM     26  H   UNL     1      46.688   2.406  17.481  0.00  0.00    +0.000 HD
ATOM     27  H   UNL     1      46.161   4.050  17.384  0.00  0.00    +0.000 HD
ENDBRANCH  17  24
ENDBRANCH  16  21
ENDBRANCH  15  16
ENDBRANCH   1  15
TORSDOF 5
ENDMDL
MODEL 8
REMARK VINA RESULT:    -7.587      4.129      7.732
REMARK INTER + INTRA:         -10.431
REMARK INTER:                  -9.542
REMARK INTRA:                  -0.889
REMARK UNBOUND:                -0.626
REMARK  Name = 
REMARK  5 active torsions:
REMARK  status: ('A' for Active; 'I' for Inactive)
REMARK    1  A    between atoms: C_2  and  C_4
REMARK    2  A    between atoms: C_8  and  C_9
REMARK    3  A    between atoms: C_9  and  O_10
REMARK    4  A    between atoms: O_10  and  C_11
REMARK    5  A    between atoms: C_16  and  C_17
REMARK                            x       y       z     vdW  Elec       q    Type
REMARK                         _______ _______ _______ _____ _____    ______ ____
ROOT
ATOM      1  C   UNL     1      47.353   6.982  12.926  0.00  0.00    +0.000 A 
ATOM      2  C   UNL     1      46.669   8.169  13.126  0.00  0.00    +0.000 A 
ATOM      3  C   UNL     1      45.423   8.312  12.533  0.00  0.00    +0.000 A 
ATOM      4  C   UNL     1      44.933   7.283  11.739  0.00  0.00    +0.000 A 
ATOM      5  F   UNL     1      43.718   7.427  11.190  0.00  0.00    +0.000 F 
ATOM      6  C   UNL     1      45.700   6.130  11.540  0.00  0.00    +0.000 A 
ATOM      7  N   UNL     1      46.907   5.968  12.154  0.00  0.00    +0.000 NA
ENDROOT
BRANCH   6   8
ATOM      8  C   UNL     1      45.287   5.021  10.651  0.00  0.00    +0.000 A 
ATOM      9  C   UNL     1      44.530   3.940  11.146  0.00  0.00    +0.000 A 
ATOM     10  C   UNL     1      44.153   2.867  10.328  0.00  0.00    +0.000 A 
ATOM     11  C   UNL     1      44.531   2.852   8.990  0.00  0.00    +0.000 A 
ATOM     12  C   UNL     1      45.278   3.907   8.485  0.00  0.00    +0.000 A 
ATOM     13  F   UNL     1      45.653   3.892   7.200  0.00  0.00    +0.000 F 
ATOM     14  C   UNL     1      45.656   4.976   9.295  0.00  0.00    +0.000 A 
ENDBRANCH   6   8
BRANCH   1  15
ATOM     15  O   UNL     1      48.569   6.873  13.565  0.00  0.00    +0.000 OA
BRANCH  15  16
ATOM     16  C   UNL     1      48.589   7.516  14.839  0.00  0.00    +0.000 C 
BRANCH  16  21
ATOM     17  C   UNL     1      48.651   4.587  17.275  0.00  0.00    +0.000 A 
ATOM     18  C   UNL     1      49.966   4.689  17.701  0.00  0.00    +0.000 A 
ATOM     19  N   UNL     1      50.839   5.617  17.234  0.00  0.00    +0.000 NA
ATOM     20  C   UNL     1      50.366   6.497  16.321  0.00  0.00    +0.000 A 
ATOM     21  C   UNL     1      49.059   6.499  15.846  0.00  0.00    +0.000 A 
ATOM     22  C   UNL     1      48.192   5.509  16.333  0.00  0.00    +0.000 A 
BRANCH  17  24
ATOM     23  N   UNL     1      48.216   2.937  19.006  0.00  0.00    +0.000 N 
ATOM     24  C   UNL     1      47.792   3.530  17.849  0.00  0.00    +0.000 C 
ATOM     25  O   UNL     1      46.728   3.218  17.332  0.00  0.00    +0.000 OA
ATOM     26  H   UNL     1      47.567   2.292  19.442  0.00  0.00    +0.000 HD
ATOM     27  H   UNL     1      48.941   3.333  19.588  0.00  0.00    +0.000 HD
ENDBRANCH  17  24
ENDBRANCH  16  21
ENDBRANCH  15  16
ENDBRANCH   1  15
TORSDOF 5
ENDMDL
MODEL 9
REMARK VINA RESULT:    -7.258      4.403      7.709
REMARK INTER + INTRA:         -10.006
REMARK INTER:                  -9.078
REMARK INTRA:                  -0.928
REMARK UNBOUND:                -0.626
REMARK  Name = 
REMARK  5 active torsions:
REMARK  status: ('A' for Active; 'I' for Inactive)
REMARK    1  A    between atoms: C_2  and  C_4
REMARK    2  A    between atoms: C_8  and  C_9
REMARK    3  A    between atoms: C_9  and  O_10
REMARK    4  A    between atoms: O_10  and  C_11
REMARK    5  A    between atoms: C_16  and  C_17
REMARK                            x       y       z     vdW  Elec       q    Type
REMARK                         _______ _______ _______ _____ _____    ______ ____
ROOT
ATOM      1  C   UNL     1      47.918   6.965  14.020  0.00  0.00    +0.000 A 
ATOM      2  C   UNL     1      47.607   8.313  13.959  0.00  0.00    +0.000 A 
ATOM      3  C   UNL     1      46.491   8.693  13.228  0.00  0.00    +0.000 A 
ATOM      4  C   UNL     1      45.758   7.720  12.563  0.00  0.00    +0.000 A 
ATOM      5  F   UNL     1      44.670   8.100  11.878  0.00  0.00    +0.000 F 
ATOM      6  C   UNL     1      46.157   6.380  12.627  0.00  0.00    +0.000 A 
ATOM      7  N   UNL     1      47.230   5.996  13.378  0.00  0.00    +0.000 NA
ENDROOT
BRANCH   6   8
ATOM      8  C   UNL     1      45.479   5.292  11.888  0.00  0.00    +0.000 A 
ATOM      9  C   UNL     1      45.470   5.270  10.478  0.00  0.00    +0.000 A 
ATOM     10  C   UNL     1      44.809   4.265   9.760  0.00  0.00    +0.000 A 
ATOM     11  C   UNL     1      44.138   3.256  10.442  0.00  0.00    +0.000 A 
ATOM     12  C   UNL     1      44.134   3.263  11.830  0.00  0.00    +0.000 A 
ATOM     13  F   UNL     1      43.481   2.298  12.490  0.00  0.00    +0.000 F 
ATOM     14  C   UNL     1      44.789   4.261  12.549  0.00  0.00    +0.000 A 
ENDBRANCH   6   8
BRANCH   1  15
ATOM     15  O   UNL     1      49.013   6.634  14.788  0.00  0.00    +0.000 OA
BRANCH  15  16
ATOM     16  C   UNL     1      48.903   7.081  16.139  0.00  0.00    +0.000 C 
BRANCH  16  21
ATOM     17  C   UNL     1      49.369   3.528  17.431  0.00  0.00    +0.000 A 
ATOM     18  C   UNL     1      48.704   3.651  18.642  0.00  0.00    +0.000 A 
ATOM     19  N   UNL     1      48.146   4.807  19.081  0.00  0.00    +0.000 NA
ATOM     20  C   UNL     1      48.232   5.879  18.258  0.00  0.00    +0.000 A 
ATOM     21  C   UNL     1      48.853   5.856  17.014  0.00  0.00    +0.000 A 
ATOM     22  C   UNL     1      49.441   4.650  16.605  0.00  0.00    +0.000 A 
BRANCH  17  24
ATOM     23  N   UNL     1      50.868   1.676  17.911  0.00  0.00    +0.000 N 
ATOM     24  C   UNL     1      49.945   2.219  17.060  0.00  0.00    +0.000 C 
ATOM     25  O   UNL     1      49.590   1.625  16.051  0.00  0.00    +0.000 OA
ATOM     26  H   UNL     1      51.174   0.734  17.697  0.00  0.00    +0.000 HD
ATOM     27  H   UNL     1      50.995   2.003  18.859  0.00  0.00    +0.000 HD
ENDBRANCH  17  24
ENDBRANCH  16  21
ENDBRANCH  15  16
ENDBRANCH   1  15
TORSDOF 5
ENDMDL
