MODEL 1
REMARK VINA RESULT:    -7.154      0.000      0.000
REMARK INTER + INTRA:         -10.475
REMARK INTER:                  -9.663
REMARK INTRA:                  -0.811
REMARK UNBOUND:                -0.811
REMARK  Name = 
REMARK  8 active torsions:
REMARK  status: ('A' for Active; 'I' for Inactive)
REMARK    1  A    between atoms: C_1  and  N_2
REMARK    2  A    between atoms: N_2  and  C_3
REMARK    3  A    between atoms: N_2  and  C_4
REMARK    4  A    between atoms: C_4  and  C_5
REMARK    5  A    between atoms: C_5  and  C_6
REMARK    6  A    between atoms: C_6  and  C_7
REMARK    7  A    between atoms: N_9  and  C_10
REMARK    8  A    between atoms: C_10  and  C_11
REMARK                            x       y       z     vdW  Elec       q    Type
REMARK                         _______ _______ _______ _____ _____    ______ ____
ROOT
ATOM      1  C   UNL     1      46.000   5.964  11.120  0.00  0.00    +0.000 A 
ATOM      2  C   UNL     1      45.927   5.730   9.761  0.00  0.00    +0.000 A 
ATOM      3  N   UNL     1      45.077   4.674   9.545  0.00  0.00    +0.000 N 
ATOM      4  C   UNL     1      44.540   4.243  10.743  0.00  0.00    +0.000 A 
ATOM      5  C   UNL     1      43.622   3.221  11.039  0.00  0.00    +0.000 A 
ATOM      6  C   UNL     1      43.288   2.994  12.375  0.00  0.00    +0.000 A 
ATOM      7  C   UNL     1      43.839   3.767  13.390  0.00  0.00    +0.000 A 
ATOM      8  C   UNL     1      44.741   4.790  13.089  0.00  0.00    +0.000 A 
ATOM      9  C   UNL     1      45.106   5.035  11.746  0.00  0.00    +0.000 A 
ENDROOT
BRANCH   1  10
ATOM     10  C   UNL     1      46.861   6.982  11.802  0.00  0.00    +0.000 C 
BRANCH  10  11
ATOM     11  C   UNL     1      47.974   6.336  12.633  0.00  0.00    +0.000 C 
BRANCH  11  12
ATOM     12  C   UNL     1      47.908   6.771  14.102  0.00  0.00    +0.000 C 
BRANCH  12  14
ATOM     13  C   UNL     1      48.990   6.447  16.227  0.00  0.00    +0.000 C 
ATOM     14  N   UNL     1      48.465   5.774  15.035  0.00  0.00    +0.000 NA
ATOM     15  C   UNL     1      47.479   4.768  15.436  0.00  0.00    +0.000 C 
ENDBRANCH  12  14
ENDBRANCH  11  12
ENDBRANCH  10  11
ENDBRANCH   1  10
BRANCH   3  16
ATOM     16  C   UNL     1      44.793   4.111   8.229  0.00  0.00    +0.000 C 
BRANCH  16  17
ATOM     17  C   UNL     1      45.810   3.073   7.850  0.00  0.00    +0.000 A 
ATOM     18  C   UNL     1      46.830   3.338   6.930  0.00  0.00    +0.000 A 
ATOM     19  C   UNL     1      47.712   2.326   6.562  0.00  0.00    +0.000 A 
ATOM     20  C   UNL     1      47.552   1.077   7.137  0.00  0.00    +0.000 A 
ATOM     21  N   UNL     1      46.596   0.785   8.042  0.00  0.00    +0.000 NA
ATOM     22  C   UNL     1      45.745   1.783   8.370  0.00  0.00    +0.000 A 
ENDBRANCH  16  17
ENDBRANCH   3  16
TORSDOF 6
ENDMDL
MODEL 2
REMARK VINA RESULT:    -6.886      1.958      2.779
REMARK INTER + INTRA:         -10.113
REMARK INTER:                  -9.414
REMARK INTRA:                  -0.698
REMARK UNBOUND:                -0.811
REMARK  Name = 
REMARK  8 active torsions:
REMARK  status: ('A' for Active; 'I' for Inactive)
REMARK    1  A    between atoms: C_1  and  N_2
REMARK    2  A    between atoms: N_2  and  C_3
REMARK    3  A    between atoms: N_2  and  C_4
REMARK    4  A    between atoms: C_4  and  C_5
REMARK    5  A    between atoms: C_5  and  C_6
REMARK    6  A    between atoms: C_6  and  C_7
REMARK    7  A    between atoms: N_9  and  C_10
REMARK    8  A    between atoms: C_10  and  C_11
REMARK                            x       y       z     vdW  Elec       q    Type
REMARK                         _______ _______ _______ _____ _____    ______ ____
ROOT
ATOM      1  C   UNL     1      46.009   5.923  11.109  0.00  0.00    +0.000 A 
ATOM      2  C   UNL     1      45.920   5.684   9.752  0.00  0.00    +0.000 A 
ATOM      3  N   UNL     1      45.070   4.625   9.550  0.00  0.00    +0.000 N 
ATOM      4  C   UNL     1      44.550   4.197  10.758  0.00  0.00    +0.000 A 
ATOM      5  C   UNL     1      43.639   3.173  11.069  0.00  0.00    +0.000 A 
ATOM      6  C   UNL     1      43.324   2.950  12.410  0.00  0.00    +0.000 A 
ATOM      7  C   UNL     1      43.886   3.728  13.415  0.00  0.00    +0.000 A 
ATOM      8  C   UNL     1      44.780   4.753  13.098  0.00  0.00    +0.000 A 
ATOM      9  C   UNL     1      45.127   4.994  11.750  0.00  0.00    +0.000 A 
ENDROOT
BRANCH   1  10
ATOM     10  C   UNL     1      46.876   6.947  11.776  0.00  0.00    +0.000 C 
BRANCH  10  11
ATOM     11  C   UNL     1      46.067   7.909  12.651  0.00  0.00    +0.000 C 
BRANCH  11  12
ATOM     12  C   UNL     1      45.076   8.733  11.820  0.00  0.00    +0.000 C 
BRANCH  12  14
ATOM     13  C   UNL     1      46.688  10.517  11.924  0.00  0.00    +0.000 C 
ATOM     14  N   UNL     1      45.260  10.190  11.961  0.00  0.00    +0.000 NA
ATOM     15  C   UNL     1      44.558  10.948  10.923  0.00  0.00    +0.000 C 
ENDBRANCH  12  14
ENDBRANCH  11  12
ENDBRANCH  10  11
ENDBRANCH   1  10
BRANCH   3  16
ATOM     16  C   UNL     1      44.771   4.056   8.240  0.00  0.00    +0.000 C 
BRANCH  16  17
ATOM     17  C   UNL     1      45.786   3.019   7.853  0.00  0.00    +0.000 A 
ATOM     18  C   UNL     1      46.809   3.291   6.940  0.00  0.00    +0.000 A 
ATOM     19  C   UNL     1      47.689   2.280   6.563  0.00  0.00    +0.000 A 
ATOM     20  C   UNL     1      47.522   1.024   7.122  0.00  0.00    +0.000 A 
ATOM     21  N   UNL     1      46.562   0.726   8.021  0.00  0.00    +0.000 NA
ATOM     22  C   UNL     1      45.713   1.723   8.357  0.00  0.00    +0.000 A 
ENDBRANCH  16  17
ENDBRANCH   3  16
TORSDOF 6
ENDMDL
MODEL 3
REMARK VINA RESULT:    -6.564      1.843      3.206
REMARK INTER + INTRA:          -9.678
REMARK INTER:                  -8.907
REMARK INTRA:                  -0.770
REMARK UNBOUND:                -0.811
REMARK  Name = 
REMARK  8 active torsions:
REMARK  status: ('A' for Active; 'I' for Inactive)
REMARK    1  A    between atoms: C_1  and  N_2
REMARK    2  A    between atoms: N_2  and  C_3
REMARK    3  A    between atoms: N_2  and  C_4
REMARK    4  A    between atoms: C_4  and  C_5
REMARK    5  A    between atoms: C_5  and  C_6
REMARK    6  A    between atoms: C_6  and  C_7
REMARK    7  A    between atoms: N_9  and  C_10
REMARK    8  A    between atoms: C_10  and  C_11
REMARK                            x       y       z     vdW  Elec       q    Type
REMARK                         _______ _______ _______ _____ _____    ______ ____
ROOT
ATOM      1  C   UNL     1      46.298   5.634  13.242  0.00  0.00    +0.000 A 
ATOM      2  C   UNL     1      45.678   4.673  12.468  0.00  0.00    +0.000 A 
ATOM      3  N   UNL     1      44.839   5.301  11.582  0.00  0.00    +0.000 N 
ATOM      4  C   UNL     1      44.939   6.672  11.723  0.00  0.00    +0.000 A 
ATOM      5  C   UNL     1      44.305   7.727  11.045  0.00  0.00    +0.000 A 
ATOM      6  C   UNL     1      44.588   9.036  11.440  0.00  0.00    +0.000 A 
ATOM      7  C   UNL     1      45.485   9.293  12.470  0.00  0.00    +0.000 A 
ATOM      8  C   UNL     1      46.122   8.241  13.130  0.00  0.00    +0.000 A 
ATOM      9  C   UNL     1      45.846   6.906  12.760  0.00  0.00    +0.000 A 
ENDROOT
BRANCH   1  10
ATOM     10  C   UNL     1      47.245   5.387  14.376  0.00  0.00    +0.000 C 
BRANCH  10  11
ATOM     11  C   UNL     1      47.104   3.974  14.951  0.00  0.00    +0.000 C 
BRANCH  11  12
ATOM     12  C   UNL     1      47.496   3.924  16.432  0.00  0.00    +0.000 C 
BRANCH  12  14
ATOM     13  C   UNL     1      49.338   5.104  17.434  0.00  0.00    +0.000 C 
ATOM     14  N   UNL     1      48.954   3.924  16.655  0.00  0.00    +0.000 NA
ATOM     15  C   UNL     1      49.419   2.714  17.337  0.00  0.00    +0.000 C 
ENDBRANCH  12  14
ENDBRANCH  11  12
ENDBRANCH  10  11
ENDBRANCH   1  10
BRANCH   3  16
ATOM     16  C   UNL     1      43.979   4.599  10.634  0.00  0.00    +0.000 C 
BRANCH  16  17
ATOM     17  C   UNL     1      44.790   3.850   9.616  0.00  0.00    +0.000 A 
ATOM     18  C   UNL     1      45.515   4.509   8.618  0.00  0.00    +0.000 A 
ATOM     19  C   UNL     1      46.201   3.771   7.658  0.00  0.00    +0.000 A 
ATOM     20  C   UNL     1      46.148   2.389   7.732  0.00  0.00    +0.000 A 
ATOM     21  N   UNL     1      45.479   1.716   8.689  0.00  0.00    +0.000 NA
ATOM     22  C   UNL     1      44.810   2.458   9.600  0.00  0.00    +0.000 A 
ENDBRANCH  16  17
ENDBRANCH   3  16
TORSDOF 6
ENDMDL
MODEL 4
REMARK VINA RESULT:    -6.490      2.596      4.053
REMARK INTER + INTRA:          -9.578
REMARK INTER:                  -8.660
REMARK INTRA:                  -0.919
REMARK UNBOUND:                -0.811
REMARK  Name = 
REMARK  8 active torsions:
REMARK  status: ('A' for Active; 'I' for Inactive)
REMARK    1  A    between atoms: C_1  and  N_2
REMARK    2  A    between atoms: N_2  and  C_3
REMARK    3  A    between atoms: N_2  and  C_4
REMARK    4  A    between atoms: C_4  and  C_5
REMARK    5  A    between atoms: C_5  and  C_6
REMARK    6  A    between atoms: C_6  and  C_7
REMARK    7  A    between atoms: N_9  and  C_10
REMARK    8  A    between atoms: C_10  and  C_11
REMARK                            x       y       z     vdW  Elec       q    Type
REMARK                         _______ _______ _______ _____ _____    ______ ____
ROOT
ATOM      1  C   UNL     1      45.662   7.088  11.684  0.00  0.00    +0.000 A 
ATOM      2  C   UNL     1      44.839   6.524  10.730  0.00  0.00    +0.000 A 
ATOM      3  N   UNL     1      44.815   5.165  10.922  0.00  0.00    +0.000 N 
ATOM      4  C   UNL     1      45.569   4.829  12.032  0.00  0.00    +0.000 A 
ATOM      5  C   UNL     1      45.834   3.589  12.636  0.00  0.00    +0.000 A 
ATOM      6  C   UNL     1      46.677   3.559  13.749  0.00  0.00    +0.000 A 
ATOM      7  C   UNL     1      47.231   4.728  14.256  0.00  0.00    +0.000 A 
ATOM      8  C   UNL     1      46.953   5.959  13.659  0.00  0.00    +0.000 A 
ATOM      9  C   UNL     1      46.113   6.018  12.525  0.00  0.00    +0.000 A 
ENDROOT
BRANCH   1  10
ATOM     10  C   UNL     1      46.023   8.537  11.802  0.00  0.00    +0.000 C 
BRANCH  10  11
ATOM     11  C   UNL     1      44.938   9.348  12.517  0.00  0.00    +0.000 C 
BRANCH  11  12
ATOM     12  C   UNL     1      44.392  10.471  11.627  0.00  0.00    +0.000 C 
BRANCH  12  14
ATOM     13  C   UNL     1      42.205   9.992  10.745  0.00  0.00    +0.000 C 
ATOM     14  N   UNL     1      43.642   9.981  10.456  0.00  0.00    +0.000 NA
ATOM     15  C   UNL     1      43.904  10.769   9.250  0.00  0.00    +0.000 C 
ENDBRANCH  12  14
ENDBRANCH  11  12
ENDBRANCH  10  11
ENDBRANCH   1  10
BRANCH   3  16
ATOM     16  C   UNL     1      44.087   4.233  10.069  0.00  0.00    +0.000 C 
BRANCH  16  17
ATOM     17  C   UNL     1      45.019   3.486   9.159  0.00  0.00    +0.000 A 
ATOM     18  C   UNL     1      45.726   4.128   8.137  0.00  0.00    +0.000 A 
ATOM     19  C   UNL     1      46.530   3.385   7.278  0.00  0.00    +0.000 A 
ATOM     20  C   UNL     1      46.610   2.017   7.474  0.00  0.00    +0.000 A 
ATOM     21  N   UNL     1      45.962   1.362   8.459  0.00  0.00    +0.000 NA
ATOM     22  C   UNL     1      45.176   2.107   9.269  0.00  0.00    +0.000 A 
ENDBRANCH  16  17
ENDBRANCH   3  16
TORSDOF 6
ENDMDL
MODEL 5
REMARK VINA RESULT:    -6.429      1.766      2.538
REMARK INTER + INTRA:          -9.496
REMARK INTER:                  -8.542
REMARK INTRA:                  -0.954
REMARK UNBOUND:                -0.811
REMARK  Name = 
REMARK  8 active torsions:
REMARK  status: ('A' for Active; 'I' for Inactive)
REMARK    1  A    between atoms: C_1  and  N_2
REMARK    2  A    between atoms: N_2  and  C_3
REMARK    3  A    between atoms: N_2  and  C_4
REMARK    4  A    between atoms: C_4  and  C_5
REMARK    5  A    between atoms: C_5  and  C_6
REMARK    6  A    between atoms: C_6  and  C_7
REMARK    7  A    between atoms: N_9  and  C_10
REMARK    8  A    between atoms: C_10  and  C_11
REMARK                            x       y       z     vdW  Elec       q    Type
REMARK                         _______ _______ _______ _____ _____    ______ ____
ROOT
ATOM      1  C   UNL     1      45.360   7.057  12.291  0.00  0.00    +0.000 A 
ATOM      2  C   UNL     1      44.523   6.627  11.281  0.00  0.00    +0.000 A 
ATOM      3  N   UNL     1      44.575   5.257  11.224  0.00  0.00    +0.000 N 
ATOM      4  C   UNL     1      45.395   4.771  12.225  0.00  0.00    +0.000 A 
ATOM      5  C   UNL     1      45.750   3.459  12.584  0.00  0.00    +0.000 A 
ATOM      6  C   UNL     1      46.644   3.278  13.641  0.00  0.00    +0.000 A 
ATOM      7  C   UNL     1      47.163   4.367  14.332  0.00  0.00    +0.000 A 
ATOM      8  C   UNL     1      46.795   5.667  13.979  0.00  0.00    +0.000 A 
ATOM      9  C   UNL     1      45.902   5.881  12.906  0.00  0.00    +0.000 A 
ENDROOT
BRANCH   1  10
ATOM     10  C   UNL     1      45.653   8.480  12.658  0.00  0.00    +0.000 C 
BRANCH  10  11
ATOM     11  C   UNL     1      47.018   8.942  12.138  0.00  0.00    +0.000 C 
BRANCH  11  12
ATOM     12  C   UNL     1      48.019   9.149  13.281  0.00  0.00    +0.000 C 
BRANCH  12  14
ATOM     13  C   UNL     1      49.777   7.805  14.226  0.00  0.00    +0.000 C 
ATOM     14  N   UNL     1      49.333   8.527  13.030  0.00  0.00    +0.000 NA
ATOM     15  C   UNL     1      49.314   7.614  11.886  0.00  0.00    +0.000 C 
ENDBRANCH  12  14
ENDBRANCH  11  12
ENDBRANCH  10  11
ENDBRANCH   1  10
BRANCH   3  16
ATOM     16  C   UNL     1      43.855   4.453  10.242  0.00  0.00    +0.000 C 
BRANCH  16  17
ATOM     17  C   UNL     1      44.804   3.728   9.331  0.00  0.00    +0.000 A 
ATOM     18  C   UNL     1      45.595   4.407   8.398  0.00  0.00    +0.000 A 
ATOM     19  C   UNL     1      46.413   3.689   7.530  0.00  0.00    +0.000 A 
ATOM     20  C   UNL     1      46.423   2.308   7.631  0.00  0.00    +0.000 A 
ATOM     21  N   UNL     1      45.692   1.617   8.529  0.00  0.00    +0.000 NA
ATOM     22  C   UNL     1      44.895   2.339   9.349  0.00  0.00    +0.000 A 
ENDBRANCH  16  17
ENDBRANCH   3  16
TORSDOF 6
ENDMDL
MODEL 6
REMARK VINA RESULT:    -6.311      1.887      4.125
REMARK INTER + INTRA:          -9.337
REMARK INTER:                  -8.514
REMARK INTRA:                  -0.823
REMARK UNBOUND:                -0.811
REMARK  Name = 
REMARK  8 active torsions:
REMARK  status: ('A' for Active; 'I' for Inactive)
REMARK    1  A    between atoms: C_1  and  N_2
REMARK    2  A    between atoms: N_2  and  C_3
REMARK    3  A    between atoms: N_2  and  C_4
REMARK    4  A    between atoms: C_4  and  C_5
REMARK    5  A    between atoms: C_5  and  C_6
REMARK    6  A    between atoms: C_6  and  C_7
REMARK    7  A    between atoms: N_9  and  C_10
REMARK    8  A    between atoms: C_10  and  C_11
REMARK                            x       y       z     vdW  Elec       q    Type
REMARK                         _______ _______ _______ _____ _____    ______ ____
ROOT
ATOM      1  C   UNL     1      46.905   4.506  14.008  0.00  0.00    +0.000 A 
ATOM      2  C   UNL     1      45.818   4.260  13.193  0.00  0.00    +0.000 A 
ATOM      3  N   UNL     1      45.659   5.326  12.343  0.00  0.00    +0.000 N 
ATOM      4  C   UNL     1      46.667   6.251  12.548  0.00  0.00    +0.000 A 
ATOM      5  C   UNL     1      46.944   7.479  11.924  0.00  0.00    +0.000 A 
ATOM      6  C   UNL     1      48.035   8.223  12.378  0.00  0.00    +0.000 A 
ATOM      7  C   UNL     1      48.836   7.756  13.414  0.00  0.00    +0.000 A 
ATOM      8  C   UNL     1      48.563   6.529  14.020  0.00  0.00    +0.000 A 
ATOM      9  C   UNL     1      47.458   5.760  13.589  0.00  0.00    +0.000 A 
ENDROOT
BRANCH   1  10
ATOM     10  C   UNL     1      47.395   3.634  15.123  0.00  0.00    +0.000 C 
BRANCH  10  11
ATOM     11  C   UNL     1      47.149   4.261  16.499  0.00  0.00    +0.000 C 
BRANCH  11  12
ATOM     12  C   UNL     1      48.176   3.780  17.531  0.00  0.00    +0.000 C 
BRANCH  12  14
ATOM     13  C   UNL     1      50.346   4.817  17.447  0.00  0.00    +0.000 C 
ATOM     14  N   UNL     1      49.545   3.676  16.993  0.00  0.00    +0.000 NA
ATOM     15  C   UNL     1      50.208   2.428  17.380  0.00  0.00    +0.000 C 
ENDBRANCH  12  14
ENDBRANCH  11  12
ENDBRANCH  10  11
ENDBRANCH   1  10
BRANCH   3  16
ATOM     16  C   UNL     1      44.579   5.440  11.369  0.00  0.00    +0.000 C 
BRANCH  16  17
ATOM     17  C   UNL     1      44.907   4.701  10.104  0.00  0.00    +0.000 A 
ATOM     18  C   UNL     1      44.390   3.429   9.836  0.00  0.00    +0.000 A 
ATOM     19  C   UNL     1      44.773   2.756   8.679  0.00  0.00    +0.000 A 
ATOM     20  C   UNL     1      45.657   3.382   7.818  0.00  0.00    +0.000 A 
ATOM     21  N   UNL     1      46.162   4.615   8.028  0.00  0.00    +0.000 NA
ATOM     22  C   UNL     1      45.785   5.240   9.167  0.00  0.00    +0.000 A 
ENDBRANCH  16  17
ENDBRANCH   3  16
TORSDOF 6
ENDMDL
MODEL 7
REMARK VINA RESULT:    -6.223      1.477      2.036
REMARK INTER + INTRA:          -9.218
REMARK INTER:                  -8.469
REMARK INTRA:                  -0.749
REMARK UNBOUND:                -0.811
REMARK  Name = 
REMARK  8 active torsions:
REMARK  status: ('A' for Active; 'I' for Inactive)
REMARK    1  A    between atoms: C_1  and  N_2
REMARK    2  A    between atoms: N_2  and  C_3
REMARK    3  A    between atoms: N_2  and  C_4
REMARK    4  A    between atoms: C_4  and  C_5
REMARK    5  A    between atoms: C_5  and  C_6
REMARK    6  A    between atoms: C_6  and  C_7
REMARK    7  A    between atoms: N_9  and  C_10
REMARK    8  A    between atoms: C_10  and  C_11
REMARK                            x       y       z     vdW  Elec       q    Type
REMARK                         _______ _______ _______ _____ _____    ______ ____
ROOT
ATOM      1  C   UNL     1      46.020   5.915  11.017  0.00  0.00    +0.000 A 
ATOM      2  C   UNL     1      45.877   5.672   9.666  0.00  0.00    +0.000 A 
ATOM      3  N   UNL     1      44.999   4.629   9.500  0.00  0.00    +0.000 N 
ATOM      4  C   UNL     1      44.516   4.217  10.728  0.00  0.00    +0.000 A 
ATOM      5  C   UNL     1      43.596   3.212  11.076  0.00  0.00    +0.000 A 
ATOM      6  C   UNL     1      43.326   3.000  12.430  0.00  0.00    +0.000 A 
ATOM      7  C   UNL     1      43.940   3.772  13.410  0.00  0.00    +0.000 A 
ATOM      8  C   UNL     1      44.841   4.777  13.056  0.00  0.00    +0.000 A 
ATOM      9  C   UNL     1      45.144   5.006  11.695  0.00  0.00    +0.000 A 
ENDROOT
BRANCH   1  10
ATOM     10  C   UNL     1      46.931   6.924  11.647  0.00  0.00    +0.000 C 
BRANCH  10  11
ATOM     11  C   UNL     1      46.170   7.922  12.525  0.00  0.00    +0.000 C 
BRANCH  11  12
ATOM     12  C   UNL     1      47.115   8.941  13.174  0.00  0.00    +0.000 C 
BRANCH  12  14
ATOM     13  C   UNL     1      49.220   9.705  12.294  0.00  0.00    +0.000 C 
ATOM     14  N   UNL     1      48.542   8.613  12.998  0.00  0.00    +0.000 NA
ATOM     15  C   UNL     1      49.221   8.355  14.270  0.00  0.00    +0.000 C 
ENDBRANCH  12  14
ENDBRANCH  11  12
ENDBRANCH  10  11
ENDBRANCH   1  10
BRANCH   3  16
ATOM     16  C   UNL     1      44.641   4.062   8.205  0.00  0.00    +0.000 C 
BRANCH  16  17
ATOM     17  C   UNL     1      45.689   3.098   7.725  0.00  0.00    +0.000 A 
ATOM     18  C   UNL     1      45.787   1.799   8.236  0.00  0.00    +0.000 A 
ATOM     19  C   UNL     1      46.813   0.962   7.808  0.00  0.00    +0.000 A 
ATOM     20  C   UNL     1      47.708   1.449   6.870  0.00  0.00    +0.000 A 
ATOM     21  N   UNL     1      47.636   2.686   6.337  0.00  0.00    +0.000 NA
ATOM     22  C   UNL     1      46.638   3.482   6.783  0.00  0.00    +0.000 A 
ENDBRANCH  16  17
ENDBRANCH   3  16
TORSDOF 6
ENDMDL
MODEL 8
REMARK VINA RESULT:    -5.677      2.895      7.790
REMARK INTER + INTRA:          -8.480
REMARK INTER:                  -7.795
REMARK INTRA:                  -0.686
REMARK UNBOUND:                -0.811
REMARK  Name = 
REMARK  8 active torsions:
REMARK  status: ('A' for Active; 'I' for Inactive)
REMARK    1  A    between atoms: C_1  and  N_2
REMARK    2  A    between atoms: N_2  and  C_3
REMARK    3  A    between atoms: N_2  and  C_4
REMARK    4  A    between atoms: C_4  and  C_5
REMARK    5  A    between atoms: C_5  and  C_6
REMARK    6  A    between atoms: C_6  and  C_7
REMARK    7  A    between atoms: N_9  and  C_10
REMARK    8  A    between atoms: C_10  and  C_11
REMARK                            x       y       z     vdW  Elec       q    Type
REMARK                         _______ _______ _______ _____ _____    ______ ____
ROOT
ATOM      1  C   UNL     1      46.876   4.793  13.961  0.00  0.00    +0.000 A 
ATOM      2  C   UNL     1      46.945   4.342  15.264  0.00  0.00    +0.000 A 
ATOM      3  N   UNL     1      47.908   5.063  15.925  0.00  0.00    +0.000 N 
ATOM      4  C   UNL     1      48.437   6.027  15.088  0.00  0.00    +0.000 A 
ATOM      5  C   UNL     1      49.422   7.006  15.302  0.00  0.00    +0.000 A 
ATOM      6  C   UNL     1      49.781   7.833  14.235  0.00  0.00    +0.000 A 
ATOM      7  C   UNL     1      49.170   7.700  12.993  0.00  0.00    +0.000 A 
ATOM      8  C   UNL     1      48.183   6.734  12.791  0.00  0.00    +0.000 A 
ATOM      9  C   UNL     1      47.809   5.875  13.850  0.00  0.00    +0.000 A 
ENDROOT
BRANCH   1  10
ATOM     10  C   UNL     1      46.004   4.242  12.874  0.00  0.00    +0.000 C 
BRANCH  10  11
ATOM     11  C   UNL     1      44.514   4.423  13.179  0.00  0.00    +0.000 C 
BRANCH  11  12
ATOM     12  C   UNL     1      43.646   3.481  12.337  0.00  0.00    +0.000 C 
BRANCH  12  14
ATOM     13  C   UNL     1      42.417   5.453  11.712  0.00  0.00    +0.000 C 
ATOM     14  N   UNL     1      42.929   4.163  11.243  0.00  0.00    +0.000 NA
ATOM     15  C   UNL     1      43.771   4.370  10.063  0.00  0.00    +0.000 C 
ENDBRANCH  12  14
ENDBRANCH  11  12
ENDBRANCH  10  11
ENDBRANCH   1  10
BRANCH   3  16
ATOM     16  C   UNL     1      48.293   4.829  17.313  0.00  0.00    +0.000 C 
BRANCH  16  17
ATOM     17  C   UNL     1      49.448   3.873  17.403  0.00  0.00    +0.000 A 
ATOM     18  C   UNL     1      50.721   4.289  17.807  0.00  0.00    +0.000 A 
ATOM     19  C   UNL     1      51.776   3.381  17.814  0.00  0.00    +0.000 A 
ATOM     20  C   UNL     1      51.522   2.077  17.425  0.00  0.00    +0.000 A 
ATOM     21  N   UNL     1      50.306   1.631  17.049  0.00  0.00    +0.000 NA
ATOM     22  C   UNL     1      49.303   2.538  17.037  0.00  0.00    +0.000 A 
ENDBRANCH  16  17
ENDBRANCH   3  16
TORSDOF 6
ENDMDL
MODEL 9
REMARK VINA RESULT:    -5.663      2.418      3.792
REMARK INTER + INTRA:          -8.461
REMARK INTER:                  -7.560
REMARK INTRA:                  -0.900
REMARK UNBOUND:                -0.811
REMARK  Name = 
REMARK  8 active torsions:
REMARK  status: ('A' for Active; 'I' for Inactive)
REMARK    1  A    between atoms: C_1  and  N_2
REMARK    2  A    between atoms: N_2  and  C_3
REMARK    3  A    between atoms: N_2  and  C_4
REMARK    4  A    between atoms: C_4  and  C_5
REMARK    5  A    between atoms: C_5  and  C_6
REMARK    6  A    between atoms: C_6  and  C_7
REMARK    7  A    between atoms: N_9  and  C_10
REMARK    8  A    between atoms: C_10  and  C_11
REMARK                            x       y       z     vdW  Elec       q    Type
REMARK                         _______ _______ _______ _____ _____    ______ ____
ROOT
ATOM      1  C   UNL     1      46.679   6.629  12.824  0.00  0.00    +0.000 A 
ATOM      2  C   UNL     1      46.028   5.531  12.297  0.00  0.00    +0.000 A 
ATOM      3  N   UNL     1      44.940   5.970  11.583  0.00  0.00    +0.000 N 
ATOM      4  C   UNL     1      44.898   7.351  11.583  0.00  0.00    +0.000 A 
ATOM      5  C   UNL     1      44.003   8.255  10.986  0.00  0.00    +0.000 A 
ATOM      6  C   UNL     1      44.201   9.622  11.195  0.00  0.00    +0.000 A 
ATOM      7  C   UNL     1      45.265  10.080  11.963  0.00  0.00    +0.000 A 
ATOM      8  C   UNL     1      46.159   9.177  12.541  0.00  0.00    +0.000 A 
ATOM      9  C   UNL     1      45.976   7.788  12.357  0.00  0.00    +0.000 A 
ENDROOT
BRANCH   1  10
ATOM     10  C   UNL     1      47.877   6.605  13.722  0.00  0.00    +0.000 C 
BRANCH  10  11
ATOM     11  C   UNL     1      49.169   6.945  12.973  0.00  0.00    +0.000 C 
BRANCH  11  12
ATOM     12  C   UNL     1      50.052   7.909  13.775  0.00  0.00    +0.000 C 
BRANCH  12  14
ATOM     13  C   UNL     1      51.812   9.347  12.983  0.00  0.00    +0.000 C 
ATOM     14  N   UNL     1      50.360   9.160  13.056  0.00  0.00    +0.000 NA
ATOM     15  C   UNL     1      49.795   9.186  11.705  0.00  0.00    +0.000 C 
ENDBRANCH  12  14
ENDBRANCH  11  12
ENDBRANCH  10  11
ENDBRANCH   1  10
BRANCH   3  16
ATOM     16  C   UNL     1      43.986   5.084  10.923  0.00  0.00    +0.000 C 
BRANCH  16  17
ATOM     17  C   UNL     1      44.671   4.192   9.928  0.00  0.00    +0.000 A 
ATOM     18  C   UNL     1      45.453   4.707   8.889  0.00  0.00    +0.000 A 
ATOM     19  C   UNL     1      46.016   3.844   7.953  0.00  0.00    +0.000 A 
ATOM     20  C   UNL     1      45.786   2.485   8.092  0.00  0.00    +0.000 A 
ATOM     21  N   UNL     1      45.057   1.947   9.090  0.00  0.00    +0.000 NA
ATOM     22  C   UNL     1      44.509   2.810   9.976  0.00  0.00    +0.000 A 
ENDBRANCH  16  17
ENDBRANCH   3  16
TORSDOF 6
ENDMDL
