MODEL 1
REMARK VINA RESULT:    -7.470      0.000      0.000
REMARK INTER + INTRA:         -10.706
REMARK INTER:                 -10.090
REMARK INTRA:                  -0.616
REMARK UNBOUND:                -0.616
REMARK  Name = 
REMARK  9 active torsions:
REMARK  status: ('A' for Active; 'I' for Inactive)
REMARK    1  A    between atoms: C_1  and  C_2
REMARK    2  A    between atoms: C_2  and  C_3
REMARK    3  A    between atoms: C_2  and  O_4
REMARK    4  A    between atoms: C_2  and  C_5
REMARK    5  A    between atoms: N_12  and  C_13
REMARK    6  A    between atoms: C_13  and  C_14
REMARK    7  A    between atoms: C_17  and  C_18
REMARK    8  A    between atoms: C_18  and  C_19
REMARK    9  A    between atoms: C_19  and  N_20
REMARK                            x       y       z     vdW  Elec       q    Type
REMARK                         _______ _______ _______ _____ _____    ______ ____
ROOT
ATOM      1  C   UNL     1      47.297   6.602  13.540  0.00  0.00    +0.000 A 
ATOM      2  C   UNL     1      46.958   5.260  13.356  0.00  0.00    +0.000 A 
ATOM      3  N   UNL     1      45.887   4.770  12.663  0.00  0.00    +0.000 NA
ATOM      4  C   UNL     1      45.113   5.736  12.135  0.00  0.00    +0.000 A 
ATOM      5  C   UNL     1      45.312   7.111  12.240  0.00  0.00    +0.000 A 
ATOM      6  C   UNL     1      44.270   7.741  11.516  0.00  0.00    +0.000 A 
ATOM      7  C   UNL     1      43.462   6.752  11.002  0.00  0.00    +0.000 A 
ATOM      8  N   UNL     1      43.967   5.539  11.407  0.00  0.00    +0.000 N 
ATOM      9  C   UNL     1      46.439   7.554  12.964  0.00  0.00    +0.000 A 
ENDROOT
BRANCH   1  11
ATOM     10  C   UNL     1      48.628   6.249  15.654  0.00  0.00    +0.000 C 
ATOM     11  C   UNL     1      48.535   7.010  14.325  0.00  0.00    +0.000 C 
ATOM     12  C   UNL     1      48.564   8.526  14.570  0.00  0.00    +0.000 C 
BRANCH  11  13
ATOM     13  O   UNL     1      49.713   6.688  13.575  0.00  0.00    +0.000 OA
ATOM     14  H   UNL     1      50.418   7.300  13.847  0.00  0.00    +0.000 HD
ENDBRANCH  11  13
ENDBRANCH   1  11
BRANCH   8  15
ATOM     15  C   UNL     1      43.415   4.251  11.017  0.00  0.00    +0.000 C 
BRANCH  15  16
ATOM     16  C   UNL     1      44.192   3.563   9.931  0.00  0.00    +0.000 A 
ATOM     17  C   UNL     1      44.872   4.286   8.946  0.00  0.00    +0.000 A 
ATOM     18  C   UNL     1      45.760   3.630   8.096  0.00  0.00    +0.000 A 
ATOM     19  C   UNL     1      45.904   2.251   8.206  0.00  0.00    +0.000 A 
ATOM     20  N   UNL     1      45.201   1.523   9.103  0.00  0.00    +0.000 NA
ATOM     21  C   UNL     1      44.372   2.186   9.943  0.00  0.00    +0.000 A 
BRANCH  19  22
ATOM     22  C   UNL     1      46.910   1.517   7.357  0.00  0.00    +0.000 C 
BRANCH  22  23
ATOM     23  C   UNL     1      47.923   2.476   6.733  0.00  0.00    +0.000 C 
BRANCH  23  24
ATOM     24  N   UNL     1      48.526   1.900   5.527  0.00  0.00    +0.000 NA
ATOM     25  H   UNL     1      49.532   2.057   5.536  0.00  0.00    +0.000 HD
ATOM     26  H   UNL     1      48.164   2.393   4.712  0.00  0.00    +0.000 HD
ENDBRANCH  23  24
ENDBRANCH  22  23
ENDBRANCH  19  22
ENDBRANCH  15  16
ENDBRANCH   8  15
TORSDOF 7
ENDMDL
MODEL 2
REMARK VINA RESULT:    -7.346      2.391      7.106
REMARK INTER + INTRA:         -10.538
REMARK INTER:                  -9.677
REMARK INTRA:                  -0.861
REMARK UNBOUND:                -0.616
REMARK  Name = 
REMARK  9 active torsions:
REMARK  status: ('A' for Active; 'I' for Inactive)
REMARK    1  A    between atoms: C_1  and  C_2
REMARK    2  A    between atoms: C_2  and  C_3
REMARK    3  A    between atoms: C_2  and  O_4
REMARK    4  A    between atoms: C_2  and  C_5
REMARK    5  A    between atoms: N_12  and  C_13
REMARK    6  A    between atoms: C_13  and  C_14
REMARK    7  A    between atoms: C_17  and  C_18
REMARK    8  A    between atoms: C_18  and  C_19
REMARK    9  A    between atoms: C_19  and  N_20
REMARK                            x       y       z     vdW  Elec       q    Type
REMARK                         _______ _______ _______ _____ _____    ______ ____
ROOT
ATOM      1  C   UNL     1      46.298   3.071   7.795  0.00  0.00    +0.000 A 
ATOM      2  C   UNL     1      46.309   4.448   8.024  0.00  0.00    +0.000 A 
ATOM      3  N   UNL     1      45.613   5.129   8.983  0.00  0.00    +0.000 NA
ATOM      4  C   UNL     1      44.849   4.328   9.748  0.00  0.00    +0.000 A 
ATOM      5  C   UNL     1      44.723   2.945   9.638  0.00  0.00    +0.000 A 
ATOM      6  C   UNL     1      43.835   2.522  10.657  0.00  0.00    +0.000 A 
ATOM      7  C   UNL     1      43.434   3.641  11.351  0.00  0.00    +0.000 A 
ATOM      8  N   UNL     1      44.033   4.736  10.773  0.00  0.00    +0.000 N 
ATOM      9  C   UNL     1      45.472   2.300   8.631  0.00  0.00    +0.000 A 
ENDROOT
BRANCH   1  11
ATOM     10  C   UNL     1      46.582   2.772   5.307  0.00  0.00    +0.000 C 
ATOM     11  C   UNL     1      47.140   2.440   6.697  0.00  0.00    +0.000 C 
ATOM     12  C   UNL     1      47.248   0.919   6.883  0.00  0.00    +0.000 C 
BRANCH  11  13
ATOM     13  O   UNL     1      48.474   2.960   6.747  0.00  0.00    +0.000 OA
ATOM     14  H   UNL     1      49.005   2.369   7.307  0.00  0.00    +0.000 HD
ENDBRANCH  11  13
ENDBRANCH   1  11
BRANCH   8  15
ATOM     15  C   UNL     1      43.894   6.098  11.263  0.00  0.00    +0.000 C 
BRANCH  15  16
ATOM     16  C   UNL     1      45.066   6.571  12.077  0.00  0.00    +0.000 A 
ATOM     17  C   UNL     1      45.794   5.697  12.889  0.00  0.00    +0.000 A 
ATOM     18  C   UNL     1      47.000   6.116  13.449  0.00  0.00    +0.000 A 
ATOM     19  C   UNL     1      47.424   7.423  13.235  0.00  0.00    +0.000 A 
ATOM     20  N   UNL     1      46.699   8.307  12.513  0.00  0.00    +0.000 NA
ATOM     21  C   UNL     1      45.550   7.867  11.949  0.00  0.00    +0.000 A 
BRANCH  19  22
ATOM     22  C   UNL     1      48.759   7.889  13.758  0.00  0.00    +0.000 C 
BRANCH  22  23
ATOM     23  C   UNL     1      48.640   8.451  15.174  0.00  0.00    +0.000 C 
BRANCH  23  24
ATOM     24  N   UNL     1      47.382   9.183  15.351  0.00  0.00    +0.000 NA
ATOM     25  H   UNL     1      46.610   8.639  14.972  0.00  0.00    +0.000 HD
ATOM     26  H   UNL     1      47.424  10.044  14.806  0.00  0.00    +0.000 HD
ENDBRANCH  23  24
ENDBRANCH  22  23
ENDBRANCH  19  22
ENDBRANCH  15  16
ENDBRANCH   8  15
TORSDOF 7
ENDMDL
MODEL 3
REMARK VINA RESULT:    -7.108      1.811      2.423
REMARK INTER + INTRA:         -10.217
REMARK INTER:                  -9.620
REMARK INTRA:                  -0.598
REMARK UNBOUND:                -0.616
REMARK  Name = 
REMARK  9 active torsions:
REMARK  status: ('A' for Active; 'I' for Inactive)
REMARK    1  A    between atoms: C_1  and  C_2
REMARK    2  A    between atoms: C_2  and  C_3
REMARK    3  A    between atoms: C_2  and  O_4
REMARK    4  A    between atoms: C_2  and  C_5
REMARK    5  A    between atoms: N_12  and  C_13
REMARK    6  A    between atoms: C_13  and  C_14
REMARK    7  A    between atoms: C_17  and  C_18
REMARK    8  A    between atoms: C_18  and  C_19
REMARK    9  A    between atoms: C_19  and  N_20
REMARK                            x       y       z     vdW  Elec       q    Type
REMARK                         _______ _______ _______ _____ _____    ______ ____
ROOT
ATOM      1  C   UNL     1      47.175   4.711  15.196  0.00  0.00    +0.000 A 
ATOM      2  C   UNL     1      46.050   4.045  14.708  0.00  0.00    +0.000 A 
ATOM      3  N   UNL     1      45.435   4.240  13.504  0.00  0.00    +0.000 NA
ATOM      4  C   UNL     1      46.022   5.197  12.761  0.00  0.00    +0.000 A 
ATOM      5  C   UNL     1      47.138   5.954  13.112  0.00  0.00    +0.000 A 
ATOM      6  C   UNL     1      47.416   6.819  12.025  0.00  0.00    +0.000 A 
ATOM      7  C   UNL     1      46.471   6.582  11.052  0.00  0.00    +0.000 A 
ATOM      8  N   UNL     1      45.612   5.616  11.521  0.00  0.00    +0.000 N 
ATOM      9  C   UNL     1      47.731   5.701  14.367  0.00  0.00    +0.000 A 
ENDROOT
BRANCH   1  11
ATOM     10  C   UNL     1      48.927   5.327  16.904  0.00  0.00    +0.000 C 
ATOM     11  C   UNL     1      47.770   4.380  16.557  0.00  0.00    +0.000 C 
ATOM     12  C   UNL     1      48.236   2.918  16.619  0.00  0.00    +0.000 C 
BRANCH  11  13
ATOM     13  O   UNL     1      46.775   4.543  17.575  0.00  0.00    +0.000 OA
ATOM     14  H   UNL     1      47.192   4.987  18.332  0.00  0.00    +0.000 HD
ENDBRANCH  11  13
ENDBRANCH   1  11
BRANCH   8  15
ATOM     15  C   UNL     1      44.509   5.059  10.754  0.00  0.00    +0.000 C 
BRANCH  15  16
ATOM     16  C   UNL     1      44.937   4.064   9.712  0.00  0.00    +0.000 A 
ATOM     17  C   UNL     1      45.480   4.471   8.490  0.00  0.00    +0.000 A 
ATOM     18  C   UNL     1      46.069   3.530   7.648  0.00  0.00    +0.000 A 
ATOM     19  C   UNL     1      46.050   2.189   8.018  0.00  0.00    +0.000 A 
ATOM     20  N   UNL     1      45.467   1.765   9.162  0.00  0.00    +0.000 NA
ATOM     21  C   UNL     1      44.933   2.701   9.981  0.00  0.00    +0.000 A 
BRANCH  19  22
ATOM     22  C   UNL     1      46.746   1.152   7.172  0.00  0.00    +0.000 C 
BRANCH  22  23
ATOM     23  C   UNL     1      47.229   1.742   5.848  0.00  0.00    +0.000 C 
BRANCH  23  24
ATOM     24  N   UNL     1      48.668   2.018   5.884  0.00  0.00    +0.000 NA
ATOM     25  H   UNL     1      49.094   1.529   6.668  0.00  0.00    +0.000 HD
ATOM     26  H   UNL     1      48.807   3.014   6.054  0.00  0.00    +0.000 HD
ENDBRANCH  23  24
ENDBRANCH  22  23
ENDBRANCH  19  22
ENDBRANCH  15  16
ENDBRANCH   8  15
TORSDOF 7
ENDMDL
MODEL 4
REMARK VINA RESULT:    -6.238      4.171      7.768
REMARK INTER + INTRA:          -9.042
REMARK INTER:                  -8.558
REMARK INTRA:                  -0.484
REMARK UNBOUND:                -0.616
REMARK  Name = 
REMARK  9 active torsions:
REMARK  status: ('A' for Active; 'I' for Inactive)
REMARK    1  A    between atoms: C_1  and  C_2
REMARK    2  A    between atoms: C_2  and  C_3
REMARK    3  A    between atoms: C_2  and  O_4
REMARK    4  A    between atoms: C_2  and  C_5
REMARK    5  A    between atoms: N_12  and  C_13
REMARK    6  A    between atoms: C_13  and  C_14
REMARK    7  A    between atoms: C_17  and  C_18
REMARK    8  A    between atoms: C_18  and  C_19
REMARK    9  A    between atoms: C_19  and  N_20
REMARK                            x       y       z     vdW  Elec       q    Type
REMARK                         _______ _______ _______ _____ _____    ______ ____
ROOT
ATOM      1  C   UNL     1      45.548   5.027  11.843  0.00  0.00    +0.000 A 
ATOM      2  C   UNL     1      45.238   4.143  12.878  0.00  0.00    +0.000 A 
ATOM      3  N   UNL     1      45.827   4.079  14.109  0.00  0.00    +0.000 NA
ATOM      4  C   UNL     1      46.808   4.985  14.272  0.00  0.00    +0.000 A 
ATOM      5  C   UNL     1      47.239   5.922  13.335  0.00  0.00    +0.000 A 
ATOM      6  C   UNL     1      48.273   6.677  13.942  0.00  0.00    +0.000 A 
ATOM      7  C   UNL     1      48.456   6.185  15.215  0.00  0.00    +0.000 A 
ATOM      8  N   UNL     1      47.582   5.139  15.395  0.00  0.00    +0.000 N 
ATOM      9  C   UNL     1      46.587   5.942  12.084  0.00  0.00    +0.000 A 
ENDROOT
BRANCH   1  11
ATOM     10  C   UNL     1      44.028   3.683  10.344  0.00  0.00    +0.000 C 
ATOM     11  C   UNL     1      44.795   5.000  10.521  0.00  0.00    +0.000 C 
ATOM     12  C   UNL     1      45.743   5.233   9.336  0.00  0.00    +0.000 C 
BRANCH  11  13
ATOM     13  O   UNL     1      43.826   6.055  10.492  0.00  0.00    +0.000 OA
ATOM     14  H   UNL     1      42.976   5.689  10.788  0.00  0.00    +0.000 HD
ENDBRANCH  11  13
ENDBRANCH   1  11
BRANCH   8  15
ATOM     15  C   UNL     1      47.440   4.396  16.637  0.00  0.00    +0.000 C 
BRANCH  15  16
ATOM     16  C   UNL     1      48.699   3.703  17.076  0.00  0.00    +0.000 A 
ATOM     17  C   UNL     1      49.010   2.409  16.648  0.00  0.00    +0.000 A 
ATOM     18  C   UNL     1      50.280   1.888  16.889  0.00  0.00    +0.000 A 
ATOM     19  C   UNL     1      51.196   2.649  17.608  0.00  0.00    +0.000 A 
ATOM     20  N   UNL     1      50.891   3.874  18.093  0.00  0.00    +0.000 NA
ATOM     21  C   UNL     1      49.664   4.375  17.816  0.00  0.00    +0.000 A 
BRANCH  19  22
ATOM     22  C   UNL     1      52.603   2.153  17.821  0.00  0.00    +0.000 C 
BRANCH  22  23
ATOM     23  C   UNL     1      52.651   0.628  17.914  0.00  0.00    +0.000 C 
BRANCH  23  24
ATOM     24  N   UNL     1      53.516   0.061  16.876  0.00  0.00    +0.000 NA
ATOM     25  H   UNL     1      53.640   0.736  16.123  0.00  0.00    +0.000 HD
ATOM     26  H   UNL     1      53.048  -0.746  16.464  0.00  0.00    +0.000 HD
ENDBRANCH  23  24
ENDBRANCH  22  23
ENDBRANCH  19  22
ENDBRANCH  15  16
ENDBRANCH   8  15
TORSDOF 7
ENDMDL
MODEL 5
REMARK VINA RESULT:    -6.130      3.621      6.162
REMARK INTER + INTRA:          -8.896
REMARK INTER:                  -7.979
REMARK INTRA:                  -0.918
REMARK UNBOUND:                -0.616
REMARK  Name = 
REMARK  9 active torsions:
REMARK  status: ('A' for Active; 'I' for Inactive)
REMARK    1  A    between atoms: C_1  and  C_2
REMARK    2  A    between atoms: C_2  and  C_3
REMARK    3  A    between atoms: C_2  and  O_4
REMARK    4  A    between atoms: C_2  and  C_5
REMARK    5  A    between atoms: N_12  and  C_13
REMARK    6  A    between atoms: C_13  and  C_14
REMARK    7  A    between atoms: C_17  and  C_18
REMARK    8  A    between atoms: C_18  and  C_19
REMARK    9  A    between atoms: C_19  and  N_20
REMARK                            x       y       z     vdW  Elec       q    Type
REMARK                         _______ _______ _______ _____ _____    ______ ____
ROOT
ATOM      1  C   UNL     1      48.803   5.553  18.677  0.00  0.00    +0.000 A 
ATOM      2  C   UNL     1      48.741   4.745  17.540  0.00  0.00    +0.000 A 
ATOM      3  N   UNL     1      48.687   5.158  16.239  0.00  0.00    +0.000 NA
ATOM      4  C   UNL     1      48.689   6.497  16.110  0.00  0.00    +0.000 A 
ATOM      5  C   UNL     1      48.737   7.432  17.142  0.00  0.00    +0.000 A 
ATOM      6  C   UNL     1      48.742   8.717  16.545  0.00  0.00    +0.000 A 
ATOM      7  C   UNL     1      48.686   8.542  15.180  0.00  0.00    +0.000 A 
ATOM      8  N   UNL     1      48.625   7.191  14.927  0.00  0.00    +0.000 N 
ATOM      9  C   UNL     1      48.797   6.943  18.464  0.00  0.00    +0.000 A 
ENDROOT
BRANCH   1  11
ATOM     10  C   UNL     1      47.923   5.677  21.038  0.00  0.00    +0.000 C 
ATOM     11  C   UNL     1      48.877   4.957  20.075  0.00  0.00    +0.000 C 
ATOM     12  C   UNL     1      50.313   4.988  20.617  0.00  0.00    +0.000 C 
BRANCH  11  13
ATOM     13  O   UNL     1      48.476   3.582  20.038  0.00  0.00    +0.000 OA
ATOM     14  H   UNL     1      47.871   3.427  20.783  0.00  0.00    +0.000 HD
ENDBRANCH  11  13
ENDBRANCH   1  11
BRANCH   8  15
ATOM     15  C   UNL     1      48.609   6.607  13.596  0.00  0.00    +0.000 C 
BRANCH  15  16
ATOM     16  C   UNL     1      47.228   6.351  13.063  0.00  0.00    +0.000 A 
ATOM     17  C   UNL     1      46.596   7.253  12.202  0.00  0.00    +0.000 A 
ATOM     18  C   UNL     1      45.420   6.882  11.553  0.00  0.00    +0.000 A 
ATOM     19  C   UNL     1      44.864   5.637  11.826  0.00  0.00    +0.000 A 
ATOM     20  N   UNL     1      45.420   4.778  12.710  0.00  0.00    +0.000 NA
ATOM     21  C   UNL     1      46.581   5.145  13.301  0.00  0.00    +0.000 A 
BRANCH  19  22
ATOM     22  C   UNL     1      43.637   5.168  11.087  0.00  0.00    +0.000 C 
BRANCH  22  23
ATOM     23  C   UNL     1      42.365   5.417  11.898  0.00  0.00    +0.000 C 
BRANCH  23  24
ATOM     24  N   UNL     1      42.640   5.387  13.338  0.00  0.00    +0.000 NA
ATOM     25  H   UNL     1      41.793   5.142  13.846  0.00  0.00    +0.000 HD
ATOM     26  H   UNL     1      42.898   6.325  13.642  0.00  0.00    +0.000 HD
ENDBRANCH  23  24
ENDBRANCH  22  23
ENDBRANCH  19  22
ENDBRANCH  15  16
ENDBRANCH   8  15
TORSDOF 7
ENDMDL
MODEL 6
REMARK VINA RESULT:    -6.052      3.571      8.313
REMARK INTER + INTRA:          -8.790
REMARK INTER:                  -7.881
REMARK INTRA:                  -0.910
REMARK UNBOUND:                -0.616
REMARK  Name = 
REMARK  9 active torsions:
REMARK  status: ('A' for Active; 'I' for Inactive)
REMARK    1  A    between atoms: C_1  and  C_2
REMARK    2  A    between atoms: C_2  and  C_3
REMARK    3  A    between atoms: C_2  and  O_4
REMARK    4  A    between atoms: C_2  and  C_5
REMARK    5  A    between atoms: N_12  and  C_13
REMARK    6  A    between atoms: C_13  and  C_14
REMARK    7  A    between atoms: C_17  and  C_18
REMARK    8  A    between atoms: C_18  and  C_19
REMARK    9  A    between atoms: C_19  and  N_20
REMARK                            x       y       z     vdW  Elec       q    Type
REMARK                         _______ _______ _______ _____ _____    ______ ____
ROOT
ATOM      1  C   UNL     1      45.516   4.967  12.696  0.00  0.00    +0.000 A 
ATOM      2  C   UNL     1      46.585   4.463  13.438  0.00  0.00    +0.000 A 
ATOM      3  N   UNL     1      47.627   5.171  13.967  0.00  0.00    +0.000 NA
ATOM      4  C   UNL     1      47.558   6.488  13.700  0.00  0.00    +0.000 A 
ATOM      5  C   UNL     1      46.566   7.138  12.969  0.00  0.00    +0.000 A 
ATOM      6  C   UNL     1      46.886   8.518  12.962  0.00  0.00    +0.000 A 
ATOM      7  C   UNL     1      48.057   8.678  13.669  0.00  0.00    +0.000 A 
ATOM      8  N   UNL     1      48.472   7.436  14.089  0.00  0.00    +0.000 N 
ATOM      9  C   UNL     1      45.514   6.352  12.454  0.00  0.00    +0.000 A 
ENDROOT
BRANCH   1  11
ATOM     10  C   UNL     1      44.382   4.035  10.645  0.00  0.00    +0.000 C 
ATOM     11  C   UNL     1      44.408   4.062  12.179  0.00  0.00    +0.000 C 
ATOM     12  C   UNL     1      43.040   4.486  12.733  0.00  0.00    +0.000 C 
BRANCH  11  13
ATOM     13  O   UNL     1      44.635   2.717  12.618  0.00  0.00    +0.000 OA
ATOM     14  H   UNL     1      44.389   2.120  11.891  0.00  0.00    +0.000 HD
ENDBRANCH  11  13
ENDBRANCH   1  11
BRANCH   8  15
ATOM     15  C   UNL     1      49.646   7.201  14.914  0.00  0.00    +0.000 C 
BRANCH  15  16
ATOM     16  C   UNL     1      49.329   6.959  16.363  0.00  0.00    +0.000 A 
ATOM     17  C   UNL     1      48.698   7.930  17.147  0.00  0.00    +0.000 A 
ATOM     18  C   UNL     1      48.220   7.594  18.412  0.00  0.00    +0.000 A 
ATOM     19  C   UNL     1      48.437   6.307  18.894  0.00  0.00    +0.000 A 
ATOM     20  N   UNL     1      49.108   5.374  18.182  0.00  0.00    +0.000 NA
ATOM     21  C   UNL     1      49.531   5.712  16.941  0.00  0.00    +0.000 A 
BRANCH  19  22
ATOM     22  C   UNL     1      47.867   5.883  20.224  0.00  0.00    +0.000 C 
BRANCH  22  23
ATOM     23  C   UNL     1      48.730   4.809  20.886  0.00  0.00    +0.000 C 
BRANCH  23  24
ATOM     24  N   UNL     1      48.342   3.467  20.438  0.00  0.00    +0.000 NA
ATOM     25  H   UNL     1      47.355   3.459  20.188  0.00  0.00    +0.000 HD
ATOM     26  H   UNL     1      48.448   2.818  21.217  0.00  0.00    +0.000 HD
ENDBRANCH  23  24
ENDBRANCH  22  23
ENDBRANCH  19  22
ENDBRANCH  15  16
ENDBRANCH   8  15
TORSDOF 7
ENDMDL
MODEL 7
REMARK VINA RESULT:    -5.725      1.952      3.074
REMARK INTER + INTRA:          -8.349
REMARK INTER:                  -7.638
REMARK INTRA:                  -0.711
REMARK UNBOUND:                -0.616
REMARK  Name = 
REMARK  9 active torsions:
REMARK  status: ('A' for Active; 'I' for Inactive)
REMARK    1  A    between atoms: C_1  and  C_2
REMARK    2  A    between atoms: C_2  and  C_3
REMARK    3  A    between atoms: C_2  and  O_4
REMARK    4  A    between atoms: C_2  and  C_5
REMARK    5  A    between atoms: N_12  and  C_13
REMARK    6  A    between atoms: C_13  and  C_14
REMARK    7  A    between atoms: C_17  and  C_18
REMARK    8  A    between atoms: C_18  and  C_19
REMARK    9  A    between atoms: C_19  and  N_20
REMARK                            x       y       z     vdW  Elec       q    Type
REMARK                         _______ _______ _______ _____ _____    ______ ____
ROOT
ATOM      1  C   UNL     1      48.645   8.736  12.854  0.00  0.00    +0.000 A 
ATOM      2  C   UNL     1      47.467   8.817  12.110  0.00  0.00    +0.000 A 
ATOM      3  N   UNL     1      46.434   7.922  12.105  0.00  0.00    +0.000 NA
ATOM      4  C   UNL     1      46.642   6.871  12.920  0.00  0.00    +0.000 A 
ATOM      5  C   UNL     1      47.765   6.645  13.714  0.00  0.00    +0.000 A 
ATOM      6  C   UNL     1      47.544   5.435  14.417  0.00  0.00    +0.000 A 
ATOM      7  C   UNL     1      46.313   4.949  14.033  0.00  0.00    +0.000 A 
ATOM      8  N   UNL     1      45.787   5.814  13.102  0.00  0.00    +0.000 N 
ATOM      9  C   UNL     1      48.794   7.609  13.679  0.00  0.00    +0.000 A 
ENDROOT
BRANCH   1  11
ATOM     10  C   UNL     1      50.677   9.566  11.612  0.00  0.00    +0.000 C 
ATOM     11  C   UNL     1      49.711   9.819  12.777  0.00  0.00    +0.000 C 
ATOM     12  C   UNL     1      50.483   9.936  14.099  0.00  0.00    +0.000 C 
BRANCH  11  13
ATOM     13  O   UNL     1      49.095  11.091  12.541  0.00  0.00    +0.000 OA
ATOM     14  H   UNL     1      49.727  11.643  12.049  0.00  0.00    +0.000 HD
ENDBRANCH  11  13
ENDBRANCH   1  11
BRANCH   8  15
ATOM     15  C   UNL     1      44.472   5.667  12.500  0.00  0.00    +0.000 C 
BRANCH  15  16
ATOM     16  C   UNL     1      44.450   4.754  11.307  0.00  0.00    +0.000 A 
ATOM     17  C   UNL     1      45.136   5.070  10.130  0.00  0.00    +0.000 A 
ATOM     18  C   UNL     1      45.281   4.107   9.134  0.00  0.00    +0.000 A 
ATOM     19  C   UNL     1      44.683   2.863   9.307  0.00  0.00    +0.000 A 
ATOM     20  N   UNL     1      43.955   2.560  10.406  0.00  0.00    +0.000 NA
ATOM     21  C   UNL     1      43.859   3.499  11.376  0.00  0.00    +0.000 A 
BRANCH  19  22
ATOM     22  C   UNL     1      44.882   1.770   8.289  0.00  0.00    +0.000 C 
BRANCH  22  23
ATOM     23  C   UNL     1      46.363   1.563   7.970  0.00  0.00    +0.000 C 
BRANCH  23  24
ATOM     24  N   UNL     1      46.690   0.138   7.872  0.00  0.00    +0.000 NA
ATOM     25  H   UNL     1      47.130  -0.054   6.974  0.00  0.00    +0.000 HD
ATOM     26  H   UNL     1      45.825  -0.400   7.889  0.00  0.00    +0.000 HD
ENDBRANCH  23  24
ENDBRANCH  22  23
ENDBRANCH  19  22
ENDBRANCH  15  16
ENDBRANCH   8  15
TORSDOF 7
ENDMDL
MODEL 8
REMARK VINA RESULT:    -5.684      2.582      3.403
REMARK INTER + INTRA:          -8.294
REMARK INTER:                  -7.768
REMARK INTRA:                  -0.526
REMARK UNBOUND:                -0.616
REMARK  Name = 
REMARK  9 active torsions:
REMARK  status: ('A' for Active; 'I' for Inactive)
REMARK    1  A    between atoms: C_1  and  C_2
REMARK    2  A    between atoms: C_2  and  C_3
REMARK    3  A    between atoms: C_2  and  O_4
REMARK    4  A    between atoms: C_2  and  C_5
REMARK    5  A    between atoms: N_12  and  C_13
REMARK    6  A    between atoms: C_13  and  C_14
REMARK    7  A    between atoms: C_17  and  C_18
REMARK    8  A    between atoms: C_18  and  C_19
REMARK    9  A    between atoms: C_19  and  N_20
REMARK                            x       y       z     vdW  Elec       q    Type
REMARK                         _______ _______ _______ _____ _____    ______ ____
ROOT
ATOM      1  C   UNL     1      49.793   8.688  11.882  0.00  0.00    +0.000 A 
ATOM      2  C   UNL     1      49.572   7.365  12.269  0.00  0.00    +0.000 A 
ATOM      3  N   UNL     1      48.373   6.789  12.581  0.00  0.00    +0.000 NA
ATOM      4  C   UNL     1      47.338   7.644  12.493  0.00  0.00    +0.000 A 
ATOM      5  C   UNL     1      47.398   8.989  12.133  0.00  0.00    +0.000 A 
ATOM      6  C   UNL     1      46.073   9.489  12.154  0.00  0.00    +0.000 A 
ATOM      7  C   UNL     1      45.244   8.456  12.532  0.00  0.00    +0.000 A 
ATOM      8  N   UNL     1      46.025   7.348  12.764  0.00  0.00    +0.000 N 
ATOM      9  C   UNL     1      48.665   9.524  11.818  0.00  0.00    +0.000 A 
ENDROOT
BRANCH   1  11
ATOM     10  C   UNL     1      51.124  10.469  10.690  0.00  0.00    +0.000 C 
ATOM     11  C   UNL     1      51.187   9.196  11.545  0.00  0.00    +0.000 C 
ATOM     12  C   UNL     1      52.018   8.115  10.839  0.00  0.00    +0.000 C 
BRANCH  11  13
ATOM     13  O   UNL     1      51.885   9.536  12.750  0.00  0.00    +0.000 OA
ATOM     14  H   UNL     1      51.293  10.081  13.295  0.00  0.00    +0.000 HD
ENDBRANCH  11  13
ENDBRANCH   1  11
BRANCH   8  15
ATOM     15  C   UNL     1      45.504   6.041  13.130  0.00  0.00    +0.000 C 
BRANCH  15  16
ATOM     16  C   UNL     1      45.115   5.192  11.953  0.00  0.00    +0.000 A 
ATOM     17  C   UNL     1      45.406   5.581  10.641  0.00  0.00    +0.000 A 
ATOM     18  C   UNL     1      45.235   4.673   9.597  0.00  0.00    +0.000 A 
ATOM     19  C   UNL     1      44.720   3.412   9.878  0.00  0.00    +0.000 A 
ATOM     20  N   UNL     1      44.365   3.041  11.129  0.00  0.00    +0.000 NA
ATOM     21  C   UNL     1      44.573   3.925  12.132  0.00  0.00    +0.000 A 
BRANCH  19  22
ATOM     22  C   UNL     1      44.595   2.378   8.789  0.00  0.00    +0.000 C 
BRANCH  22  23
ATOM     23  C   UNL     1      45.946   1.745   8.459  0.00  0.00    +0.000 C 
BRANCH  23  24
ATOM     24  N   UNL     1      46.525   2.331   7.247  0.00  0.00    +0.000 NA
ATOM     25  H   UNL     1      45.808   2.842   6.734  0.00  0.00    +0.000 HD
ATOM     26  H   UNL     1      46.835   1.578   6.634  0.00  0.00    +0.000 HD
ENDBRANCH  23  24
ENDBRANCH  22  23
ENDBRANCH  19  22
ENDBRANCH  15  16
ENDBRANCH   8  15
TORSDOF 7
ENDMDL
MODEL 9
REMARK VINA RESULT:    -5.670      4.008      7.094
REMARK INTER + INTRA:          -8.275
REMARK INTER:                  -7.357
REMARK INTRA:                  -0.918
REMARK UNBOUND:                -0.616
REMARK  Name = 
REMARK  9 active torsions:
REMARK  status: ('A' for Active; 'I' for Inactive)
REMARK    1  A    between atoms: C_1  and  C_2
REMARK    2  A    between atoms: C_2  and  C_3
REMARK    3  A    between atoms: C_2  and  O_4
REMARK    4  A    between atoms: C_2  and  C_5
REMARK    5  A    between atoms: N_12  and  C_13
REMARK    6  A    between atoms: C_13  and  C_14
REMARK    7  A    between atoms: C_17  and  C_18
REMARK    8  A    between atoms: C_18  and  C_19
REMARK    9  A    between atoms: C_19  and  N_20
REMARK                            x       y       z     vdW  Elec       q    Type
REMARK                         _______ _______ _______ _____ _____    ______ ____
ROOT
ATOM      1  C   UNL     1      45.198   4.632  11.261  0.00  0.00    +0.000 A 
ATOM      2  C   UNL     1      45.654   5.878  10.830  0.00  0.00    +0.000 A 
ATOM      3  N   UNL     1      46.497   6.722  11.497  0.00  0.00    +0.000 NA
ATOM      4  C   UNL     1      46.884   6.244  12.694  0.00  0.00    +0.000 A 
ATOM      5  C   UNL     1      46.509   5.029  13.264  0.00  0.00    +0.000 A 
ATOM      6  C   UNL     1      47.170   4.931  14.514  0.00  0.00    +0.000 A 
ATOM      7  C   UNL     1      47.915   6.077  14.682  0.00  0.00    +0.000 A 
ATOM      8  N   UNL     1      47.712   6.880  13.585  0.00  0.00    +0.000 N 
ATOM      9  C   UNL     1      45.642   4.200  12.523  0.00  0.00    +0.000 A 
ENDROOT
BRANCH   1  11
ATOM     10  C   UNL     1      43.347   2.918  11.273  0.00  0.00    +0.000 C 
ATOM     11  C   UNL     1      44.270   3.783  10.405  0.00  0.00    +0.000 C 
ATOM     12  C   UNL     1      45.064   2.906   9.425  0.00  0.00    +0.000 C 
BRANCH  11  13
ATOM     13  O   UNL     1      43.428   4.631   9.614  0.00  0.00    +0.000 OA
ATOM     14  H   UNL     1      43.163   4.135   8.822  0.00  0.00    +0.000 HD
ENDBRANCH  11  13
ENDBRANCH   1  11
BRANCH   8  15
ATOM     15  C   UNL     1      48.373   8.158  13.372  0.00  0.00    +0.000 C 
BRANCH  15  16
ATOM     16  C   UNL     1      49.755   8.035  12.794  0.00  0.00    +0.000 A 
ATOM     17  C   UNL     1      49.962   7.658  11.464  0.00  0.00    +0.000 A 
ATOM     18  C   UNL     1      51.233   7.773  10.903  0.00  0.00    +0.000 A 
ATOM     19  C   UNL     1      52.286   8.206  11.702  0.00  0.00    +0.000 A 
ATOM     20  N   UNL     1      52.121   8.508  13.009  0.00  0.00    +0.000 NA
ATOM     21  C   UNL     1      50.872   8.424  13.523  0.00  0.00    +0.000 A 
BRANCH  19  22
ATOM     22  C   UNL     1      53.657   8.417  11.112  0.00  0.00    +0.000 C 
BRANCH  22  23
ATOM     23  C   UNL     1      54.471   7.124  11.109  0.00  0.00    +0.000 C 
BRANCH  23  24
ATOM     24  N   UNL     1      54.632   6.597  12.468  0.00  0.00    +0.000 NA
ATOM     25  H   UNL     1      55.402   5.930  12.490  0.00  0.00    +0.000 HD
ATOM     26  H   UNL     1      53.792   6.076  12.719  0.00  0.00    +0.000 HD
ENDBRANCH  23  24
ENDBRANCH  22  23
ENDBRANCH  19  22
ENDBRANCH  15  16
ENDBRANCH   8  15
TORSDOF 7
ENDMDL
