MODEL 1
REMARK VINA RESULT:    -8.310      0.000      0.000
REMARK INTER + INTRA:         -13.447
REMARK INTER:                 -12.440
REMARK INTRA:                  -1.007
REMARK UNBOUND:                -1.007
REMARK  Name = 
REMARK  9 active torsions:
REMARK  status: ('A' for Active; 'I' for Inactive)
REMARK    1  A    between atoms: N_1  and  C_2
REMARK    2  A    between atoms: C_2  and  C_3
REMARK    3  A    between atoms: C_3  and  N_4
REMARK    4  A    between atoms: C_3  and  C_26
REMARK    5  A    between atoms: N_4  and  C_5
REMARK    6  A    between atoms: C_5  and  C_6
REMARK    7  A    between atoms: C_9  and  C_10
REMARK    8  A    between atoms: C_10  and  N_11
REMARK    9  A    between atoms: C_12  and  C_14
REMARK                            x       y       z     vdW  Elec       q    Type
REMARK                         _______ _______ _______ _____ _____    ______ ____
ROOT
ATOM      1  C   UNL     1      44.153   6.576  11.715  0.00  0.00    +0.000 A 
ATOM      2  N   UNL     1      44.840   5.899  12.658  0.00  0.00    +0.000 NA
ATOM      3  C   UNL     1      45.885   6.537  13.215  0.00  0.00    +0.000 A 
ATOM      4  C   UNL     1      46.277   7.812  12.873  0.00  0.00    +0.000 A 
ATOM      5  C   UNL     1      45.537   8.398  11.868  0.00  0.00    +0.000 A 
ATOM      6  N   UNL     1      44.475   7.812  11.278  0.00  0.00    +0.000 NA
ENDROOT
BRANCH   1   7
ATOM      7  C   UNL     1      43.024   5.850  11.002  0.00  0.00    +0.000 C 
BRANCH   7   8
ATOM      8  N   UNL     1      43.451   4.969   9.895  0.00  0.00    +0.000 NA
ATOM      9  H   UNL     1      43.922   5.539   9.190  0.00  0.00    +0.000 HD
BRANCH   8  10
ATOM     10  C   UNL     1      44.398   3.913  10.340  0.00  0.00    +0.000 C 
BRANCH  10  11
ATOM     11  C   UNL     1      45.217   3.387   9.156  0.00  0.00    +0.000 A 
ATOM     12  C   UNL     1      45.466   2.019   9.008  0.00  0.00    +0.000 A 
ATOM     13  C   UNL     1      46.254   1.584   7.943  0.00  0.00    +0.000 A 
ATOM     14  C   UNL     1      46.764   2.511   7.052  0.00  0.00    +0.000 A 
ATOM     15  C   UNL     1      46.450   3.847   7.246  0.00  0.00    +0.000 A 
ATOM     16  N   UNL     1      45.682   4.302   8.264  0.00  0.00    +0.000 NA
ENDBRANCH  10  11
BRANCH  10  17
ATOM     17  C   UNL     1      43.676   2.742  11.088  0.00  0.00    +0.000 C 
BRANCH  17  18
ATOM     18  N   UNL     1      43.918   2.644  12.531  0.00  0.00    +0.000 NA
ATOM     19  H   UNL     1      43.431   3.404  13.001  0.00  0.00    +0.000 HD
ATOM     20  H   UNL     1      44.913   2.773  12.718  0.00  0.00    +0.000 HD
ENDBRANCH  17  18
ENDBRANCH  10  17
ENDBRANCH   8  10
ENDBRANCH   7   8
ENDBRANCH   1   7
BRANCH   4  21
ATOM     21  C   UNL     1      47.420   8.493  13.542  0.00  0.00    +0.000 C 
BRANCH  21  22
ATOM     22  N   UNL     1      47.689   7.965  14.854  0.00  0.00    +0.000 N 
ATOM     23  C   UNL     1      48.698   7.051  15.038  0.00  0.00    +0.000 C 
ATOM     24  O   UNL     1      49.383   6.661  14.095  0.00  0.00    +0.000 OA
ATOM     25  H   UNL     1      47.296   8.447  15.658  0.00  0.00    +0.000 HD
BRANCH  23  26
ATOM     26  C   UNL     1      48.874   6.506  16.388  0.00  0.00    +0.000 A 
ATOM     27  C   UNL     1      49.592   7.227  17.335  0.00  0.00    +0.000 A 
ATOM     28  S   UNL     1      49.920   6.343  18.758  0.00  0.00    +0.000 S 
ATOM     29  C   UNL     1      49.070   4.990  18.175  0.00  0.00    +0.000 A 
ATOM     30  N   UNL     1      49.034   3.824  18.874  0.00  0.00    +0.000 NA
ATOM     31  C   UNL     1      48.320   2.898  18.328  0.00  0.00    +0.000 A 
ATOM     32  N   UNL     1      47.605   3.043  17.165  0.00  0.00    +0.000 N 
ATOM     33  C   UNL     1      47.587   4.210  16.443  0.00  0.00    +0.000 A 
ATOM     34  O   UNL     1      46.861   4.353  15.467  0.00  0.00    +0.000 OA
ATOM     35  C   UNL     1      48.461   5.248  16.960  0.00  0.00    +0.000 A 
ATOM     36  H   UNL     1      47.008   2.302  16.831  0.00  0.00    +0.000 HD
ENDBRANCH  23  26
ENDBRANCH  21  22
ENDBRANCH   4  21
TORSDOF 9
ENDMDL
MODEL 2
REMARK VINA RESULT:    -8.052      2.721      3.570
REMARK INTER + INTRA:         -13.060
REMARK INTER:                 -12.165
REMARK INTRA:                  -0.895
REMARK UNBOUND:                -1.007
REMARK  Name = 
REMARK  9 active torsions:
REMARK  status: ('A' for Active; 'I' for Inactive)
REMARK    1  A    between atoms: N_1  and  C_2
REMARK    2  A    between atoms: C_2  and  C_3
REMARK    3  A    between atoms: C_3  and  N_4
REMARK    4  A    between atoms: C_3  and  C_26
REMARK    5  A    between atoms: N_4  and  C_5
REMARK    6  A    between atoms: C_5  and  C_6
REMARK    7  A    between atoms: C_9  and  C_10
REMARK    8  A    between atoms: C_10  and  N_11
REMARK    9  A    between atoms: C_12  and  C_14
REMARK                            x       y       z     vdW  Elec       q    Type
REMARK                         _______ _______ _______ _____ _____    ______ ____
ROOT
ATOM      1  C   UNL     1      46.575   4.291  13.661  0.00  0.00    +0.000 A 
ATOM      2  N   UNL     1      46.767   3.691  14.854  0.00  0.00    +0.000 NA
ATOM      3  C   UNL     1      47.471   4.383  15.768  0.00  0.00    +0.000 A 
ATOM      4  C   UNL     1      47.995   5.638  15.545  0.00  0.00    +0.000 A 
ATOM      5  C   UNL     1      47.781   6.140  14.278  0.00  0.00    +0.000 A 
ATOM      6  N   UNL     1      47.077   5.497  13.324  0.00  0.00    +0.000 NA
ENDROOT
BRANCH   1   7
ATOM      7  C   UNL     1      45.862   3.499  12.577  0.00  0.00    +0.000 C 
BRANCH   7   8
ATOM      8  N   UNL     1      44.436   3.217  12.848  0.00  0.00    +0.000 NA
ATOM      9  H   UNL     1      44.157   3.735  13.683  0.00  0.00    +0.000 HD
BRANCH   8  10
ATOM     10  C   UNL     1      43.551   3.635  11.730  0.00  0.00    +0.000 C 
BRANCH  10  11
ATOM     11  C   UNL     1      44.255   3.441  10.381  0.00  0.00    +0.000 A 
ATOM     12  C   UNL     1      44.476   2.161   9.865  0.00  0.00    +0.000 A 
ATOM     13  C   UNL     1      45.160   2.023   8.659  0.00  0.00    +0.000 A 
ATOM     14  C   UNL     1      45.599   3.155   7.994  0.00  0.00    +0.000 A 
ATOM     15  C   UNL     1      45.317   4.392   8.552  0.00  0.00    +0.000 A 
ATOM     16  N   UNL     1      44.648   4.561   9.716  0.00  0.00    +0.000 NA
ENDBRANCH  10  11
BRANCH  10  17
ATOM     17  C   UNL     1      43.040   5.106  11.891  0.00  0.00    +0.000 C 
BRANCH  17  18
ATOM     18  N   UNL     1      42.833   5.576  13.264  0.00  0.00    +0.000 NA
ATOM     19  H   UNL     1      43.086   6.561  13.319  0.00  0.00    +0.000 HD
ATOM     20  H   UNL     1      43.463   5.077  13.893  0.00  0.00    +0.000 HD
ENDBRANCH  17  18
ENDBRANCH  10  17
ENDBRANCH   8  10
ENDBRANCH   7   8
ENDBRANCH   1   7
BRANCH   4  21
ATOM     21  C   UNL     1      48.740   6.382  16.598  0.00  0.00    +0.000 C 
BRANCH  21  22
ATOM     22  N   UNL     1      49.616   5.532  17.362  0.00  0.00    +0.000 N 
ATOM     23  C   UNL     1      50.963   5.508  17.094  0.00  0.00    +0.000 C 
ATOM     24  O   UNL     1      51.446   6.200  16.200  0.00  0.00    +0.000 OA
ATOM     25  H   UNL     1      49.271   5.146  18.237  0.00  0.00    +0.000 HD
BRANCH  23  26
ATOM     26  C   UNL     1      51.786   4.572  17.866  0.00  0.00    +0.000 A 
ATOM     27  C   UNL     1      52.739   5.060  18.753  0.00  0.00    +0.000 A 
ATOM     28  S   UNL     1      53.776   3.853  19.369  0.00  0.00    +0.000 S 
ATOM     29  C   UNL     1      52.953   2.636  18.513  0.00  0.00    +0.000 A 
ATOM     30  N   UNL     1      53.389   1.347  18.524  0.00  0.00    +0.000 NA
ATOM     31  C   UNL     1      52.644   0.528  17.860  0.00  0.00    +0.000 A 
ATOM     32  N   UNL     1      51.480   0.871  17.220  0.00  0.00    +0.000 N 
ATOM     33  C   UNL     1      50.986   2.152  17.209  0.00  0.00    +0.000 A 
ATOM     34  O   UNL     1      49.893   2.417  16.722  0.00  0.00    +0.000 OA
ATOM     35  C   UNL     1      51.844   3.130  17.851  0.00  0.00    +0.000 A 
ATOM     36  H   UNL     1      50.906   0.168  16.781  0.00  0.00    +0.000 HD
ENDBRANCH  23  26
ENDBRANCH  21  22
ENDBRANCH   4  21
TORSDOF 9
ENDMDL
MODEL 3
REMARK VINA RESULT:    -7.545      2.836      8.121
REMARK INTER + INTRA:         -12.302
REMARK INTER:                 -10.803
REMARK INTRA:                  -1.498
REMARK UNBOUND:                -1.007
REMARK  Name = 
REMARK  9 active torsions:
REMARK  status: ('A' for Active; 'I' for Inactive)
REMARK    1  A    between atoms: N_1  and  C_2
REMARK    2  A    between atoms: C_2  and  C_3
REMARK    3  A    between atoms: C_3  and  N_4
REMARK    4  A    between atoms: C_3  and  C_26
REMARK    5  A    between atoms: N_4  and  C_5
REMARK    6  A    between atoms: C_5  and  C_6
REMARK    7  A    between atoms: C_9  and  C_10
REMARK    8  A    between atoms: C_10  and  N_11
REMARK    9  A    between atoms: C_12  and  C_14
REMARK                            x       y       z     vdW  Elec       q    Type
REMARK                         _______ _______ _______ _____ _____    ______ ____
ROOT
ATOM      1  C   UNL     1      48.837   7.582  15.948  0.00  0.00    +0.000 A 
ATOM      2  N   UNL     1      48.902   6.433  15.245  0.00  0.00    +0.000 NA
ATOM      3  C   UNL     1      48.446   6.477  13.980  0.00  0.00    +0.000 A 
ATOM      4  C   UNL     1      47.927   7.607  13.389  0.00  0.00    +0.000 A 
ATOM      5  C   UNL     1      47.865   8.715  14.208  0.00  0.00    +0.000 A 
ATOM      6  N   UNL     1      48.313   8.734  15.481  0.00  0.00    +0.000 NA
ENDROOT
BRANCH   1   7
ATOM      7  C   UNL     1      49.260   7.544  17.408  0.00  0.00    +0.000 C 
BRANCH   7   8
ATOM      8  N   UNL     1      48.432   6.677  18.273  0.00  0.00    +0.000 NA
ATOM      9  H   UNL     1      47.725   6.221  17.693  0.00  0.00    +0.000 HD
BRANCH   8  10
ATOM     10  C   UNL     1      49.228   5.618  18.947  0.00  0.00    +0.000 C 
BRANCH  10  11
ATOM     11  C   UNL     1      49.212   4.324  18.124  0.00  0.00    +0.000 A 
ATOM     12  C   UNL     1      50.385   3.594  17.914  0.00  0.00    +0.000 A 
ATOM     13  C   UNL     1      50.339   2.448  17.122  0.00  0.00    +0.000 A 
ATOM     14  C   UNL     1      49.133   2.052  16.570  0.00  0.00    +0.000 A 
ATOM     15  C   UNL     1      48.007   2.809  16.847  0.00  0.00    +0.000 A 
ATOM     16  N   UNL     1      48.015   3.922  17.618  0.00  0.00    +0.000 NA
ENDBRANCH  10  11
BRANCH  10  17
ATOM     17  C   UNL     1      48.752   5.357  20.415  0.00  0.00    +0.000 C 
BRANCH  17  18
ATOM     18  N   UNL     1      48.417   3.970  20.753  0.00  0.00    +0.000 NA
ATOM     19  H   UNL     1      49.042   3.346  20.247  0.00  0.00    +0.000 HD
ATOM     20  H   UNL     1      47.472   3.761  20.433  0.00  0.00    +0.000 HD
ENDBRANCH  17  18
ENDBRANCH  10  17
ENDBRANCH   8  10
ENDBRANCH   7   8
ENDBRANCH   1   7
BRANCH   4  21
ATOM     21  C   UNL     1      47.466   7.619  11.973  0.00  0.00    +0.000 C 
BRANCH  21  22
ATOM     22  N   UNL     1      46.768   6.412  11.608  0.00  0.00    +0.000 N 
ATOM     23  C   UNL     1      45.396   6.399  11.548  0.00  0.00    +0.000 C 
ATOM     24  O   UNL     1      44.738   7.404  11.809  0.00  0.00    +0.000 OA
ATOM     25  H   UNL     1      47.298   5.663  11.171  0.00  0.00    +0.000 HD
BRANCH  23  26
ATOM     26  C   UNL     1      44.749   5.120  11.234  0.00  0.00    +0.000 A 
ATOM     27  C   UNL     1      43.829   4.576  12.123  0.00  0.00    +0.000 A 
ATOM     28  S   UNL     1      43.371   2.979  11.735  0.00  0.00    +0.000 S 
ATOM     29  C   UNL     1      44.346   2.983  10.341  0.00  0.00    +0.000 A 
ATOM     30  N   UNL     1      44.489   1.868   9.576  0.00  0.00    +0.000 NA
ATOM     31  C   UNL     1      45.228   2.030   8.531  0.00  0.00    +0.000 A 
ATOM     32  N   UNL     1      45.806   3.218   8.157  0.00  0.00    +0.000 N 
ATOM     33  C   UNL     1      45.663   4.375   8.881  0.00  0.00    +0.000 A 
ATOM     34  O   UNL     1      46.097   5.447   8.475  0.00  0.00    +0.000 OA
ATOM     35  C   UNL     1      44.929   4.218  10.123  0.00  0.00    +0.000 A 
ATOM     36  H   UNL     1      46.312   3.294   7.288  0.00  0.00    +0.000 HD
ENDBRANCH  23  26
ENDBRANCH  21  22
ENDBRANCH   4  21
TORSDOF 9
ENDMDL
MODEL 4
REMARK VINA RESULT:    -7.373      2.962      7.911
REMARK INTER + INTRA:         -12.043
REMARK INTER:                 -10.467
REMARK INTRA:                  -1.576
REMARK UNBOUND:                -1.007
REMARK  Name = 
REMARK  9 active torsions:
REMARK  status: ('A' for Active; 'I' for Inactive)
REMARK    1  A    between atoms: N_1  and  C_2
REMARK    2  A    between atoms: C_2  and  C_3
REMARK    3  A    between atoms: C_3  and  N_4
REMARK    4  A    between atoms: C_3  and  C_26
REMARK    5  A    between atoms: N_4  and  C_5
REMARK    6  A    between atoms: C_5  and  C_6
REMARK    7  A    between atoms: C_9  and  C_10
REMARK    8  A    between atoms: C_10  and  N_11
REMARK    9  A    between atoms: C_12  and  C_14
REMARK                            x       y       z     vdW  Elec       q    Type
REMARK                         _______ _______ _______ _____ _____    ______ ____
ROOT
ATOM      1  C   UNL     1      49.691   7.310  16.195  0.00  0.00    +0.000 A 
ATOM      2  N   UNL     1      49.379   6.298  15.359  0.00  0.00    +0.000 NA
ATOM      3  C   UNL     1      48.667   6.620  14.264  0.00  0.00    +0.000 A 
ATOM      4  C   UNL     1      48.251   7.899  13.968  0.00  0.00    +0.000 A 
ATOM      5  C   UNL     1      48.582   8.851  14.909  0.00  0.00    +0.000 A 
ATOM      6  N   UNL     1      49.300   8.589  16.021  0.00  0.00    +0.000 NA
ENDROOT
BRANCH   1   7
ATOM      7  C   UNL     1      50.415   6.965  17.486  0.00  0.00    +0.000 C 
BRANCH   7   8
ATOM      8  N   UNL     1      49.534   6.608  18.618  0.00  0.00    +0.000 NA
ATOM      9  H   UNL     1      48.567   6.608  18.288  0.00  0.00    +0.000 HD
BRANCH   8  10
ATOM     10  C   UNL     1      49.832   5.260  19.168  0.00  0.00    +0.000 C 
BRANCH  10  11
ATOM     11  C   UNL     1      49.369   4.166  18.199  0.00  0.00    +0.000 A 
ATOM     12  C   UNL     1      50.261   3.193  17.737  0.00  0.00    +0.000 A 
ATOM     13  C   UNL     1      49.814   2.242  16.820  0.00  0.00    +0.000 A 
ATOM     14  C   UNL     1      48.497   2.275  16.395  0.00  0.00    +0.000 A 
ATOM     15  C   UNL     1      47.665   3.251  16.920  0.00  0.00    +0.000 A 
ATOM     16  N   UNL     1      48.064   4.183  17.816  0.00  0.00    +0.000 NA
ENDBRANCH  10  11
BRANCH  10  17
ATOM     17  C   UNL     1      49.216   5.046  20.592  0.00  0.00    +0.000 C 
BRANCH  17  18
ATOM     18  N   UNL     1      48.381   3.855  20.768  0.00  0.00    +0.000 NA
ATOM     19  H   UNL     1      48.253   3.684  21.763  0.00  0.00    +0.000 HD
ATOM     20  H   UNL     1      48.867   3.040  20.392  0.00  0.00    +0.000 HD
ENDBRANCH  17  18
ENDBRANCH  10  17
ENDBRANCH   8  10
ENDBRANCH   7   8
ENDBRANCH   1   7
BRANCH   4  21
ATOM     21  C   UNL     1      47.494   8.216  12.725  0.00  0.00    +0.000 C 
BRANCH  21  22
ATOM     22  N   UNL     1      47.129   7.037  11.983  0.00  0.00    +0.000 N 
ATOM     23  C   UNL     1      45.836   6.864  11.551  0.00  0.00    +0.000 C 
ATOM     24  O   UNL     1      44.968   7.700  11.792  0.00  0.00    +0.000 OA
ATOM     25  H   UNL     1      47.872   6.469  11.583  0.00  0.00    +0.000 HD
BRANCH  23  26
ATOM     26  C   UNL     1      45.520   5.610  10.858  0.00  0.00    +0.000 A 
ATOM     27  C   UNL     1      45.752   5.499   9.493  0.00  0.00    +0.000 A 
ATOM     28  S   UNL     1      45.095   4.084   8.803  0.00  0.00    +0.000 S 
ATOM     29  C   UNL     1      44.526   3.550  10.315  0.00  0.00    +0.000 A 
ATOM     30  N   UNL     1      43.777   2.421  10.429  0.00  0.00    +0.000 NA
ATOM     31  C   UNL     1      43.448   2.120  11.640  0.00  0.00    +0.000 A 
ATOM     32  N   UNL     1      43.834   2.823  12.754  0.00  0.00    +0.000 N 
ATOM     33  C   UNL     1      44.616   3.949  12.689  0.00  0.00    +0.000 A 
ATOM     34  O   UNL     1      45.037   4.501  13.699  0.00  0.00    +0.000 OA
ATOM     35  C   UNL     1      44.922   4.389  11.340  0.00  0.00    +0.000 A 
ATOM     36  H   UNL     1      43.604   2.491  13.678  0.00  0.00    +0.000 HD
ENDBRANCH  23  26
ENDBRANCH  21  22
ENDBRANCH   4  21
TORSDOF 9
ENDMDL
MODEL 5
REMARK VINA RESULT:    -7.340      3.964      5.382
REMARK INTER + INTRA:         -11.995
REMARK INTER:                 -11.105
REMARK INTRA:                  -0.890
REMARK UNBOUND:                -1.007
REMARK  Name = 
REMARK  9 active torsions:
REMARK  status: ('A' for Active; 'I' for Inactive)
REMARK    1  A    between atoms: N_1  and  C_2
REMARK    2  A    between atoms: C_2  and  C_3
REMARK    3  A    between atoms: C_3  and  N_4
REMARK    4  A    between atoms: C_3  and  C_26
REMARK    5  A    between atoms: N_4  and  C_5
REMARK    6  A    between atoms: C_5  and  C_6
REMARK    7  A    between atoms: C_9  and  C_10
REMARK    8  A    between atoms: C_10  and  N_11
REMARK    9  A    between atoms: C_12  and  C_14
REMARK                            x       y       z     vdW  Elec       q    Type
REMARK                         _______ _______ _______ _____ _____    ______ ____
ROOT
ATOM      1  C   UNL     1      47.291   4.480  14.832  0.00  0.00    +0.000 A 
ATOM      2  N   UNL     1      47.941   5.536  15.363  0.00  0.00    +0.000 NA
ATOM      3  C   UNL     1      48.644   5.307  16.486  0.00  0.00    +0.000 A 
ATOM      4  C   UNL     1      48.725   4.079  17.105  0.00  0.00    +0.000 A 
ATOM      5  C   UNL     1      47.988   3.078  16.507  0.00  0.00    +0.000 A 
ATOM      6  N   UNL     1      47.271   3.245  15.377  0.00  0.00    +0.000 NA
ENDROOT
BRANCH   1   7
ATOM      7  C   UNL     1      46.415   4.726  13.614  0.00  0.00    +0.000 C 
BRANCH   7   8
ATOM      8  N   UNL     1      45.586   3.574  13.201  0.00  0.00    +0.000 NA
ATOM      9  H   UNL     1      45.184   3.147  14.038  0.00  0.00    +0.000 HD
BRANCH   8  10
ATOM     10  C   UNL     1      44.468   3.970  12.305  0.00  0.00    +0.000 C 
BRANCH  10  11
ATOM     11  C   UNL     1      44.876   3.820  10.834  0.00  0.00    +0.000 A 
ATOM     12  C   UNL     1      45.298   4.927  10.091  0.00  0.00    +0.000 A 
ATOM     13  C   UNL     1      45.617   4.759   8.745  0.00  0.00    +0.000 A 
ATOM     14  C   UNL     1      45.518   3.502   8.174  0.00  0.00    +0.000 A 
ATOM     15  C   UNL     1      45.122   2.447   8.982  0.00  0.00    +0.000 A 
ATOM     16  N   UNL     1      44.813   2.574  10.293  0.00  0.00    +0.000 NA
ENDBRANCH  10  11
BRANCH  10  17
ATOM     17  C   UNL     1      43.951   5.418  12.600  0.00  0.00    +0.000 C 
BRANCH  17  18
ATOM     18  N   UNL     1      42.653   5.520  13.273  0.00  0.00    +0.000 NA
ATOM     19  H   UNL     1      42.206   4.606  13.271  0.00  0.00    +0.000 HD
ATOM     20  H   UNL     1      42.044   6.145  12.744  0.00  0.00    +0.000 HD
ENDBRANCH  17  18
ENDBRANCH  10  17
ENDBRANCH   8  10
ENDBRANCH   7   8
ENDBRANCH   1   7
BRANCH   4  21
ATOM     21  C   UNL     1      49.544   3.863  18.330  0.00  0.00    +0.000 C 
BRANCH  21  22
ATOM     22  N   UNL     1      50.857   3.350  18.034  0.00  0.00    +0.000 N 
ATOM     23  C   UNL     1      51.962   3.882  18.654  0.00  0.00    +0.000 C 
ATOM     24  O   UNL     1      51.857   4.802  19.462  0.00  0.00    +0.000 OA
ATOM     25  H   UNL     1      50.930   2.454  17.560  0.00  0.00    +0.000 HD
BRANCH  23  26
ATOM     26  C   UNL     1      53.273   3.357  18.258  0.00  0.00    +0.000 A 
ATOM     27  C   UNL     1      54.392   4.180  18.318  0.00  0.00    +0.000 A 
ATOM     28  S   UNL     1      55.775   3.502  17.584  0.00  0.00    +0.000 S 
ATOM     29  C   UNL     1      54.938   2.070  17.209  0.00  0.00    +0.000 A 
ATOM     30  N   UNL     1      55.522   1.079  16.483  0.00  0.00    +0.000 NA
ATOM     31  C   UNL     1      54.780   0.038  16.308  0.00  0.00    +0.000 A 
ATOM     32  N   UNL     1      53.520  -0.122  16.829  0.00  0.00    +0.000 N 
ATOM     33  C   UNL     1      52.903   0.837  17.593  0.00  0.00    +0.000 A 
ATOM     34  O   UNL     1      51.823   0.634  18.136  0.00  0.00    +0.000 OA
ATOM     35  C   UNL     1      53.655   2.071  17.728  0.00  0.00    +0.000 A 
ATOM     36  H   UNL     1      53.022  -0.991  16.716  0.00  0.00    +0.000 HD
ENDBRANCH  23  26
ENDBRANCH  21  22
ENDBRANCH   4  21
TORSDOF 9
ENDMDL
MODEL 6
REMARK VINA RESULT:    -7.059      4.783      9.759
REMARK INTER + INTRA:         -11.574
REMARK INTER:                 -10.367
REMARK INTRA:                  -1.207
REMARK UNBOUND:                -1.007
REMARK  Name = 
REMARK  9 active torsions:
REMARK  status: ('A' for Active; 'I' for Inactive)
REMARK    1  A    between atoms: N_1  and  C_2
REMARK    2  A    between atoms: C_2  and  C_3
REMARK    3  A    between atoms: C_3  and  N_4
REMARK    4  A    between atoms: C_3  and  C_26
REMARK    5  A    between atoms: N_4  and  C_5
REMARK    6  A    between atoms: C_5  and  C_6
REMARK    7  A    between atoms: C_9  and  C_10
REMARK    8  A    between atoms: C_10  and  N_11
REMARK    9  A    between atoms: C_12  and  C_14
REMARK                            x       y       z     vdW  Elec       q    Type
REMARK                         _______ _______ _______ _____ _____    ______ ____
ROOT
ATOM      1  C   UNL     1      50.995   2.143  17.337  0.00  0.00    +0.000 A 
ATOM      2  N   UNL     1      51.321   3.372  17.789  0.00  0.00    +0.000 NA
ATOM      3  C   UNL     1      50.373   4.321  17.687  0.00  0.00    +0.000 A 
ATOM      4  C   UNL     1      49.122   4.103  17.153  0.00  0.00    +0.000 A 
ATOM      5  C   UNL     1      48.907   2.826  16.679  0.00  0.00    +0.000 A 
ATOM      6  N   UNL     1      49.815   1.832  16.761  0.00  0.00    +0.000 NA
ENDROOT
BRANCH   1   7
ATOM      7  C   UNL     1      52.073   1.073  17.354  0.00  0.00    +0.000 C 
BRANCH   7   8
ATOM      8  N   UNL     1      52.927   1.068  18.562  0.00  0.00    +0.000 NA
ATOM      9  H   UNL     1      52.489   0.470  19.265  0.00  0.00    +0.000 HD
BRANCH   8  10
ATOM     10  C   UNL     1      54.290   0.540  18.293  0.00  0.00    +0.000 C 
BRANCH  10  11
ATOM     11  C   UNL     1      54.294  -0.993  18.337  0.00  0.00    +0.000 A 
ATOM     12  C   UNL     1      54.914  -1.737  17.329  0.00  0.00    +0.000 A 
ATOM     13  C   UNL     1      54.857  -3.129  17.380  0.00  0.00    +0.000 A 
ATOM     14  C   UNL     1      54.197  -3.744  18.430  0.00  0.00    +0.000 A 
ATOM     15  C   UNL     1      53.632  -2.941  19.408  0.00  0.00    +0.000 A 
ATOM     16  N   UNL     1      53.677  -1.588  19.393  0.00  0.00    +0.000 NA
ENDBRANCH  10  11
BRANCH  10  17
ATOM     17  C   UNL     1      55.362   1.133  19.268  0.00  0.00    +0.000 C 
BRANCH  17  18
ATOM     18  N   UNL     1      55.007   1.154  20.690  0.00  0.00    +0.000 NA
ATOM     19  H   UNL     1      55.295   0.275  21.116  0.00  0.00    +0.000 HD
ATOM     20  H   UNL     1      53.993   1.208  20.787  0.00  0.00    +0.000 HD
ENDBRANCH  17  18
ENDBRANCH  10  17
ENDBRANCH   8  10
ENDBRANCH   7   8
ENDBRANCH   1   7
BRANCH   4  21
ATOM     21  C   UNL     1      48.091   5.176  17.092  0.00  0.00    +0.000 C 
BRANCH  21  22
ATOM     22  N   UNL     1      47.381   5.190  15.839  0.00  0.00    +0.000 N 
ATOM     23  C   UNL     1      47.877   5.899  14.772  0.00  0.00    +0.000 C 
ATOM     24  O   UNL     1      48.924   6.537  14.863  0.00  0.00    +0.000 OA
ATOM     25  H   UNL     1      46.659   4.491  15.686  0.00  0.00    +0.000 HD
BRANCH  23  26
ATOM     26  C   UNL     1      47.070   5.923  13.547  0.00  0.00    +0.000 A 
ATOM     27  C   UNL     1      46.911   7.115  12.850  0.00  0.00    +0.000 A 
ATOM     28  S   UNL     1      45.744   7.026  11.608  0.00  0.00    +0.000 S 
ATOM     29  C   UNL     1      45.453   5.381  11.928  0.00  0.00    +0.000 A 
ATOM     30  N   UNL     1      44.482   4.694  11.270  0.00  0.00    +0.000 NA
ATOM     31  C   UNL     1      44.401   3.447  11.591  0.00  0.00    +0.000 A 
ATOM     32  N   UNL     1      45.231   2.811  12.480  0.00  0.00    +0.000 N 
ATOM     33  C   UNL     1      46.245   3.457  13.144  0.00  0.00    +0.000 A 
ATOM     34  O   UNL     1      47.040   2.851  13.852  0.00  0.00    +0.000 OA
ATOM     35  C   UNL     1      46.307   4.886  12.898  0.00  0.00    +0.000 A 
ATOM     36  H   UNL     1      45.161   1.817  12.631  0.00  0.00    +0.000 HD
ENDBRANCH  23  26
ENDBRANCH  21  22
ENDBRANCH   4  21
TORSDOF 9
ENDMDL
MODEL 7
REMARK VINA RESULT:    -6.905      3.023      8.484
REMARK INTER + INTRA:         -11.343
REMARK INTER:                  -9.987
REMARK INTRA:                  -1.356
REMARK UNBOUND:                -1.007
REMARK  Name = 
REMARK  9 active torsions:
REMARK  status: ('A' for Active; 'I' for Inactive)
REMARK    1  A    between atoms: N_1  and  C_2
REMARK    2  A    between atoms: C_2  and  C_3
REMARK    3  A    between atoms: C_3  and  N_4
REMARK    4  A    between atoms: C_3  and  C_26
REMARK    5  A    between atoms: N_4  and  C_5
REMARK    6  A    between atoms: C_5  and  C_6
REMARK    7  A    between atoms: C_9  and  C_10
REMARK    8  A    between atoms: C_10  and  N_11
REMARK    9  A    between atoms: C_12  and  C_14
REMARK                            x       y       z     vdW  Elec       q    Type
REMARK                         _______ _______ _______ _____ _____    ______ ____
ROOT
ATOM      1  C   UNL     1      50.184   7.432  15.403  0.00  0.00    +0.000 A 
ATOM      2  N   UNL     1      50.632   8.305  14.477  0.00  0.00    +0.000 NA
ATOM      3  C   UNL     1      49.947   8.359  13.321  0.00  0.00    +0.000 A 
ATOM      4  C   UNL     1      48.844   7.582  13.044  0.00  0.00    +0.000 A 
ATOM      5  C   UNL     1      48.497   6.691  14.039  0.00  0.00    +0.000 A 
ATOM      6  N   UNL     1      49.140   6.597  15.221  0.00  0.00    +0.000 NA
ENDROOT
BRANCH   1   7
ATOM      7  C   UNL     1      50.989   7.282  16.683  0.00  0.00    +0.000 C 
BRANCH   7   8
ATOM      8  N   UNL     1      50.241   6.720  17.828  0.00  0.00    +0.000 NA
ATOM      9  H   UNL     1      49.397   6.268  17.471  0.00  0.00    +0.000 HD
BRANCH   8  10
ATOM     10  C   UNL     1      51.025   5.706  18.579  0.00  0.00    +0.000 C 
BRANCH  10  11
ATOM     11  C   UNL     1      50.777   4.303  18.012  0.00  0.00    +0.000 A 
ATOM     12  C   UNL     1      49.507   3.924  17.567  0.00  0.00    +0.000 A 
ATOM     13  C   UNL     1      49.309   2.626  17.102  0.00  0.00    +0.000 A 
ATOM     14  C   UNL     1      50.374   1.742  17.081  0.00  0.00    +0.000 A 
ATOM     15  C   UNL     1      51.610   2.198  17.510  0.00  0.00    +0.000 A 
ATOM     16  N   UNL     1      51.838   3.454  17.960  0.00  0.00    +0.000 NA
ENDBRANCH  10  11
BRANCH  10  17
ATOM     17  C   UNL     1      50.739   5.750  20.117  0.00  0.00    +0.000 C 
BRANCH  17  18
ATOM     18  N   UNL     1      51.032   4.526  20.869  0.00  0.00    +0.000 NA
ATOM     19  H   UNL     1      51.852   4.078  20.465  0.00  0.00    +0.000 HD
ATOM     20  H   UNL     1      50.259   3.869  20.764  0.00  0.00    +0.000 HD
ENDBRANCH  17  18
ENDBRANCH  10  17
ENDBRANCH   8  10
ENDBRANCH   7   8
ENDBRANCH   1   7
BRANCH   4  21
ATOM     21  C   UNL     1      48.094   7.700  11.763  0.00  0.00    +0.000 C 
BRANCH  21  22
ATOM     22  N   UNL     1      47.166   6.617  11.563  0.00  0.00    +0.000 N 
ATOM     23  C   UNL     1      45.815   6.865  11.519  0.00  0.00    +0.000 C 
ATOM     24  O   UNL     1      45.372   8.003  11.655  0.00  0.00    +0.000 OA
ATOM     25  H   UNL     1      47.526   5.730  11.220  0.00  0.00    +0.000 HD
BRANCH  23  26
ATOM     26  C   UNL     1      44.924   5.708  11.378  0.00  0.00    +0.000 A 
ATOM     27  C   UNL     1      43.974   5.446  12.358  0.00  0.00    +0.000 A 
ATOM     28  S   UNL     1      43.204   3.935  12.173  0.00  0.00    +0.000 S 
ATOM     29  C   UNL     1      44.077   3.606  10.751  0.00  0.00    +0.000 A 
ATOM     30  N   UNL     1      43.964   2.411  10.113  0.00  0.00    +0.000 NA
ATOM     31  C   UNL     1      44.656   2.318   9.028  0.00  0.00    +0.000 A 
ATOM     32  N   UNL     1      45.422   3.328   8.499  0.00  0.00    +0.000 N 
ATOM     33  C   UNL     1      45.540   4.560   9.091  0.00  0.00    +0.000 A 
ATOM     34  O   UNL     1      46.142   5.481   8.549  0.00  0.00    +0.000 OA
ATOM     35  C   UNL     1      44.866   4.677  10.370  0.00  0.00    +0.000 A 
ATOM     36  H   UNL     1      45.880   3.214   7.607  0.00  0.00    +0.000 HD
ENDBRANCH  23  26
ENDBRANCH  21  22
ENDBRANCH   4  21
TORSDOF 9
ENDMDL
MODEL 8
REMARK VINA RESULT:    -6.697      3.452      8.664
REMARK INTER + INTRA:         -11.031
REMARK INTER:                 -10.033
REMARK INTRA:                  -0.998
REMARK UNBOUND:                -1.007
REMARK  Name = 
REMARK  9 active torsions:
REMARK  status: ('A' for Active; 'I' for Inactive)
REMARK    1  A    between atoms: N_1  and  C_2
REMARK    2  A    between atoms: C_2  and  C_3
REMARK    3  A    between atoms: C_3  and  N_4
REMARK    4  A    between atoms: C_3  and  C_26
REMARK    5  A    between atoms: N_4  and  C_5
REMARK    6  A    between atoms: C_5  and  C_6
REMARK    7  A    between atoms: C_9  and  C_10
REMARK    8  A    between atoms: C_10  and  N_11
REMARK    9  A    between atoms: C_12  and  C_14
REMARK                            x       y       z     vdW  Elec       q    Type
REMARK                         _______ _______ _______ _____ _____    ______ ____
ROOT
ATOM      1  C   UNL     1      49.555   6.634  15.822  0.00  0.00    +0.000 A 
ATOM      2  N   UNL     1      50.012   7.627  15.032  0.00  0.00    +0.000 NA
ATOM      3  C   UNL     1      49.336   7.845  13.889  0.00  0.00    +0.000 A 
ATOM      4  C   UNL     1      48.234   7.117  13.497  0.00  0.00    +0.000 A 
ATOM      5  C   UNL     1      47.878   6.097  14.354  0.00  0.00    +0.000 A 
ATOM      6  N   UNL     1      48.510   5.836  15.516  0.00  0.00    +0.000 NA
ENDROOT
BRANCH   1   7
ATOM      7  C   UNL     1      50.349   6.304  17.075  0.00  0.00    +0.000 C 
BRANCH   7   8
ATOM      8  N   UNL     1      51.225   5.119  16.964  0.00  0.00    +0.000 NA
ATOM      9  H   UNL     1      52.176   5.394  17.216  0.00  0.00    +0.000 HD
BRANCH   8  10
ATOM     10  C   UNL     1      50.809   4.016  17.870  0.00  0.00    +0.000 C 
BRANCH  10  11
ATOM     11  C   UNL     1      51.900   2.941  17.948  0.00  0.00    +0.000 A 
ATOM     12  C   UNL     1      53.175   3.247  18.433  0.00  0.00    +0.000 A 
ATOM     13  C   UNL     1      54.153   2.255  18.445  0.00  0.00    +0.000 A 
ATOM     14  C   UNL     1      53.840   0.986  17.987  0.00  0.00    +0.000 A 
ATOM     15  C   UNL     1      52.547   0.750  17.550  0.00  0.00    +0.000 A 
ATOM     16  N   UNL     1      51.571   1.689  17.532  0.00  0.00    +0.000 NA
ENDBRANCH  10  11
BRANCH  10  17
ATOM     17  C   UNL     1      49.433   3.393  17.459  0.00  0.00    +0.000 C 
BRANCH  17  18
ATOM     18  N   UNL     1      48.255   3.882  18.181  0.00  0.00    +0.000 NA
ATOM     19  H   UNL     1      48.413   3.777  19.181  0.00  0.00    +0.000 HD
ATOM     20  H   UNL     1      47.449   3.303  17.950  0.00  0.00    +0.000 HD
ENDBRANCH  17  18
ENDBRANCH  10  17
ENDBRANCH   8  10
ENDBRANCH   7   8
ENDBRANCH   1   7
BRANCH   4  21
ATOM     21  C   UNL     1      47.496   7.415  12.239  0.00  0.00    +0.000 C 
BRANCH  21  22
ATOM     22  N   UNL     1      46.776   6.274  11.736  0.00  0.00    +0.000 N 
ATOM     23  C   UNL     1      45.410   6.207  11.867  0.00  0.00    +0.000 C 
ATOM     24  O   UNL     1      44.778   7.107  12.417  0.00  0.00    +0.000 OA
ATOM     25  H   UNL     1      47.249   5.653  11.085  0.00  0.00    +0.000 HD
BRANCH  23  26
ATOM     26  C   UNL     1      44.748   4.987  11.391  0.00  0.00    +0.000 A 
ATOM     27  C   UNL     1      43.812   4.351  12.199  0.00  0.00    +0.000 A 
ATOM     28  S   UNL     1      43.335   2.821  11.612  0.00  0.00    +0.000 S 
ATOM     29  C   UNL     1      44.323   2.984  10.236  0.00  0.00    +0.000 A 
ATOM     30  N   UNL     1      44.457   1.971   9.339  0.00  0.00    +0.000 NA
ATOM     31  C   UNL     1      45.208   2.251   8.328  0.00  0.00    +0.000 A 
ATOM     32  N   UNL     1      45.805   3.467   8.109  0.00  0.00    +0.000 N 
ATOM     33  C   UNL     1      45.672   4.528   8.970  0.00  0.00    +0.000 A 
ATOM     34  O   UNL     1      46.125   5.635   8.705  0.00  0.00    +0.000 OA
ATOM     35  C   UNL     1      44.925   4.228  10.178  0.00  0.00    +0.000 A 
ATOM     36  H   UNL     1      46.320   3.643   7.260  0.00  0.00    +0.000 HD
ENDBRANCH  23  26
ENDBRANCH  21  22
ENDBRANCH   4  21
TORSDOF 9
ENDMDL
MODEL 9
REMARK VINA RESULT:    -6.554      3.215      5.461
REMARK INTER + INTRA:         -10.818
REMARK INTER:                  -9.549
REMARK INTRA:                  -1.269
REMARK UNBOUND:                -1.007
REMARK  Name = 
REMARK  9 active torsions:
REMARK  status: ('A' for Active; 'I' for Inactive)
REMARK    1  A    between atoms: N_1  and  C_2
REMARK    2  A    between atoms: C_2  and  C_3
REMARK    3  A    between atoms: C_3  and  N_4
REMARK    4  A    between atoms: C_3  and  C_26
REMARK    5  A    between atoms: N_4  and  C_5
REMARK    6  A    between atoms: C_5  and  C_6
REMARK    7  A    between atoms: C_9  and  C_10
REMARK    8  A    between atoms: C_10  and  N_11
REMARK    9  A    between atoms: C_12  and  C_14
REMARK                            x       y       z     vdW  Elec       q    Type
REMARK                         _______ _______ _______ _____ _____    ______ ____
ROOT
ATOM      1  C   UNL     1      47.141   4.380  14.908  0.00  0.00    +0.000 A 
ATOM      2  N   UNL     1      47.945   5.463  14.924  0.00  0.00    +0.000 NA
ATOM      3  C   UNL     1      48.495   5.785  16.109  0.00  0.00    +0.000 A 
ATOM      4  C   UNL     1      48.277   5.084  17.273  0.00  0.00    +0.000 A 
ATOM      5  C   UNL     1      47.404   4.022  17.157  0.00  0.00    +0.000 A 
ATOM      6  N   UNL     1      46.828   3.646  15.996  0.00  0.00    +0.000 NA
ENDROOT
BRANCH   1   7
ATOM      7  C   UNL     1      46.433   4.043  13.605  0.00  0.00    +0.000 C 
BRANCH   7   8
ATOM      8  N   UNL     1      45.169   4.775  13.376  0.00  0.00    +0.000 NA
ATOM      9  H   UNL     1      45.073   5.489  14.100  0.00  0.00    +0.000 HD
BRANCH   8  10
ATOM     10  C   UNL     1      45.136   5.453  12.054  0.00  0.00    +0.000 C 
BRANCH  10  11
ATOM     11  C   UNL     1      45.874   6.796  12.116  0.00  0.00    +0.000 A 
ATOM     12  C   UNL     1      47.219   6.893  11.747  0.00  0.00    +0.000 A 
ATOM     13  C   UNL     1      47.868   8.121  11.861  0.00  0.00    +0.000 A 
ATOM     14  C   UNL     1      47.166   9.219  12.327  0.00  0.00    +0.000 A 
ATOM     15  C   UNL     1      45.828   9.053  12.645  0.00  0.00    +0.000 A 
ATOM     16  N   UNL     1      45.166   7.877  12.539  0.00  0.00    +0.000 NA
ENDBRANCH  10  11
BRANCH  10  17
ATOM     17  C   UNL     1      43.678   5.637  11.514  0.00  0.00    +0.000 C 
BRANCH  17  18
ATOM     18  N   UNL     1      42.809   4.457  11.571  0.00  0.00    +0.000 NA
ATOM     19  H   UNL     1      42.911   3.929  10.707  0.00  0.00    +0.000 HD
ATOM     20  H   UNL     1      41.835   4.754  11.619  0.00  0.00    +0.000 HD
ENDBRANCH  17  18
ENDBRANCH  10  17
ENDBRANCH   8  10
ENDBRANCH   7   8
ENDBRANCH   1   7
BRANCH   4  21
ATOM     21  C   UNL     1      48.934   5.456  18.557  0.00  0.00    +0.000 C 
BRANCH  21  22
ATOM     22  N   UNL     1      50.012   4.567  18.905  0.00  0.00    +0.000 N 
ATOM     23  C   UNL     1      51.300   4.861  18.527  0.00  0.00    +0.000 C 
ATOM     24  O   UNL     1      51.558   5.875  17.882  0.00  0.00    +0.000 OA
ATOM     25  H   UNL     1      49.847   3.867  19.623  0.00  0.00    +0.000 HD
BRANCH  23  26
ATOM     26  C   UNL     1      52.339   3.879  18.858  0.00  0.00    +0.000 A 
ATOM     27  C   UNL     1      53.346   4.217  19.753  0.00  0.00    +0.000 A 
ATOM     28  S   UNL     1      54.605   3.067  19.827  0.00  0.00    +0.000 S 
ATOM     29  C   UNL     1      53.818   2.058  18.706  0.00  0.00    +0.000 A 
ATOM     30  N   UNL     1      54.405   0.921  18.246  0.00  0.00    +0.000 NA
ATOM     31  C   UNL     1      53.676   0.238  17.430  0.00  0.00    +0.000 A 
ATOM     32  N   UNL     1      52.395   0.567  17.061  0.00  0.00    +0.000 N 
ATOM     33  C   UNL     1      51.751   1.687  17.524  0.00  0.00    +0.000 A 
ATOM     34  O   UNL     1      50.573   1.907  17.267  0.00  0.00    +0.000 OA
ATOM     35  C   UNL     1      52.570   2.545  18.362  0.00  0.00    +0.000 A 
ATOM     36  H   UNL     1      51.852  -0.050  16.476  0.00  0.00    +0.000 HD
ENDBRANCH  23  26
ENDBRANCH  21  22
ENDBRANCH   4  21
TORSDOF 9
ENDMDL
