MODEL 1
REMARK VINA RESULT:    -6.206      0.000      0.000
REMARK INTER + INTRA:          -9.367
REMARK INTER:                  -8.383
REMARK INTRA:                  -0.983
REMARK UNBOUND:                -0.983
REMARK  Name = 
REMARK  7 active torsions:
REMARK  status: ('A' for Active; 'I' for Inactive)
REMARK    1  A    between atoms: C_1  and  O_2
REMARK    2  A    between atoms: O_2  and  C_3
REMARK    3  A    between atoms: C_10  and  C_11
REMARK    4  A    between atoms: N_13  and  C_14
REMARK    5  A    between atoms: C_14  and  C_15
REMARK    6  A    between atoms: C_18  and  C_19
REMARK    7  A    between atoms: C_20  and  C_21
REMARK                            x       y       z     vdW  Elec       q    Type
REMARK                         _______ _______ _______ _____ _____    ______ ____
ROOT
ATOM      1  C   UNL     1      48.993   8.048  15.811  0.00  0.00    +0.000 C 
ENDROOT
BRANCH   1   2
ATOM      2  C   UNL     1      49.746   6.898  16.432  0.00  0.00    +0.000 A 
ATOM      3  C   UNL     1      51.133   6.787  16.271  0.00  0.00    +0.000 A 
ATOM      4  C   UNL     1      51.834   5.704  16.817  0.00  0.00    +0.000 A 
ATOM      5  C   UNL     1      51.169   4.705  17.538  0.00  0.00    +0.000 A 
ATOM      6  C   UNL     1      49.779   4.807  17.680  0.00  0.00    +0.000 A 
ATOM      7  C   UNL     1      49.074   5.890  17.136  0.00  0.00    +0.000 A 
BRANCH   5   8
ATOM      8  C   UNL     1      51.859   3.513  18.066  0.00  0.00    +0.000 C 
ATOM      9  C   UNL     1      53.184   3.300  17.995  0.00  0.00    +0.000 C 
BRANCH   9  10
ATOM     10  C   UNL     1      53.873   2.088  18.476  0.00  0.00    +0.000 A 
ATOM     11  C   UNL     1      54.780   2.110  19.548  0.00  0.00    +0.000 A 
ATOM     12  C   UNL     1      55.355   0.927  20.022  0.00  0.00    +0.000 A 
ATOM     13  C   UNL     1      55.017  -0.284  19.433  0.00  0.00    +0.000 A 
ATOM     14  F   UNL     1      55.556  -1.419  19.898  0.00  0.00    +0.000 F 
ATOM     15  C   UNL     1      54.120  -0.335  18.375  0.00  0.00    +0.000 A 
ATOM     16  C   UNL     1      53.547   0.850  17.899  0.00  0.00    +0.000 A 
ENDBRANCH   9  10
ENDBRANCH   5   8
ENDBRANCH   1   2
BRANCH   1  19
ATOM     17  C   UNL     1      48.066   7.034  13.762  0.00  0.00    +0.000 C 
ATOM     18  O   UNL     1      49.189   6.906  13.277  0.00  0.00    +0.000 OA
ATOM     19  N   UNL     1      47.891   7.578  15.005  0.00  0.00    +0.000 N 
ATOM     20  H   UNL     1      46.962   7.670  15.392  0.00  0.00    +0.000 HD
BRANCH  17  28
ATOM     21  C   UNL     1      46.548   3.996  13.205  0.00  0.00    +0.000 A 
ATOM     22  N   UNL     1      45.726   2.971  12.908  0.00  0.00    +0.000 NA
ATOM     23  C   UNL     1      44.614   3.239  12.217  0.00  0.00    +0.000 A 
ATOM     24  N   UNL     1      44.222   4.426  11.762  0.00  0.00    +0.000 NA
ATOM     25  C   UNL     1      45.063   5.420  12.091  0.00  0.00    +0.000 A 
ATOM     26  S   UNL     1      44.730   7.005  11.583  0.00  0.00    +0.000 S 
ATOM     27  C   UNL     1      46.123   7.599  12.356  0.00  0.00    +0.000 A 
ATOM     28  C   UNL     1      46.859   6.624  13.020  0.00  0.00    +0.000 A 
ATOM     29  C   UNL     1      46.239   5.315  12.828  0.00  0.00    +0.000 A 
BRANCH  21  31
ATOM     30  C   UNL     1      47.421   3.401  15.293  0.00  0.00    +0.000 C 
ATOM     31  O   UNL     1      47.689   3.722  13.931  0.00  0.00    +0.000 OA
ENDBRANCH  21  31
ENDBRANCH  17  28
ENDBRANCH   1  19
TORSDOF 6
ENDMDL
MODEL 2
REMARK VINA RESULT:    -5.938      1.017      1.802
REMARK INTER + INTRA:          -9.004
REMARK INTER:                  -7.909
REMARK INTRA:                  -1.095
REMARK UNBOUND:                -0.983
REMARK  Name = 
REMARK  7 active torsions:
REMARK  status: ('A' for Active; 'I' for Inactive)
REMARK    1  A    between atoms: C_1  and  O_2
REMARK    2  A    between atoms: O_2  and  C_3
REMARK    3  A    between atoms: C_10  and  C_11
REMARK    4  A    between atoms: N_13  and  C_14
REMARK    5  A    between atoms: C_14  and  C_15
REMARK    6  A    between atoms: C_18  and  C_19
REMARK    7  A    between atoms: C_20  and  C_21
REMARK                            x       y       z     vdW  Elec       q    Type
REMARK                         _______ _______ _______ _____ _____    ______ ____
ROOT
ATOM      1  C   UNL     1      48.260   8.942  15.065  0.00  0.00    +0.000 C 
ENDROOT
BRANCH   1   2
ATOM      2  C   UNL     1      49.217   7.959  15.691  0.00  0.00    +0.000 A 
ATOM      3  C   UNL     1      48.812   7.160  16.768  0.00  0.00    +0.000 A 
ATOM      4  C   UNL     1      49.705   6.269  17.376  0.00  0.00    +0.000 A 
ATOM      5  C   UNL     1      51.026   6.152  16.925  0.00  0.00    +0.000 A 
ATOM      6  C   UNL     1      51.435   6.967  15.861  0.00  0.00    +0.000 A 
ATOM      7  C   UNL     1      50.543   7.860  15.249  0.00  0.00    +0.000 A 
BRANCH   5   8
ATOM      8  C   UNL     1      52.015   5.279  17.583  0.00  0.00    +0.000 C 
ATOM      9  C   UNL     1      51.916   3.942  17.678  0.00  0.00    +0.000 C 
BRANCH   9  10
ATOM     10  C   UNL     1      52.877   3.070  18.378  0.00  0.00    +0.000 A 
ATOM     11  C   UNL     1      53.285   1.830  17.864  0.00  0.00    +0.000 A 
ATOM     12  C   UNL     1      54.255   1.067  18.522  0.00  0.00    +0.000 A 
ATOM     13  C   UNL     1      54.828   1.548  19.692  0.00  0.00    +0.000 A 
ATOM     14  F   UNL     1      55.769   0.823  20.313  0.00  0.00    +0.000 F 
ATOM     15  C   UNL     1      54.447   2.773  20.220  0.00  0.00    +0.000 A 
ATOM     16  C   UNL     1      53.474   3.534  19.562  0.00  0.00    +0.000 A 
ENDBRANCH   9  10
ENDBRANCH   5   8
ENDBRANCH   1   2
BRANCH   1  19
ATOM     17  C   UNL     1      47.267   7.702  13.178  0.00  0.00    +0.000 C 
ATOM     18  O   UNL     1      48.326   7.738  12.553  0.00  0.00    +0.000 OA
ATOM     19  N   UNL     1      47.160   8.264  14.421  0.00  0.00    +0.000 N 
ATOM     20  H   UNL     1      46.284   8.220  14.924  0.00  0.00    +0.000 HD
BRANCH  17  28
ATOM     21  C   UNL     1      46.108   4.462  13.103  0.00  0.00    +0.000 A 
ATOM     22  N   UNL     1      45.402   3.320  13.001  0.00  0.00    +0.000 NA
ATOM     23  C   UNL     1      44.209   3.372  12.401  0.00  0.00    +0.000 A 
ATOM     24  N   UNL     1      43.630   4.442  11.864  0.00  0.00    +0.000 NA
ATOM     25  C   UNL     1      44.362   5.561  11.999  0.00  0.00    +0.000 A 
ATOM     26  S   UNL     1      43.786   7.025  11.362  0.00  0.00    +0.000 S 
ATOM     27  C   UNL     1      45.153   7.864  11.923  0.00  0.00    +0.000 A 
ATOM     28  C   UNL     1      46.063   7.068  12.609  0.00  0.00    +0.000 A 
ATOM     29  C   UNL     1      45.601   5.682  12.621  0.00  0.00    +0.000 A 
BRANCH  21  31
ATOM     30  C   UNL     1      47.228   4.374  15.156  0.00  0.00    +0.000 C 
ATOM     31  O   UNL     1      47.333   4.412  13.736  0.00  0.00    +0.000 OA
ENDBRANCH  21  31
ENDBRANCH  17  28
ENDBRANCH   1  19
TORSDOF 6
ENDMDL
MODEL 3
REMARK VINA RESULT:    -5.708      5.330      9.713
REMARK INTER + INTRA:          -8.693
REMARK INTER:                  -7.456
REMARK INTRA:                  -1.237
REMARK UNBOUND:                -0.983
REMARK  Name = 
REMARK  7 active torsions:
REMARK  status: ('A' for Active; 'I' for Inactive)
REMARK    1  A    between atoms: C_1  and  O_2
REMARK    2  A    between atoms: O_2  and  C_3
REMARK    3  A    between atoms: C_10  and  C_11
REMARK    4  A    between atoms: N_13  and  C_14
REMARK    5  A    between atoms: C_14  and  C_15
REMARK    6  A    between atoms: C_18  and  C_19
REMARK    7  A    between atoms: C_20  and  C_21
REMARK                            x       y       z     vdW  Elec       q    Type
REMARK                         _______ _______ _______ _____ _____    ______ ____
ROOT
ATOM      1  C   UNL     1      48.833   5.712  19.549  0.00  0.00    +0.000 C 
ENDROOT
BRANCH   1   2
ATOM      2  C   UNL     1      48.400   5.334  18.155  0.00  0.00    +0.000 A 
ATOM      3  C   UNL     1      48.724   6.150  17.064  0.00  0.00    +0.000 A 
ATOM      4  C   UNL     1      48.296   5.823  15.771  0.00  0.00    +0.000 A 
ATOM      5  C   UNL     1      47.534   4.672  15.534  0.00  0.00    +0.000 A 
ATOM      6  C   UNL     1      47.194   3.867  16.629  0.00  0.00    +0.000 A 
ATOM      7  C   UNL     1      47.622   4.192  17.925  0.00  0.00    +0.000 A 
BRANCH   5   8
ATOM      8  C   UNL     1      47.005   4.331  14.200  0.00  0.00    +0.000 C 
ATOM      9  C   UNL     1      46.220   5.131  13.458  0.00  0.00    +0.000 C 
BRANCH   9  10
ATOM     10  C   UNL     1      45.648   4.775  12.147  0.00  0.00    +0.000 A 
ATOM     11  C   UNL     1      45.796   5.587  11.012  0.00  0.00    +0.000 A 
ATOM     12  C   UNL     1      45.302   5.177   9.770  0.00  0.00    +0.000 A 
ATOM     13  C   UNL     1      44.667   3.948   9.656  0.00  0.00    +0.000 A 
ATOM     14  F   UNL     1      44.208   3.549   8.462  0.00  0.00    +0.000 F 
ATOM     15  C   UNL     1      44.511   3.122  10.761  0.00  0.00    +0.000 A 
ATOM     16  C   UNL     1      45.003   3.535  12.004  0.00  0.00    +0.000 A 
ENDBRANCH   9  10
ENDBRANCH   5   8
ENDBRANCH   1   2
BRANCH   1  19
ATOM     17  C   UNL     1      51.263   6.020  19.842  0.00  0.00    +0.000 C 
ATOM     18  O   UNL     1      51.173   7.224  19.609  0.00  0.00    +0.000 OA
ATOM     19  N   UNL     1      50.157   5.214  19.839  0.00  0.00    +0.000 N 
ATOM     20  H   UNL     1      50.248   4.228  20.040  0.00  0.00    +0.000 HD
BRANCH  17  28
ATOM     21  C   UNL     1      52.698   3.038  18.894  0.00  0.00    +0.000 A 
ATOM     22  N   UNL     1      53.507   1.999  18.612  0.00  0.00    +0.000 NA
ATOM     23  C   UNL     1      54.744   2.012  19.117  0.00  0.00    +0.000 A 
ATOM     24  N   UNL     1      55.279   2.945  19.900  0.00  0.00    +0.000 NA
ATOM     25  C   UNL     1      54.444   3.968  20.146  0.00  0.00    +0.000 A 
ATOM     26  S   UNL     1      54.951   5.248  21.139  0.00  0.00    +0.000 S 
ATOM     27  C   UNL     1      53.469   6.055  20.941  0.00  0.00    +0.000 A 
ATOM     28  C   UNL     1      52.567   5.388  20.118  0.00  0.00    +0.000 A 
ATOM     29  C   UNL     1      53.144   4.122  19.673  0.00  0.00    +0.000 A 
BRANCH  21  31
ATOM     30  C   UNL     1      51.242   2.032  17.364  0.00  0.00    +0.000 C 
ATOM     31  O   UNL     1      51.426   3.033  18.361  0.00  0.00    +0.000 OA
ENDBRANCH  21  31
ENDBRANCH  17  28
ENDBRANCH   1  19
TORSDOF 6
ENDMDL
MODEL 4
REMARK VINA RESULT:    -5.601      5.716      9.582
REMARK INTER + INTRA:          -8.549
REMARK INTER:                  -7.123
REMARK INTRA:                  -1.426
REMARK UNBOUND:                -0.983
REMARK  Name = 
REMARK  7 active torsions:
REMARK  status: ('A' for Active; 'I' for Inactive)
REMARK    1  A    between atoms: C_1  and  O_2
REMARK    2  A    between atoms: O_2  and  C_3
REMARK    3  A    between atoms: C_10  and  C_11
REMARK    4  A    between atoms: N_13  and  C_14
REMARK    5  A    between atoms: C_14  and  C_15
REMARK    6  A    between atoms: C_18  and  C_19
REMARK    7  A    between atoms: C_20  and  C_21
REMARK                            x       y       z     vdW  Elec       q    Type
REMARK                         _______ _______ _______ _____ _____    ______ ____
ROOT
ATOM      1  C   UNL     1      49.368   4.374  19.919  0.00  0.00    +0.000 C 
ENDROOT
BRANCH   1   2
ATOM      2  C   UNL     1      48.712   4.222  18.569  0.00  0.00    +0.000 A 
ATOM      3  C   UNL     1      48.730   2.989  17.906  0.00  0.00    +0.000 A 
ATOM      4  C   UNL     1      48.152   2.847  16.638  0.00  0.00    +0.000 A 
ATOM      5  C   UNL     1      47.541   3.934  16.000  0.00  0.00    +0.000 A 
ATOM      6  C   UNL     1      47.542   5.172  16.657  0.00  0.00    +0.000 A 
ATOM      7  C   UNL     1      48.118   5.316  17.927  0.00  0.00    +0.000 A 
BRANCH   5   8
ATOM      8  C   UNL     1      46.985   3.845  14.637  0.00  0.00    +0.000 C 
ATOM      9  C   UNL     1      46.495   4.883  13.939  0.00  0.00    +0.000 C 
BRANCH   9  10
ATOM     10  C   UNL     1      45.891   4.791  12.596  0.00  0.00    +0.000 A 
ATOM     11  C   UNL     1      45.985   5.827  11.653  0.00  0.00    +0.000 A 
ATOM     12  C   UNL     1      45.463   5.669  10.365  0.00  0.00    +0.000 A 
ATOM     13  C   UNL     1      44.857   4.472  10.012  0.00  0.00    +0.000 A 
ATOM     14  F   UNL     1      44.372   4.317   8.772  0.00  0.00    +0.000 F 
ATOM     15  C   UNL     1      44.756   3.430  10.923  0.00  0.00    +0.000 A 
ATOM     16  C   UNL     1      45.275   3.589  12.212  0.00  0.00    +0.000 A 
ENDBRANCH   9  10
ENDBRANCH   5   8
ENDBRANCH   1   2
BRANCH   1  19
ATOM     17  C   UNL     1      51.192   6.028  20.060  0.00  0.00    +0.000 C 
ATOM     18  O   UNL     1      50.417   6.900  20.448  0.00  0.00    +0.000 OA
ATOM     19  N   UNL     1      50.753   4.761  19.788  0.00  0.00    +0.000 N 
ATOM     20  H   UNL     1      51.404   4.054  19.476  0.00  0.00    +0.000 HD
BRANCH  17  28
ATOM     21  C   UNL     1      53.259   5.908  17.310  0.00  0.00    +0.000 A 
ATOM     22  N   UNL     1      54.246   6.022  16.400  0.00  0.00    +0.000 NA
ATOM     23  C   UNL     1      55.436   6.463  16.818  0.00  0.00    +0.000 A 
ATOM     24  N   UNL     1      55.775   6.796  18.061  0.00  0.00    +0.000 NA
ATOM     25  C   UNL     1      54.759   6.680  18.933  0.00  0.00    +0.000 A 
ATOM     26  S   UNL     1      55.010   7.049  20.570  0.00  0.00    +0.000 S 
ATOM     27  C   UNL     1      53.390   6.702  20.948  0.00  0.00    +0.000 A 
ATOM     28  C   UNL     1      52.625   6.313  19.854  0.00  0.00    +0.000 A 
ATOM     29  C   UNL     1      53.459   6.268  18.655  0.00  0.00    +0.000 A 
BRANCH  21  31
ATOM     30  C   UNL     1      51.219   6.508  16.334  0.00  0.00    +0.000 C 
ATOM     31  O   UNL     1      52.026   5.467  16.877  0.00  0.00    +0.000 OA
ENDBRANCH  21  31
ENDBRANCH  17  28
ENDBRANCH   1  19
TORSDOF 6
ENDMDL
MODEL 5
REMARK VINA RESULT:    -5.505      2.472      3.517
REMARK INTER + INTRA:          -8.419
REMARK INTER:                  -7.448
REMARK INTRA:                  -0.971
REMARK UNBOUND:                -0.983
REMARK  Name = 
REMARK  7 active torsions:
REMARK  status: ('A' for Active; 'I' for Inactive)
REMARK    1  A    between atoms: C_1  and  O_2
REMARK    2  A    between atoms: O_2  and  C_3
REMARK    3  A    between atoms: C_10  and  C_11
REMARK    4  A    between atoms: N_13  and  C_14
REMARK    5  A    between atoms: C_14  and  C_15
REMARK    6  A    between atoms: C_18  and  C_19
REMARK    7  A    between atoms: C_20  and  C_21
REMARK                            x       y       z     vdW  Elec       q    Type
REMARK                         _______ _______ _______ _____ _____    ______ ____
ROOT
ATOM      1  C   UNL     1      47.899   8.366  12.119  0.00  0.00    +0.000 C 
ENDROOT
BRANCH   1   2
ATOM      2  C   UNL     1      48.767   8.000  13.297  0.00  0.00    +0.000 A 
ATOM      3  C   UNL     1      50.131   8.317  13.301  0.00  0.00    +0.000 A 
ATOM      4  C   UNL     1      50.950   7.952  14.377  0.00  0.00    +0.000 A 
ATOM      5  C   UNL     1      50.428   7.261  15.477  0.00  0.00    +0.000 A 
ATOM      6  C   UNL     1      49.067   6.927  15.463  0.00  0.00    +0.000 A 
ATOM      7  C   UNL     1      48.244   7.293  14.388  0.00  0.00    +0.000 A 
BRANCH   5   8
ATOM      8  C   UNL     1      51.269   6.796  16.596  0.00  0.00    +0.000 C 
ATOM      9  C   UNL     1      51.492   5.508  16.905  0.00  0.00    +0.000 C 
BRANCH   9  10
ATOM     10  C   UNL     1      52.291   5.038  18.051  0.00  0.00    +0.000 A 
ATOM     11  C   UNL     1      52.324   3.692  18.449  0.00  0.00    +0.000 A 
ATOM     12  C   UNL     1      53.153   3.276  19.495  0.00  0.00    +0.000 A 
ATOM     13  C   UNL     1      53.961   4.202  20.140  0.00  0.00    +0.000 A 
ATOM     14  F   UNL     1      54.767   3.799  21.132  0.00  0.00    +0.000 F 
ATOM     15  C   UNL     1      53.952   5.538  19.764  0.00  0.00    +0.000 A 
ATOM     16  C   UNL     1      53.119   5.954  18.720  0.00  0.00    +0.000 A 
ENDBRANCH   9  10
ENDBRANCH   5   8
ENDBRANCH   1   2
BRANCH   1  19
ATOM     17  C   UNL     1      45.974   6.976  11.452  0.00  0.00    +0.000 C 
ATOM     18  O   UNL     1      45.180   7.793  11.914  0.00  0.00    +0.000 OA
ATOM     19  N   UNL     1      47.324   7.191  11.507  0.00  0.00    +0.000 N 
ATOM     20  H   UNL     1      47.963   6.512  11.116  0.00  0.00    +0.000 HD
BRANCH  17  28
ATOM     21  C   UNL     1      44.434   4.156  12.686  0.00  0.00    +0.000 A 
ATOM     22  N   UNL     1      43.770   3.001  12.888  0.00  0.00    +0.000 NA
ATOM     23  C   UNL     1      43.527   2.225  11.829  0.00  0.00    +0.000 A 
ATOM     24  N   UNL     1      43.886   2.454  10.569  0.00  0.00    +0.000 NA
ATOM     25  C   UNL     1      44.533   3.621  10.410  0.00  0.00    +0.000 A 
ATOM     26  S   UNL     1      45.080   4.075   8.869  0.00  0.00    +0.000 S 
ATOM     27  C   UNL     1      45.706   5.538   9.468  0.00  0.00    +0.000 A 
ATOM     28  C   UNL     1      45.508   5.720  10.833  0.00  0.00    +0.000 A 
ATOM     29  C   UNL     1      44.836   4.553  11.398  0.00  0.00    +0.000 A 
BRANCH  21  31
ATOM     30  C   UNL     1      45.962   4.767  14.348  0.00  0.00    +0.000 C 
ATOM     31  O   UNL     1      44.673   4.966  13.777  0.00  0.00    +0.000 OA
ENDBRANCH  21  31
ENDBRANCH  17  28
ENDBRANCH   1  19
TORSDOF 6
ENDMDL
MODEL 6
REMARK VINA RESULT:    -5.480      5.838      8.191
REMARK INTER + INTRA:          -8.386
REMARK INTER:                  -7.128
REMARK INTRA:                  -1.257
REMARK UNBOUND:                -0.983
REMARK  Name = 
REMARK  7 active torsions:
REMARK  status: ('A' for Active; 'I' for Inactive)
REMARK    1  A    between atoms: C_1  and  O_2
REMARK    2  A    between atoms: O_2  and  C_3
REMARK    3  A    between atoms: C_10  and  C_11
REMARK    4  A    between atoms: N_13  and  C_14
REMARK    5  A    between atoms: C_14  and  C_15
REMARK    6  A    between atoms: C_18  and  C_19
REMARK    7  A    between atoms: C_20  and  C_21
REMARK                            x       y       z     vdW  Elec       q    Type
REMARK                         _______ _______ _______ _____ _____    ______ ____
ROOT
ATOM      1  C   UNL     1      48.282   9.250  14.521  0.00  0.00    +0.000 C 
ENDROOT
BRANCH   1   2
ATOM      2  C   UNL     1      49.294   8.909  13.456  0.00  0.00    +0.000 A 
ATOM      3  C   UNL     1      50.551   9.526  13.447  0.00  0.00    +0.000 A 
ATOM      4  C   UNL     1      51.484   9.240  12.442  0.00  0.00    +0.000 A 
ATOM      5  C   UNL     1      51.186   8.331  11.420  0.00  0.00    +0.000 A 
ATOM      6  C   UNL     1      49.920   7.730  11.419  0.00  0.00    +0.000 A 
ATOM      7  C   UNL     1      48.984   8.013  12.425  0.00  0.00    +0.000 A 
BRANCH   5   8
ATOM      8  C   UNL     1      52.112   8.056  10.306  0.00  0.00    +0.000 C 
ATOM      9  C   UNL     1      52.047   6.982   9.501  0.00  0.00    +0.000 C 
BRANCH   9  10
ATOM     10  C   UNL     1      53.000   6.677   8.418  0.00  0.00    +0.000 A 
ATOM     11  C   UNL     1      53.879   5.583   8.471  0.00  0.00    +0.000 A 
ATOM     12  C   UNL     1      54.715   5.286   7.390  0.00  0.00    +0.000 A 
ATOM     13  C   UNL     1      54.667   6.073   6.248  0.00  0.00    +0.000 A 
ATOM     14  F   UNL     1      55.456   5.777   5.207  0.00  0.00    +0.000 F 
ATOM     15  C   UNL     1      53.804   7.157   6.167  0.00  0.00    +0.000 A 
ATOM     16  C   UNL     1      52.970   7.456   7.251  0.00  0.00    +0.000 A 
ENDBRANCH   9  10
ENDBRANCH   5   8
ENDBRANCH   1   2
BRANCH   1  19
ATOM     17  C   UNL     1      48.907   8.005  16.557  0.00  0.00    +0.000 C 
ATOM     18  O   UNL     1      49.800   8.809  16.816  0.00  0.00    +0.000 OA
ATOM     19  N   UNL     1      48.114   8.159  15.452  0.00  0.00    +0.000 N 
ATOM     20  H   UNL     1      47.380   7.492  15.257  0.00  0.00    +0.000 HD
BRANCH  17  28
ATOM     21  C   UNL     1      47.951   4.761  15.913  0.00  0.00    +0.000 A 
ATOM     22  N   UNL     1      47.673   3.443  15.933  0.00  0.00    +0.000 NA
ATOM     23  C   UNL     1      47.686   2.818  17.113  0.00  0.00    +0.000 A 
ATOM     24  N   UNL     1      47.931   3.359  18.303  0.00  0.00    +0.000 NA
ATOM     25  C   UNL     1      48.216   4.670  18.237  0.00  0.00    +0.000 A 
ATOM     26  S   UNL     1      48.543   5.533  19.661  0.00  0.00    +0.000 S 
ATOM     27  C   UNL     1      48.803   6.969  18.791  0.00  0.00    +0.000 A 
ATOM     28  C   UNL     1      48.661   6.829  17.414  0.00  0.00    +0.000 A 
ATOM     29  C   UNL     1      48.275   5.458  17.091  0.00  0.00    +0.000 A 
BRANCH  21  31
ATOM     30  C   UNL     1      46.858   5.029  13.862  0.00  0.00    +0.000 C 
ATOM     31  O   UNL     1      47.953   5.405  14.693  0.00  0.00    +0.000 OA
ENDBRANCH  21  31
ENDBRANCH  17  28
ENDBRANCH   1  19
TORSDOF 6
ENDMDL
MODEL 7
REMARK VINA RESULT:    -5.473      2.156      3.146
REMARK INTER + INTRA:          -8.376
REMARK INTER:                  -7.288
REMARK INTRA:                  -1.088
REMARK UNBOUND:                -0.983
REMARK  Name = 
REMARK  7 active torsions:
REMARK  status: ('A' for Active; 'I' for Inactive)
REMARK    1  A    between atoms: C_1  and  O_2
REMARK    2  A    between atoms: O_2  and  C_3
REMARK    3  A    between atoms: C_10  and  C_11
REMARK    4  A    between atoms: N_13  and  C_14
REMARK    5  A    between atoms: C_14  and  C_15
REMARK    6  A    between atoms: C_18  and  C_19
REMARK    7  A    between atoms: C_20  and  C_21
REMARK                            x       y       z     vdW  Elec       q    Type
REMARK                         _______ _______ _______ _____ _____    ______ ____
ROOT
ATOM      1  C   UNL     1      49.974   6.130  17.532  0.00  0.00    +0.000 C 
ENDROOT
BRANCH   1   2
ATOM      2  C   UNL     1      50.597   4.757  17.559  0.00  0.00    +0.000 A 
ATOM      3  C   UNL     1      49.811   3.616  17.356  0.00  0.00    +0.000 A 
ATOM      4  C   UNL     1      50.376   2.335  17.412  0.00  0.00    +0.000 A 
ATOM      5  C   UNL     1      51.741   2.162  17.672  0.00  0.00    +0.000 A 
ATOM      6  C   UNL     1      52.523   3.303  17.894  0.00  0.00    +0.000 A 
ATOM      7  C   UNL     1      51.960   4.587  17.837  0.00  0.00    +0.000 A 
BRANCH   5   8
ATOM      8  C   UNL     1      52.360   0.830  17.810  0.00  0.00    +0.000 C 
ATOM      9  C   UNL     1      53.627   0.534  17.474  0.00  0.00    +0.000 C 
BRANCH   9  10
ATOM     10  C   UNL     1      54.235  -0.806  17.563  0.00  0.00    +0.000 A 
ATOM     11  C   UNL     1      54.150  -1.600  18.717  0.00  0.00    +0.000 A 
ATOM     12  C   UNL     1      54.676  -2.895  18.734  0.00  0.00    +0.000 A 
ATOM     13  C   UNL     1      55.279  -3.406  17.593  0.00  0.00    +0.000 A 
ATOM     14  F   UNL     1      55.768  -4.654  17.605  0.00  0.00    +0.000 F 
ATOM     15  C   UNL     1      55.372  -2.645  16.436  0.00  0.00    +0.000 A 
ATOM     16  C   UNL     1      54.848  -1.348  16.421  0.00  0.00    +0.000 A 
ENDBRANCH   9  10
ENDBRANCH   5   8
ENDBRANCH   1   2
BRANCH   1  19
ATOM     17  C   UNL     1      50.135   7.081  15.262  0.00  0.00    +0.000 C 
ATOM     18  O   UNL     1      51.298   7.431  15.453  0.00  0.00    +0.000 OA
ATOM     19  N   UNL     1      49.422   6.430  16.232  0.00  0.00    +0.000 N 
ATOM     20  H   UNL     1      48.470   6.144  16.055  0.00  0.00    +0.000 HD
BRANCH  17  28
ATOM     21  C   UNL     1      47.413   5.693  13.677  0.00  0.00    +0.000 A 
ATOM     22  N   UNL     1      46.356   5.394  12.898  0.00  0.00    +0.000 NA
ATOM     23  C   UNL     1      46.165   6.123  11.794  0.00  0.00    +0.000 A 
ATOM     24  N   UNL     1      46.923   7.122  11.354  0.00  0.00    +0.000 NA
ATOM     25  C   UNL     1      47.958   7.395  12.166  0.00  0.00    +0.000 A 
ATOM     26  S   UNL     1      49.044   8.634  11.757  0.00  0.00    +0.000 S 
ATOM     27  C   UNL     1      49.950   8.375  13.172  0.00  0.00    +0.000 A 
ATOM     28  C   UNL     1      49.451   7.363  13.985  0.00  0.00    +0.000 A 
ATOM     29  C   UNL     1      48.278   6.756  13.361  0.00  0.00    +0.000 A 
BRANCH  21  31
ATOM     30  C   UNL     1      47.219   3.586  14.677  0.00  0.00    +0.000 C 
ATOM     31  O   UNL     1      47.603   4.950  14.824  0.00  0.00    +0.000 OA
ENDBRANCH  21  31
ENDBRANCH  17  28
ENDBRANCH   1  19
TORSDOF 6
ENDMDL
MODEL 8
REMARK VINA RESULT:    -5.266      5.758      9.467
REMARK INTER + INTRA:          -8.096
REMARK INTER:                  -6.817
REMARK INTRA:                  -1.279
REMARK UNBOUND:                -0.983
REMARK  Name = 
REMARK  7 active torsions:
REMARK  status: ('A' for Active; 'I' for Inactive)
REMARK    1  A    between atoms: C_1  and  O_2
REMARK    2  A    between atoms: O_2  and  C_3
REMARK    3  A    between atoms: C_10  and  C_11
REMARK    4  A    between atoms: N_13  and  C_14
REMARK    5  A    between atoms: C_14  and  C_15
REMARK    6  A    between atoms: C_18  and  C_19
REMARK    7  A    between atoms: C_20  and  C_21
REMARK                            x       y       z     vdW  Elec       q    Type
REMARK                         _______ _______ _______ _____ _____    ______ ____
ROOT
ATOM      1  C   UNL     1      49.183  10.936  14.935  0.00  0.00    +0.000 C 
ENDROOT
BRANCH   1   2
ATOM      2  C   UNL     1      48.723   9.808  14.046  0.00  0.00    +0.000 A 
ATOM      3  C   UNL     1      49.210   9.690  12.738  0.00  0.00    +0.000 A 
ATOM      4  C   UNL     1      48.763   8.665  11.895  0.00  0.00    +0.000 A 
ATOM      5  C   UNL     1      47.818   7.730  12.337  0.00  0.00    +0.000 A 
ATOM      6  C   UNL     1      47.316   7.861  13.638  0.00  0.00    +0.000 A 
ATOM      7  C   UNL     1      47.764   8.886  14.485  0.00  0.00    +0.000 A 
BRANCH   5   8
ATOM      8  C   UNL     1      47.269   6.680  11.458  0.00  0.00    +0.000 C 
ATOM      9  C   UNL     1      45.996   6.251  11.479  0.00  0.00    +0.000 C 
BRANCH   9  10
ATOM     10  C   UNL     1      45.455   5.166  10.638  0.00  0.00    +0.000 A 
ATOM     11  C   UNL     1      45.637   5.127   9.247  0.00  0.00    +0.000 A 
ATOM     12  C   UNL     1      45.172   4.042   8.496  0.00  0.00    +0.000 A 
ATOM     13  C   UNL     1      44.534   2.988   9.136  0.00  0.00    +0.000 A 
ATOM     14  F   UNL     1      44.103   1.942   8.417  0.00  0.00    +0.000 F 
ATOM     15  C   UNL     1      44.345   2.999  10.511  0.00  0.00    +0.000 A 
ATOM     16  C   UNL     1      44.808   4.087  11.261  0.00  0.00    +0.000 A 
ENDBRANCH   9  10
ENDBRANCH   5   8
ENDBRANCH   1   2
BRANCH   1  19
ATOM     17  C   UNL     1      49.010  10.613  17.374  0.00  0.00    +0.000 C 
ATOM     18  O   UNL     1      47.927  11.195  17.409  0.00  0.00    +0.000 OA
ATOM     19  N   UNL     1      49.683  10.440  16.195  0.00  0.00    +0.000 N 
ATOM     20  H   UNL     1      50.568   9.954  16.183  0.00  0.00    +0.000 HD
BRANCH  17  28
ATOM     21  C   UNL     1      50.088   7.491  18.341  0.00  0.00    +0.000 A 
ATOM     22  N   UNL     1      50.654   6.417  18.926  0.00  0.00    +0.000 NA
ATOM     23  C   UNL     1      51.208   6.579  20.131  0.00  0.00    +0.000 A 
ATOM     24  N   UNL     1      51.254   7.699  20.847  0.00  0.00    +0.000 NA
ATOM     25  C   UNL     1      50.690   8.747  20.222  0.00  0.00    +0.000 A 
ATOM     26  S   UNL     1      50.644  10.259  20.991  0.00  0.00    +0.000 S 
ATOM     27  C   UNL     1      49.869  10.970  19.656  0.00  0.00    +0.000 A 
ATOM     28  C   UNL     1      49.640  10.092  18.602  0.00  0.00    +0.000 A 
ATOM     29  C   UNL     1      50.102   8.754  18.961  0.00  0.00    +0.000 A 
BRANCH  21  31
ATOM     30  C   UNL     1      48.696   6.175  16.997  0.00  0.00    +0.000 C 
ATOM     31  O   UNL     1      49.528   7.328  17.091  0.00  0.00    +0.000 OA
ENDBRANCH  21  31
ENDBRANCH  17  28
ENDBRANCH   1  19
TORSDOF 6
ENDMDL
MODEL 9
REMARK VINA RESULT:    -5.055     10.324     11.766
REMARK INTER + INTRA:          -7.811
REMARK INTER:                  -6.616
REMARK INTRA:                  -1.196
REMARK UNBOUND:                -0.983
REMARK  Name = 
REMARK  7 active torsions:
REMARK  status: ('A' for Active; 'I' for Inactive)
REMARK    1  A    between atoms: C_1  and  O_2
REMARK    2  A    between atoms: O_2  and  C_3
REMARK    3  A    between atoms: C_10  and  C_11
REMARK    4  A    between atoms: N_13  and  C_14
REMARK    5  A    between atoms: C_14  and  C_15
REMARK    6  A    between atoms: C_18  and  C_19
REMARK    7  A    between atoms: C_20  and  C_21
REMARK                            x       y       z     vdW  Elec       q    Type
REMARK                         _______ _______ _______ _____ _____    ______ ____
ROOT
ATOM      1  C   UNL     1      38.953  -2.944  17.446  0.00  0.00    +0.000 C 
ENDROOT
BRANCH   1   2
ATOM      2  C   UNL     1      40.278  -3.660  17.519  0.00  0.00    +0.000 A 
ATOM      3  C   UNL     1      41.060  -3.826  16.369  0.00  0.00    +0.000 A 
ATOM      4  C   UNL     1      42.277  -4.519  16.423  0.00  0.00    +0.000 A 
ATOM      5  C   UNL     1      42.743  -5.064  17.626  0.00  0.00    +0.000 A 
ATOM      6  C   UNL     1      41.949  -4.915  18.770  0.00  0.00    +0.000 A 
ATOM      7  C   UNL     1      40.731  -4.220  18.720  0.00  0.00    +0.000 A 
BRANCH   5   8
ATOM      8  C   UNL     1      43.981  -5.861  17.709  0.00  0.00    +0.000 C 
ATOM      9  C   UNL     1      45.164  -5.396  18.144  0.00  0.00    +0.000 C 
BRANCH   9  10
ATOM     10  C   UNL     1      46.417  -6.174  18.182  0.00  0.00    +0.000 A 
ATOM     11  C   UNL     1      46.522  -7.404  18.850  0.00  0.00    +0.000 A 
ATOM     12  C   UNL     1      47.707  -8.146  18.799  0.00  0.00    +0.000 A 
ATOM     13  C   UNL     1      48.786  -7.665  18.070  0.00  0.00    +0.000 A 
ATOM     14  F   UNL     1      49.915  -8.385  18.009  0.00  0.00    +0.000 F 
ATOM     15  C   UNL     1      48.707  -6.455  17.396  0.00  0.00    +0.000 A 
ATOM     16  C   UNL     1      47.523  -5.712  17.451  0.00  0.00    +0.000 A 
ENDBRANCH   9  10
ENDBRANCH   5   8
ENDBRANCH   1   2
BRANCH   1  19
ATOM     17  C   UNL     1      38.549  -1.023  18.940  0.00  0.00    +0.000 C 
ATOM     18  O   UNL     1      37.926  -1.727  19.732  0.00  0.00    +0.000 OA
ATOM     19  N   UNL     1      39.090  -1.550  17.799  0.00  0.00    +0.000 N 
ATOM     20  H   UNL     1      39.605  -0.959  17.161  0.00  0.00    +0.000 HD
BRANCH  17  28
ATOM     21  C   UNL     1      38.081   1.768  16.981  0.00  0.00    +0.000 A 
ATOM     22  N   UNL     1      37.908   3.002  16.470  0.00  0.00    +0.000 NA
ATOM     23  C   UNL     1      38.166   4.049  17.259  0.00  0.00    +0.000 A 
ATOM     24  N   UNL     1      38.601   4.017  18.516  0.00  0.00    +0.000 NA
ATOM     25  C   UNL     1      38.747   2.768  18.990  0.00  0.00    +0.000 A 
ATOM     26  S   UNL     1      39.307   2.531  20.574  0.00  0.00    +0.000 S 
ATOM     27  C   UNL     1      39.195   0.843  20.414  0.00  0.00    +0.000 A 
ATOM     28  C   UNL     1      38.726   0.422  19.174  0.00  0.00    +0.000 A 
ATOM     29  C   UNL     1      38.492   1.579  18.313  0.00  0.00    +0.000 A 
BRANCH  21  31
ATOM     30  C   UNL     1      36.409   0.390  16.099  0.00  0.00    +0.000 C 
ATOM     31  O   UNL     1      37.800   0.686  16.173  0.00  0.00    +0.000 OA
ENDBRANCH  21  31
ENDBRANCH  17  28
ENDBRANCH   1  19
TORSDOF 6
ENDMDL
