MODEL 1
REMARK VINA RESULT:    -6.486      0.000      0.000
REMARK INTER + INTRA:          -9.598
REMARK INTER:                  -9.140
REMARK INTRA:                  -0.458
REMARK UNBOUND:                -0.458
REMARK  Name = 
REMARK  8 active torsions:
REMARK  status: ('A' for Active; 'I' for Inactive)
REMARK    1  A    between atoms: N_1  and  C_2
REMARK    2  A    between atoms: C_2  and  C_3
REMARK    3  A    between atoms: C_3  and  O_4
REMARK    4  A    between atoms: O_4  and  C_5
REMARK    5  A    between atoms: N_12  and  C_13
REMARK    6  A    between atoms: C_13  and  C_14
REMARK    7  A    between atoms: C_19  and  C_20
REMARK    8  A    between atoms: C_20  and  O_21
REMARK                            x       y       z     vdW  Elec       q    Type
REMARK                         _______ _______ _______ _____ _____    ______ ____
ROOT
ATOM      1  C   UNL     1      47.808   6.184  13.580  0.00  0.00    +0.000 A 
ATOM      2  N   UNL     1      49.019   6.636  13.994  0.00  0.00    +0.000 NA
ATOM      3  C   UNL     1      49.354   7.927  13.823  0.00  0.00    +0.000 A 
ATOM      4  C   UNL     1      48.539   8.869  13.235  0.00  0.00    +0.000 A 
ATOM      5  C   UNL     1      47.292   8.425  12.775  0.00  0.00    +0.000 A 
ATOM      6  C   UNL     1      46.215   9.087  12.127  0.00  0.00    +0.000 A 
ATOM      7  C   UNL     1      45.238   8.154  11.886  0.00  0.00    +0.000 A 
ATOM      8  N   UNL     1      45.677   6.937  12.363  0.00  0.00    +0.000 N 
ATOM      9  C   UNL     1      46.933   7.078  12.942  0.00  0.00    +0.000 A 
ENDROOT
BRANCH   1  10
ATOM     10  O   UNL     1      47.529   4.832  13.723  0.00  0.00    +0.000 OA
BRANCH  10  11
ATOM     11  C   UNL     1      46.794   4.584  14.936  0.00  0.00    +0.000 C 
BRANCH  11  12
ATOM     12  C   UNL     1      47.584   3.680  15.892  0.00  0.00    +0.000 C 
BRANCH  12  13
ATOM     13  N   UNL     1      46.826   3.285  17.079  0.00  0.00    +0.000 NA
ATOM     14  H   UNL     1      47.459   3.221  17.875  0.00  0.00    +0.000 HD
ATOM     15  H   UNL     1      46.454   2.347  16.930  0.00  0.00    +0.000 HD
ENDBRANCH  12  13
ENDBRANCH  11  12
ENDBRANCH  10  11
ENDBRANCH   1  10
BRANCH   8  16
ATOM     16  C   UNL     1      44.836   5.741  12.360  0.00  0.00    +0.000 C 
BRANCH  16  17
ATOM     17  C   UNL     1      44.920   4.846  11.138  0.00  0.00    +0.000 A 
ATOM     18  N   UNL     1      45.601   5.435  10.107  0.00  0.00    +0.000 NA
ATOM     19  C   UNL     1      45.669   4.796   8.916  0.00  0.00    +0.000 A 
ATOM     20  C   UNL     1      45.071   3.582   8.671  0.00  0.00    +0.000 A 
ATOM     21  C   UNL     1      44.384   2.981   9.714  0.00  0.00    +0.000 A 
ATOM     22  C   UNL     1      44.285   3.600  10.976  0.00  0.00    +0.000 A 
BRANCH  22  23
ATOM     23  C   UNL     1      43.524   2.916  12.083  0.00  0.00    +0.000 C 
BRANCH  23  24
ATOM     24  O   UNL     1      43.020   1.634  11.699  0.00  0.00    +0.000 OA
ATOM     25  H   UNL     1      42.060   1.741  11.590  0.00  0.00    +0.000 HD
ENDBRANCH  23  24
ENDBRANCH  22  23
ENDBRANCH  16  17
ENDBRANCH   8  16
TORSDOF 8
ENDMDL
MODEL 2
REMARK VINA RESULT:    -6.407      2.250      4.091
REMARK INTER + INTRA:          -9.487
REMARK INTER:                  -8.812
REMARK INTRA:                  -0.674
REMARK UNBOUND:                -0.458
REMARK  Name = 
REMARK  8 active torsions:
REMARK  status: ('A' for Active; 'I' for Inactive)
REMARK    1  A    between atoms: N_1  and  C_2
REMARK    2  A    between atoms: C_2  and  C_3
REMARK    3  A    between atoms: C_3  and  O_4
REMARK    4  A    between atoms: O_4  and  C_5
REMARK    5  A    between atoms: N_12  and  C_13
REMARK    6  A    between atoms: C_13  and  C_14
REMARK    7  A    between atoms: C_19  and  C_20
REMARK    8  A    between atoms: C_20  and  O_21
REMARK                            x       y       z     vdW  Elec       q    Type
REMARK                         _______ _______ _______ _____ _____    ______ ____
ROOT
ATOM      1  C   UNL     1      45.485   8.739  11.784  0.00  0.00    +0.000 A 
ATOM      2  N   UNL     1      46.137   9.887  12.094  0.00  0.00    +0.000 NA
ATOM      3  C   UNL     1      47.248   9.852  12.851  0.00  0.00    +0.000 A 
ATOM      4  C   UNL     1      47.802   8.699  13.363  0.00  0.00    +0.000 A 
ATOM      5  C   UNL     1      47.135   7.500  13.081  0.00  0.00    +0.000 A 
ATOM      6  C   UNL     1      47.396   6.149  13.434  0.00  0.00    +0.000 A 
ATOM      7  C   UNL     1      46.396   5.378  12.895  0.00  0.00    +0.000 A 
ATOM      8  N   UNL     1      45.526   6.209  12.222  0.00  0.00    +0.000 N 
ATOM      9  C   UNL     1      45.970   7.524  12.297  0.00  0.00    +0.000 A 
ENDROOT
BRANCH   1  10
ATOM     10  O   UNL     1      44.311   8.828  11.050  0.00  0.00    +0.000 OA
BRANCH  10  11
ATOM     11  C   UNL     1      43.739  10.145  11.152  0.00  0.00    +0.000 C 
BRANCH  11  12
ATOM     12  C   UNL     1      42.371  10.215  10.460  0.00  0.00    +0.000 C 
BRANCH  12  13
ATOM     13  N   UNL     1      41.316   9.506  11.182  0.00  0.00    +0.000 NA
ATOM     14  H   UNL     1      40.547   9.310  10.543  0.00  0.00    +0.000 HD
ATOM     15  H   UNL     1      40.943  10.125  11.902  0.00  0.00    +0.000 HD
ENDBRANCH  12  13
ENDBRANCH  11  12
ENDBRANCH  10  11
ENDBRANCH   1  10
BRANCH   8  16
ATOM     16  C   UNL     1      44.399   5.702  11.442  0.00  0.00    +0.000 C 
BRANCH  16  17
ATOM     17  C   UNL     1      44.685   4.561  10.483  0.00  0.00    +0.000 A 
ATOM     18  N   UNL     1      45.394   4.970   9.385  0.00  0.00    +0.000 NA
ATOM     19  C   UNL     1      45.635   4.083   8.393  0.00  0.00    +0.000 A 
ATOM     20  C   UNL     1      45.190   2.782   8.414  0.00  0.00    +0.000 A 
ATOM     21  C   UNL     1      44.475   2.364   9.526  0.00  0.00    +0.000 A 
ATOM     22  C   UNL     1      44.199   3.245  10.589  0.00  0.00    +0.000 A 
BRANCH  22  23
ATOM     23  C   UNL     1      43.414   2.752  11.779  0.00  0.00    +0.000 C 
BRANCH  23  24
ATOM     24  O   UNL     1      42.926   1.420  11.607  0.00  0.00    +0.000 OA
ATOM     25  H   UNL     1      43.707   0.861  11.462  0.00  0.00    +0.000 HD
ENDBRANCH  23  24
ENDBRANCH  22  23
ENDBRANCH  16  17
ENDBRANCH   8  16
TORSDOF 8
ENDMDL
MODEL 3
REMARK VINA RESULT:    -6.009      2.149      5.116
REMARK INTER + INTRA:          -8.925
REMARK INTER:                  -7.912
REMARK INTRA:                  -1.013
REMARK UNBOUND:                -0.458
REMARK  Name = 
REMARK  8 active torsions:
REMARK  status: ('A' for Active; 'I' for Inactive)
REMARK    1  A    between atoms: N_1  and  C_2
REMARK    2  A    between atoms: C_2  and  C_3
REMARK    3  A    between atoms: C_3  and  O_4
REMARK    4  A    between atoms: O_4  and  C_5
REMARK    5  A    between atoms: N_12  and  C_13
REMARK    6  A    between atoms: C_13  and  C_14
REMARK    7  A    between atoms: C_19  and  C_20
REMARK    8  A    between atoms: C_20  and  O_21
REMARK                            x       y       z     vdW  Elec       q    Type
REMARK                         _______ _______ _______ _____ _____    ______ ____
ROOT
ATOM      1  C   UNL     1      46.309   4.880  13.524  0.00  0.00    +0.000 A 
ATOM      2  N   UNL     1      46.014   3.570  13.328  0.00  0.00    +0.000 NA
ATOM      3  C   UNL     1      45.172   3.205  12.345  0.00  0.00    +0.000 A 
ATOM      4  C   UNL     1      44.554   4.086  11.485  0.00  0.00    +0.000 A 
ATOM      5  C   UNL     1      44.819   5.448  11.680  0.00  0.00    +0.000 A 
ATOM      6  C   UNL     1      44.372   6.620  11.013  0.00  0.00    +0.000 A 
ATOM      7  C   UNL     1      44.943   7.699  11.641  0.00  0.00    +0.000 A 
ATOM      8  N   UNL     1      45.727   7.232  12.674  0.00  0.00    +0.000 N 
ATOM      9  C   UNL     1      45.692   5.842  12.707  0.00  0.00    +0.000 A 
ENDROOT
BRANCH   1  10
ATOM     10  O   UNL     1      47.136   5.215  14.586  0.00  0.00    +0.000 OA
BRANCH  10  11
ATOM     11  C   UNL     1      47.461   4.053  15.372  0.00  0.00    +0.000 C 
BRANCH  11  12
ATOM     12  C   UNL     1      47.194   4.295  16.864  0.00  0.00    +0.000 C 
BRANCH  12  13
ATOM     13  N   UNL     1      46.571   3.155  17.536  0.00  0.00    +0.000 NA
ATOM     14  H   UNL     1      46.199   2.516  16.835  0.00  0.00    +0.000 HD
ATOM     15  H   UNL     1      45.772   3.492  18.072  0.00  0.00    +0.000 HD
ENDBRANCH  12  13
ENDBRANCH  11  12
ENDBRANCH  10  11
ENDBRANCH   1  10
BRANCH   8  16
ATOM     16  C   UNL     1      46.563   8.113  13.488  0.00  0.00    +0.000 C 
BRANCH  16  17
ATOM     17  C   UNL     1      47.633   8.908  12.762  0.00  0.00    +0.000 A 
ATOM     18  N   UNL     1      47.239  10.193  12.502  0.00  0.00    +0.000 NA
ATOM     19  C   UNL     1      48.049  10.992  11.770  0.00  0.00    +0.000 A 
ATOM     20  C   UNL     1      49.253  10.579  11.250  0.00  0.00    +0.000 A 
ATOM     21  C   UNL     1      49.656   9.279  11.514  0.00  0.00    +0.000 A 
ATOM     22  C   UNL     1      48.853   8.406  12.274  0.00  0.00    +0.000 A 
BRANCH  22  23
ATOM     23  C   UNL     1      49.326   6.998  12.536  0.00  0.00    +0.000 C 
BRANCH  23  24
ATOM     24  O   UNL     1      49.651   6.769  13.909  0.00  0.00    +0.000 OA
ATOM     25  H   UNL     1      48.907   7.121  14.427  0.00  0.00    +0.000 HD
ENDBRANCH  23  24
ENDBRANCH  22  23
ENDBRANCH  16  17
ENDBRANCH   8  16
TORSDOF 8
ENDMDL
MODEL 4
REMARK VINA RESULT:    -5.989      1.973      2.622
REMARK INTER + INTRA:          -8.898
REMARK INTER:                  -8.227
REMARK INTRA:                  -0.671
REMARK UNBOUND:                -0.458
REMARK  Name = 
REMARK  8 active torsions:
REMARK  status: ('A' for Active; 'I' for Inactive)
REMARK    1  A    between atoms: N_1  and  C_2
REMARK    2  A    between atoms: C_2  and  C_3
REMARK    3  A    between atoms: C_3  and  O_4
REMARK    4  A    between atoms: O_4  and  C_5
REMARK    5  A    between atoms: N_12  and  C_13
REMARK    6  A    between atoms: C_13  and  C_14
REMARK    7  A    between atoms: C_19  and  C_20
REMARK    8  A    between atoms: C_20  and  O_21
REMARK                            x       y       z     vdW  Elec       q    Type
REMARK                         _______ _______ _______ _____ _____    ______ ____
ROOT
ATOM      1  C   UNL     1      48.443   6.278  15.238  0.00  0.00    +0.000 A 
ATOM      2  N   UNL     1      49.196   6.910  16.173  0.00  0.00    +0.000 NA
ATOM      3  C   UNL     1      49.485   8.216  16.040  0.00  0.00    +0.000 A 
ATOM      4  C   UNL     1      49.066   9.001  14.988  0.00  0.00    +0.000 A 
ATOM      5  C   UNL     1      48.308   8.369  13.993  0.00  0.00    +0.000 A 
ATOM      6  C   UNL     1      47.722   8.839  12.788  0.00  0.00    +0.000 A 
ATOM      7  C   UNL     1      47.100   7.774  12.185  0.00  0.00    +0.000 A 
ATOM      8  N   UNL     1      47.284   6.662  12.979  0.00  0.00    +0.000 N 
ATOM      9  C   UNL     1      48.005   7.004  14.118  0.00  0.00    +0.000 A 
ENDROOT
BRANCH   1  10
ATOM     10  O   UNL     1      48.219   4.917  15.385  0.00  0.00    +0.000 OA
BRANCH  10  11
ATOM     11  C   UNL     1      47.379   4.653  16.524  0.00  0.00    +0.000 C 
BRANCH  11  12
ATOM     12  C   UNL     1      47.800   3.364  17.242  0.00  0.00    +0.000 C 
BRANCH  12  13
ATOM     13  N   UNL     1      46.679   2.636  17.835  0.00  0.00    +0.000 NA
ATOM     14  H   UNL     1      46.470   3.032  18.751  0.00  0.00    +0.000 HD
ATOM     15  H   UNL     1      46.968   1.671  17.997  0.00  0.00    +0.000 HD
ENDBRANCH  12  13
ENDBRANCH  11  12
ENDBRANCH  10  11
ENDBRANCH   1  10
BRANCH   8  16
ATOM     16  C   UNL     1      46.663   5.372  12.682  0.00  0.00    +0.000 C 
BRANCH  16  17
ATOM     17  C   UNL     1      45.214   5.395  12.234  0.00  0.00    +0.000 A 
ATOM     18  N   UNL     1      44.342   5.350  13.288  0.00  0.00    +0.000 NA
ATOM     19  C   UNL     1      43.015   5.261  13.038  0.00  0.00    +0.000 A 
ATOM     20  C   UNL     1      42.484   5.195  11.772  0.00  0.00    +0.000 A 
ATOM     21  C   UNL     1      43.364   5.244  10.702  0.00  0.00    +0.000 A 
ATOM     22  C   UNL     1      44.755   5.340  10.904  0.00  0.00    +0.000 A 
BRANCH  22  23
ATOM     23  C   UNL     1      45.679   5.387   9.714  0.00  0.00    +0.000 C 
BRANCH  23  24
ATOM     24  O   UNL     1      45.099   4.813   8.539  0.00  0.00    +0.000 OA
ATOM     25  H   UNL     1      44.527   5.498   8.156  0.00  0.00    +0.000 HD
ENDBRANCH  23  24
ENDBRANCH  22  23
ENDBRANCH  16  17
ENDBRANCH   8  16
TORSDOF 8
ENDMDL
MODEL 5
REMARK VINA RESULT:    -5.785      2.347      6.466
REMARK INTER + INTRA:          -8.611
REMARK INTER:                  -8.058
REMARK INTRA:                  -0.553
REMARK UNBOUND:                -0.458
REMARK  Name = 
REMARK  8 active torsions:
REMARK  status: ('A' for Active; 'I' for Inactive)
REMARK    1  A    between atoms: N_1  and  C_2
REMARK    2  A    between atoms: C_2  and  C_3
REMARK    3  A    between atoms: C_3  and  O_4
REMARK    4  A    between atoms: O_4  and  C_5
REMARK    5  A    between atoms: N_12  and  C_13
REMARK    6  A    between atoms: C_13  and  C_14
REMARK    7  A    between atoms: C_19  and  C_20
REMARK    8  A    between atoms: C_20  and  O_21
REMARK                            x       y       z     vdW  Elec       q    Type
REMARK                         _______ _______ _______ _____ _____    ______ ____
ROOT
ATOM      1  C   UNL     1      44.740   4.242  10.281  0.00  0.00    +0.000 A 
ATOM      2  N   UNL     1      43.844   3.227  10.197  0.00  0.00    +0.000 NA
ATOM      3  C   UNL     1      43.354   2.662  11.314  0.00  0.00    +0.000 A 
ATOM      4  C   UNL     1      43.702   3.040  12.592  0.00  0.00    +0.000 A 
ATOM      5  C   UNL     1      44.646   4.070  12.710  0.00  0.00    +0.000 A 
ATOM      6  C   UNL     1      45.238   4.706  13.833  0.00  0.00    +0.000 A 
ATOM      7  C   UNL     1      46.119   5.647  13.361  0.00  0.00    +0.000 A 
ATOM      8  N   UNL     1      46.090   5.611  11.983  0.00  0.00    +0.000 N 
ATOM      9  C   UNL     1      45.169   4.664  11.550  0.00  0.00    +0.000 A 
ENDROOT
BRANCH   1  10
ATOM     10  O   UNL     1      45.263   4.756   9.103  0.00  0.00    +0.000 OA
BRANCH  10  11
ATOM     11  C   UNL     1      45.061   3.842   8.009  0.00  0.00    +0.000 C 
BRANCH  11  12
ATOM     12  C   UNL     1      46.398   3.320   7.464  0.00  0.00    +0.000 C 
BRANCH  12  13
ATOM     13  N   UNL     1      46.901   4.088   6.326  0.00  0.00    +0.000 NA
ATOM     14  H   UNL     1      46.254   3.992   5.545  0.00  0.00    +0.000 HD
ATOM     15  H   UNL     1      47.784   3.677   6.022  0.00  0.00    +0.000 HD
ENDBRANCH  12  13
ENDBRANCH  11  12
ENDBRANCH  10  11
ENDBRANCH   1  10
BRANCH   8  16
ATOM     16  C   UNL     1      46.837   6.557  11.155  0.00  0.00    +0.000 C 
BRANCH  16  17
ATOM     17  C   UNL     1      47.590   7.658  11.879  0.00  0.00    +0.000 A 
ATOM     18  N   UNL     1      48.850   7.270  12.247  0.00  0.00    +0.000 NA
ATOM     19  C   UNL     1      49.603   8.112  12.991  0.00  0.00    +0.000 A 
ATOM     20  C   UNL     1      49.167   9.344  13.420  0.00  0.00    +0.000 A 
ATOM     21  C   UNL     1      47.892   9.741  13.045  0.00  0.00    +0.000 A 
ATOM     22  C   UNL     1      47.067   8.905  12.268  0.00  0.00    +0.000 A 
BRANCH  22  23
ATOM     23  C   UNL     1      45.685   9.372  11.886  0.00  0.00    +0.000 C 
BRANCH  23  24
ATOM     24  O   UNL     1      44.837   9.579  13.018  0.00  0.00    +0.000 OA
ATOM     25  H   UNL     1      45.091  10.439  13.394  0.00  0.00    +0.000 HD
ENDBRANCH  23  24
ENDBRANCH  22  23
ENDBRANCH  16  17
ENDBRANCH   8  16
TORSDOF 8
ENDMDL
MODEL 6
REMARK VINA RESULT:    -5.754      2.155      5.320
REMARK INTER + INTRA:          -8.567
REMARK INTER:                  -7.717
REMARK INTRA:                  -0.849
REMARK UNBOUND:                -0.458
REMARK  Name = 
REMARK  8 active torsions:
REMARK  status: ('A' for Active; 'I' for Inactive)
REMARK    1  A    between atoms: N_1  and  C_2
REMARK    2  A    between atoms: C_2  and  C_3
REMARK    3  A    between atoms: C_3  and  O_4
REMARK    4  A    between atoms: O_4  and  C_5
REMARK    5  A    between atoms: N_12  and  C_13
REMARK    6  A    between atoms: C_13  and  C_14
REMARK    7  A    between atoms: C_19  and  C_20
REMARK    8  A    between atoms: C_20  and  O_21
REMARK                            x       y       z     vdW  Elec       q    Type
REMARK                         _______ _______ _______ _____ _____    ______ ____
ROOT
ATOM      1  C   UNL     1      46.630   4.585  13.398  0.00  0.00    +0.000 A 
ATOM      2  N   UNL     1      46.082   3.361  13.199  0.00  0.00    +0.000 NA
ATOM      3  C   UNL     1      45.011   3.220  12.398  0.00  0.00    +0.000 A 
ATOM      4  C   UNL     1      44.395   4.260  11.737  0.00  0.00    +0.000 A 
ATOM      5  C   UNL     1      44.924   5.541  11.944  0.00  0.00    +0.000 A 
ATOM      6  C   UNL     1      44.560   6.822  11.451  0.00  0.00    +0.000 A 
ATOM      7  C   UNL     1      45.421   7.739  12.000  0.00  0.00    +0.000 A 
ATOM      8  N   UNL     1      46.304   7.065  12.818  0.00  0.00    +0.000 N 
ATOM      9  C   UNL     1      46.038   5.701  12.783  0.00  0.00    +0.000 A 
ENDROOT
BRANCH   1  10
ATOM     10  O   UNL     1      47.697   4.692  14.278  0.00  0.00    +0.000 OA
BRANCH  10  11
ATOM     11  C   UNL     1      47.238   4.730  15.642  0.00  0.00    +0.000 C 
BRANCH  11  12
ATOM     12  C   UNL     1      47.662   3.471  16.410  0.00  0.00    +0.000 C 
BRANCH  12  13
ATOM     13  N   UNL     1      46.723   3.089  17.465  0.00  0.00    +0.000 NA
ATOM     14  H   UNL     1      46.707   2.074  17.546  0.00  0.00    +0.000 HD
ATOM     15  H   UNL     1      45.785   3.371  17.182  0.00  0.00    +0.000 HD
ENDBRANCH  12  13
ENDBRANCH  11  12
ENDBRANCH  10  11
ENDBRANCH   1  10
BRANCH   8  16
ATOM     16  C   UNL     1      47.424   7.729  13.482  0.00  0.00    +0.000 C 
BRANCH  16  17
ATOM     17  C   UNL     1      48.534   8.259  12.594  0.00  0.00    +0.000 A 
ATOM     18  N   UNL     1      49.455   7.295  12.282  0.00  0.00    +0.000 NA
ATOM     19  C   UNL     1      50.557   7.645  11.580  0.00  0.00    +0.000 A 
ATOM     20  C   UNL     1      50.819   8.930  11.169  0.00  0.00    +0.000 A 
ATOM     21  C   UNL     1      49.887   9.908  11.480  0.00  0.00    +0.000 A 
ATOM     22  C   UNL     1      48.720   9.599  12.206  0.00  0.00    +0.000 A 
BRANCH  22  23
ATOM     23  C   UNL     1      47.732  10.692  12.528  0.00  0.00    +0.000 C 
BRANCH  23  24
ATOM     24  O   UNL     1      46.819  10.946  11.457  0.00  0.00    +0.000 OA
ATOM     25  H   UNL     1      45.937  11.004  11.861  0.00  0.00    +0.000 HD
ENDBRANCH  23  24
ENDBRANCH  22  23
ENDBRANCH  16  17
ENDBRANCH   8  16
TORSDOF 8
ENDMDL
MODEL 7
REMARK VINA RESULT:    -5.677      2.735      4.225
REMARK INTER + INTRA:          -8.458
REMARK INTER:                  -7.320
REMARK INTRA:                  -1.138
REMARK UNBOUND:                -0.458
REMARK  Name = 
REMARK  8 active torsions:
REMARK  status: ('A' for Active; 'I' for Inactive)
REMARK    1  A    between atoms: N_1  and  C_2
REMARK    2  A    between atoms: C_2  and  C_3
REMARK    3  A    between atoms: C_3  and  O_4
REMARK    4  A    between atoms: O_4  and  C_5
REMARK    5  A    between atoms: N_12  and  C_13
REMARK    6  A    between atoms: C_13  and  C_14
REMARK    7  A    between atoms: C_19  and  C_20
REMARK    8  A    between atoms: C_20  and  O_21
REMARK                            x       y       z     vdW  Elec       q    Type
REMARK                         _______ _______ _______ _____ _____    ______ ____
ROOT
ATOM      1  C   UNL     1      49.127   5.996  17.261  0.00  0.00    +0.000 A 
ATOM      2  N   UNL     1      49.179   6.075  18.614  0.00  0.00    +0.000 NA
ATOM      3  C   UNL     1      48.893   7.232  19.237  0.00  0.00    +0.000 A 
ATOM      4  C   UNL     1      48.539   8.395  18.589  0.00  0.00    +0.000 A 
ATOM      5  C   UNL     1      48.502   8.351  17.189  0.00  0.00    +0.000 A 
ATOM      6  C   UNL     1      48.196   9.327  16.204  0.00  0.00    +0.000 A 
ATOM      7  C   UNL     1      48.336   8.735  14.973  0.00  0.00    +0.000 A 
ATOM      8  N   UNL     1      48.720   7.425  15.167  0.00  0.00    +0.000 N 
ATOM      9  C   UNL     1      48.806   7.150  16.527  0.00  0.00    +0.000 A 
ENDROOT
BRANCH   1  10
ATOM     10  O   UNL     1      49.488   4.799  16.659  0.00  0.00    +0.000 OA
BRANCH  10  11
ATOM     11  C   UNL     1      49.426   3.711  17.599  0.00  0.00    +0.000 C 
BRANCH  11  12
ATOM     12  C   UNL     1      50.315   2.540  17.158  0.00  0.00    +0.000 C 
BRANCH  12  13
ATOM     13  N   UNL     1      49.723   1.729  16.094  0.00  0.00    +0.000 NA
ATOM     14  H   UNL     1      48.815   1.385  16.402  0.00  0.00    +0.000 HD
ATOM     15  H   UNL     1      50.309   0.907  15.949  0.00  0.00    +0.000 HD
ENDBRANCH  12  13
ENDBRANCH  11  12
ENDBRANCH  10  11
ENDBRANCH   1  10
BRANCH   8  16
ATOM     16  C   UNL     1      48.860   6.475  14.064  0.00  0.00    +0.000 C 
BRANCH  16  17
ATOM     17  C   UNL     1      47.595   6.107  13.311  0.00  0.00    +0.000 A 
ATOM     18  N   UNL     1      47.406   6.886  12.201  0.00  0.00    +0.000 NA
ATOM     19  C   UNL     1      46.266   6.741  11.486  0.00  0.00    +0.000 A 
ATOM     20  C   UNL     1      45.267   5.859  11.821  0.00  0.00    +0.000 A 
ATOM     21  C   UNL     1      45.457   5.066  12.942  0.00  0.00    +0.000 A 
ATOM     22  C   UNL     1      46.626   5.172  13.721  0.00  0.00    +0.000 A 
BRANCH  22  23
ATOM     23  C   UNL     1      46.793   4.295  14.936  0.00  0.00    +0.000 C 
BRANCH  23  24
ATOM     24  O   UNL     1      47.577   3.128  14.673  0.00  0.00    +0.000 OA
ATOM     25  H   UNL     1      47.128   2.392  15.122  0.00  0.00    +0.000 HD
ENDBRANCH  23  24
ENDBRANCH  22  23
ENDBRANCH  16  17
ENDBRANCH   8  16
TORSDOF 8
ENDMDL
MODEL 8
REMARK VINA RESULT:    -5.656      2.859      6.207
REMARK INTER + INTRA:          -8.428
REMARK INTER:                  -7.464
REMARK INTRA:                  -0.964
REMARK UNBOUND:                -0.458
REMARK  Name = 
REMARK  8 active torsions:
REMARK  status: ('A' for Active; 'I' for Inactive)
REMARK    1  A    between atoms: N_1  and  C_2
REMARK    2  A    between atoms: C_2  and  C_3
REMARK    3  A    between atoms: C_3  and  O_4
REMARK    4  A    between atoms: O_4  and  C_5
REMARK    5  A    between atoms: N_12  and  C_13
REMARK    6  A    between atoms: C_13  and  C_14
REMARK    7  A    between atoms: C_19  and  C_20
REMARK    8  A    between atoms: C_20  and  O_21
REMARK                            x       y       z     vdW  Elec       q    Type
REMARK                         _______ _______ _______ _____ _____    ______ ____
ROOT
ATOM      1  C   UNL     1      46.656   4.745  14.368  0.00  0.00    +0.000 A 
ATOM      2  N   UNL     1      45.736   4.101  13.606  0.00  0.00    +0.000 NA
ATOM      3  C   UNL     1      45.469   4.531  12.360  0.00  0.00    +0.000 A 
ATOM      4  C   UNL     1      46.073   5.618  11.768  0.00  0.00    +0.000 A 
ATOM      5  C   UNL     1      47.009   6.318  12.541  0.00  0.00    +0.000 A 
ATOM      6  C   UNL     1      47.808   7.463  12.279  0.00  0.00    +0.000 A 
ATOM      7  C   UNL     1      48.539   7.727  13.411  0.00  0.00    +0.000 A 
ATOM      8  N   UNL     1      48.216   6.784  14.363  0.00  0.00    +0.000 N 
ATOM      9  C   UNL     1      47.292   5.883  13.846  0.00  0.00    +0.000 A 
ENDROOT
BRANCH   1  10
ATOM     10  O   UNL     1      46.856   4.302  15.668  0.00  0.00    +0.000 OA
BRANCH  10  11
ATOM     11  C   UNL     1      47.838   3.250  15.709  0.00  0.00    +0.000 C 
BRANCH  11  12
ATOM     12  C   UNL     1      47.951   2.646  17.115  0.00  0.00    +0.000 C 
BRANCH  12  13
ATOM     13  N   UNL     1      46.681   2.617  17.840  0.00  0.00    +0.000 NA
ATOM     14  H   UNL     1      45.949   3.004  17.246  0.00  0.00    +0.000 HD
ATOM     15  H   UNL     1      46.755   3.235  18.648  0.00  0.00    +0.000 HD
ENDBRANCH  12  13
ENDBRANCH  11  12
ENDBRANCH  10  11
ENDBRANCH   1  10
BRANCH   8  16
ATOM     16  C   UNL     1      48.890   6.710  15.658  0.00  0.00    +0.000 C 
BRANCH  16  17
ATOM     17  C   UNL     1      48.423   7.675  16.732  0.00  0.00    +0.000 A 
ATOM     18  N   UNL     1      48.540   8.983  16.342  0.00  0.00    +0.000 NA
ATOM     19  C   UNL     1      48.257   9.960  17.234  0.00  0.00    +0.000 A 
ATOM     20  C   UNL     1      47.871   9.716  18.531  0.00  0.00    +0.000 A 
ATOM     21  C   UNL     1      47.749   8.392  18.927  0.00  0.00    +0.000 A 
ATOM     22  C   UNL     1      48.027   7.336  18.038  0.00  0.00    +0.000 A 
BRANCH  22  23
ATOM     23  C   UNL     1      47.886   5.910  18.510  0.00  0.00    +0.000 C 
BRANCH  23  24
ATOM     24  O   UNL     1      46.530   5.456  18.505  0.00  0.00    +0.000 OA
ATOM     25  H   UNL     1      45.977   6.253  18.565  0.00  0.00    +0.000 HD
ENDBRANCH  23  24
ENDBRANCH  22  23
ENDBRANCH  16  17
ENDBRANCH   8  16
TORSDOF 8
ENDMDL
MODEL 9
REMARK VINA RESULT:    -5.591      1.958      5.582
REMARK INTER + INTRA:          -8.337
REMARK INTER:                  -7.775
REMARK INTRA:                  -0.562
REMARK UNBOUND:                -0.458
REMARK  Name = 
REMARK  8 active torsions:
REMARK  status: ('A' for Active; 'I' for Inactive)
REMARK    1  A    between atoms: N_1  and  C_2
REMARK    2  A    between atoms: C_2  and  C_3
REMARK    3  A    between atoms: C_3  and  O_4
REMARK    4  A    between atoms: O_4  and  C_5
REMARK    5  A    between atoms: N_12  and  C_13
REMARK    6  A    between atoms: C_13  and  C_14
REMARK    7  A    between atoms: C_19  and  C_20
REMARK    8  A    between atoms: C_20  and  O_21
REMARK                            x       y       z     vdW  Elec       q    Type
REMARK                         _______ _______ _______ _____ _____    ______ ____
ROOT
ATOM      1  C   UNL     1      45.060   4.195  12.985  0.00  0.00    +0.000 A 
ATOM      2  N   UNL     1      44.128   3.212  13.056  0.00  0.00    +0.000 NA
ATOM      3  C   UNL     1      43.525   2.768  11.938  0.00  0.00    +0.000 A 
ATOM      4  C   UNL     1      43.784   3.250  10.674  0.00  0.00    +0.000 A 
ATOM      5  C   UNL     1      44.723   4.285  10.573  0.00  0.00    +0.000 A 
ATOM      6  C   UNL     1      45.229   5.019   9.467  0.00  0.00    +0.000 A 
ATOM      7  C   UNL     1      46.128   5.936   9.953  0.00  0.00    +0.000 A 
ATOM      8  N   UNL     1      46.192   5.792  11.323  0.00  0.00    +0.000 N 
ATOM      9  C   UNL     1      45.354   4.761  11.733  0.00  0.00    +0.000 A 
ENDROOT
BRANCH   1  10
ATOM     10  O   UNL     1      45.612   4.663  14.169  0.00  0.00    +0.000 OA
BRANCH  10  11
ATOM     11  C   UNL     1      46.820   3.949  14.491  0.00  0.00    +0.000 C 
BRANCH  11  12
ATOM     12  C   UNL     1      47.315   4.299  15.901  0.00  0.00    +0.000 C 
BRANCH  12  13
ATOM     13  N   UNL     1      46.762   3.435  16.943  0.00  0.00    +0.000 NA
ATOM     14  H   UNL     1      47.113   2.487  16.813  0.00  0.00    +0.000 HD
ATOM     15  H   UNL     1      45.751   3.388  16.823  0.00  0.00    +0.000 HD
ENDBRANCH  12  13
ENDBRANCH  11  12
ENDBRANCH  10  11
ENDBRANCH   1  10
BRANCH   8  16
ATOM     16  C   UNL     1      47.132   6.547  12.150  0.00  0.00    +0.000 C 
BRANCH  16  17
ATOM     17  C   UNL     1      47.012   8.059  12.120  0.00  0.00    +0.000 A 
ATOM     18  N   UNL     1      45.718   8.482  12.265  0.00  0.00    +0.000 NA
ATOM     19  C   UNL     1      45.444   9.802  12.156  0.00  0.00    +0.000 A 
ATOM     20  C   UNL     1      46.397  10.756  11.887  0.00  0.00    +0.000 A 
ATOM     21  C   UNL     1      47.709  10.331  11.743  0.00  0.00    +0.000 A 
ATOM     22  C   UNL     1      48.052   8.969  11.851  0.00  0.00    +0.000 A 
BRANCH  22  23
ATOM     23  C   UNL     1      49.490   8.548  11.683  0.00  0.00    +0.000 C 
BRANCH  23  24
ATOM     24  O   UNL     1      50.337   9.621  11.264  0.00  0.00    +0.000 OA
ATOM     25  H   UNL     1      51.031   9.698  11.939  0.00  0.00    +0.000 HD
ENDBRANCH  23  24
ENDBRANCH  22  23
ENDBRANCH  16  17
ENDBRANCH   8  16
TORSDOF 8
ENDMDL
