MODEL 1
REMARK VINA RESULT:    -7.312      0.000      0.000
REMARK INTER + INTRA:         -13.181
REMARK INTER:                 -11.586
REMARK INTRA:                  -1.595
REMARK UNBOUND:                -1.595
REMARK  Name = 
REMARK  11 active torsions:
REMARK  status: ('A' for Active; 'I' for Inactive)
REMARK    1  A    between atoms: N_1  and  C_2
REMARK    2  A    between atoms: C_2  and  C_3
REMARK    3  A    between atoms: C_3  and  N_4
REMARK    4  A    between atoms: C_3  and  C_20
REMARK    5  A    between atoms: C_5  and  C_7
REMARK    6  A    between atoms: N_13  and  C_14
REMARK    7  A    between atoms: C_14  and  C_15
REMARK    8  A    between atoms: C_15  and  O_16
REMARK    9  A    between atoms: C_23  and  C_24
REMARK   10  A    between atoms: C_24  and  N_25
REMARK   11  A    between atoms: C_26  and  C_28
REMARK                            x       y       z     vdW  Elec       q    Type
REMARK                         _______ _______ _______ _____ _____    ______ ____
ROOT
ATOM      1  C   UNL     1      46.310   8.390  11.795  0.00  0.00    +0.000 C 
ENDROOT
BRANCH   1   2
ATOM      2  C   UNL     1      47.835   8.445  11.790  0.00  0.00    +0.000 A 
ATOM      3  C   UNL     1      48.572   7.257  11.919  0.00  0.00    +0.000 A 
ATOM      4  C   UNL     1      49.975   7.270  11.893  0.00  0.00    +0.000 A 
ATOM      5  C   UNL     1      50.678   8.473  11.753  0.00  0.00    +0.000 A 
ATOM      6  C   UNL     1      49.947   9.662  11.648  0.00  0.00    +0.000 A 
ATOM      7  C   UNL     1      48.547   9.649  11.684  0.00  0.00    +0.000 A 
BRANCH   5   8
ATOM      8  C   UNL     1      52.185   8.503  11.747  0.00  0.00    +0.000 C 
BRANCH   8   9
ATOM      9  N   UNL     1      52.772   7.523  10.858  0.00  0.00    +0.000 N 
ATOM     10  C   UNL     1      52.883   7.805   9.507  0.00  0.00    +0.000 C 
ATOM     11  O   UNL     1      52.555   8.890   9.037  0.00  0.00    +0.000 OA
ATOM     12  H   UNL     1      52.867   6.571  11.186  0.00  0.00    +0.000 HD
BRANCH  10  13
ATOM     13  C   UNL     1      53.387   6.640   8.662  0.00  0.00    +0.000 C 
ATOM     14  C   UNL     1      54.791   6.857   8.137  0.00  0.00    +0.000 C 
ATOM     15  C   UNL     1      54.600   7.267   6.693  0.00  0.00    +0.000 C 
ATOM     16  O   UNL     1      53.341   6.759   6.262  0.00  0.00    +0.000 OA
ATOM     17  C   UNL     1      52.562   6.392   7.407  0.00  0.00    +0.000 C 
ENDBRANCH  10  13
ENDBRANCH   8   9
ENDBRANCH   5   8
ENDBRANCH   1   2
BRANCH   1  18
ATOM     18  N   UNL     1      45.899   7.019  11.516  0.00  0.00    +0.000 N 
ATOM     19  C   UNL     1      44.605   6.663  11.228  0.00  0.00    +0.000 C 
ATOM     20  O   UNL     1      43.721   7.484  11.014  0.00  0.00    +0.000 OA
ATOM     21  H   UNL     1      46.528   6.308  11.863  0.00  0.00    +0.000 HD
BRANCH  19  22
ATOM     22  C   UNL     1      44.357   5.216  11.138  0.00  0.00    +0.000 A 
ATOM     23  C   UNL     1      43.597   4.560  12.091  0.00  0.00    +0.000 A 
ATOM     24  S   UNL     1      43.371   2.901  11.753  0.00  0.00    +0.000 S 
ATOM     25  C   UNL     1      44.327   2.998  10.349  0.00  0.00    +0.000 A 
ATOM     26  N   UNL     1      44.548   1.910   9.568  0.00  0.00    +0.000 NA
ATOM     27  C   UNL     1      45.282   2.134   8.523  0.00  0.00    +0.000 A 
ATOM     28  N   UNL     1      45.848   3.348   8.193  0.00  0.00    +0.000 N 
ATOM     29  C   UNL     1      45.685   4.467   9.002  0.00  0.00    +0.000 A 
ATOM     30  O   UNL     1      46.232   5.542   8.764  0.00  0.00    +0.000 OA
ATOM     31  C   UNL     1      44.812   4.270  10.146  0.00  0.00    +0.000 A 
BRANCH  28  32
ATOM     32  C   UNL     1      46.670   3.478   6.992  0.00  0.00    +0.000 C 
BRANCH  32  33
ATOM     33  C   UNL     1      47.527   2.236   6.741  0.00  0.00    +0.000 C 
BRANCH  33  34
ATOM     34  O   UNL     1      48.778   2.606   6.169  0.00  0.00    +0.000 OA
ATOM     35  H   UNL     1      48.595   3.194   5.415  0.00  0.00    +0.000 HD
ENDBRANCH  33  34
ENDBRANCH  32  33
ENDBRANCH  28  32
ENDBRANCH  19  22
ENDBRANCH   1  18
BRANCH   1  36
ATOM     36  C   UNL     1      45.643   8.902  13.110  0.00  0.00    +0.000 C 
BRANCH  36  37
ATOM     37  N   UNL     1      44.521   9.823  12.889  0.00  0.00    +0.000 NA
ATOM     38  H   UNL     1      44.879  10.764  12.740  0.00  0.00    +0.000 HD
ATOM     39  H   UNL     1      43.951   9.861  13.733  0.00  0.00    +0.000 HD
ENDBRANCH  36  37
ENDBRANCH   1  36
TORSDOF 11
ENDMDL
MODEL 2
REMARK VINA RESULT:    -7.106      5.289      9.172
REMARK INTER + INTRA:         -12.855
REMARK INTER:                 -10.895
REMARK INTRA:                  -1.960
REMARK UNBOUND:                -1.595
REMARK  Name = 
REMARK  11 active torsions:
REMARK  status: ('A' for Active; 'I' for Inactive)
REMARK    1  A    between atoms: N_1  and  C_2
REMARK    2  A    between atoms: C_2  and  C_3
REMARK    3  A    between atoms: C_3  and  N_4
REMARK    4  A    between atoms: C_3  and  C_20
REMARK    5  A    between atoms: C_5  and  C_7
REMARK    6  A    between atoms: N_13  and  C_14
REMARK    7  A    between atoms: C_14  and  C_15
REMARK    8  A    between atoms: C_15  and  O_16
REMARK    9  A    between atoms: C_23  and  C_24
REMARK   10  A    between atoms: C_24  and  N_25
REMARK   11  A    between atoms: C_26  and  C_28
REMARK                            x       y       z     vdW  Elec       q    Type
REMARK                         _______ _______ _______ _____ _____    ______ ____
ROOT
ATOM      1  C   UNL     1      47.679   4.785  14.955  0.00  0.00    +0.000 C 
ENDROOT
BRANCH   1   2
ATOM      2  C   UNL     1      46.766   4.794  13.732  0.00  0.00    +0.000 A 
ATOM      3  C   UNL     1      46.226   3.587  13.261  0.00  0.00    +0.000 A 
ATOM      4  C   UNL     1      45.364   3.563  12.155  0.00  0.00    +0.000 A 
ATOM      5  C   UNL     1      45.033   4.744  11.479  0.00  0.00    +0.000 A 
ATOM      6  C   UNL     1      45.588   5.947  11.930  0.00  0.00    +0.000 A 
ATOM      7  C   UNL     1      46.456   5.968  13.029  0.00  0.00    +0.000 A 
BRANCH   5   8
ATOM      8  C   UNL     1      44.127   4.730  10.274  0.00  0.00    +0.000 C 
BRANCH   8   9
ATOM      9  N   UNL     1      44.473   3.705   9.311  0.00  0.00    +0.000 N 
ATOM     10  C   UNL     1      45.435   3.966   8.351  0.00  0.00    +0.000 C 
ATOM     11  O   UNL     1      46.057   5.023   8.321  0.00  0.00    +0.000 OA
ATOM     12  H   UNL     1      43.848   2.917   9.201  0.00  0.00    +0.000 HD
BRANCH  10  13
ATOM     13  C   UNL     1      45.604   2.860   7.315  0.00  0.00    +0.000 C 
ATOM     14  C   UNL     1      46.350   1.657   7.854  0.00  0.00    +0.000 C 
ATOM     15  C   UNL     1      47.753   1.801   7.307  0.00  0.00    +0.000 C 
ATOM     16  O   UNL     1      47.680   2.600   6.131  0.00  0.00    +0.000 OA
ATOM     17  C   UNL     1      46.419   3.281   6.099  0.00  0.00    +0.000 C 
ENDBRANCH  10  13
ENDBRANCH   8   9
ENDBRANCH   5   8
ENDBRANCH   1   2
BRANCH   1  18
ATOM     18  N   UNL     1      47.797   6.152  15.450  0.00  0.00    +0.000 N 
ATOM     19  C   UNL     1      48.852   6.975  15.146  0.00  0.00    +0.000 C 
ATOM     20  O   UNL     1      49.693   6.694  14.299  0.00  0.00    +0.000 OA
ATOM     21  H   UNL     1      47.254   6.352  16.278  0.00  0.00    +0.000 HD
BRANCH  19  22
ATOM     22  C   UNL     1      48.878   8.256  15.869  0.00  0.00    +0.000 A 
ATOM     23  C   UNL     1      48.927   9.460  15.187  0.00  0.00    +0.000 A 
ATOM     24  S   UNL     1      48.873  10.823  16.215  0.00  0.00    +0.000 S 
ATOM     25  C   UNL     1      48.835   9.844  17.607  0.00  0.00    +0.000 A 
ATOM     26  N   UNL     1      48.783  10.385  18.850  0.00  0.00    +0.000 NA
ATOM     27  C   UNL     1      48.744   9.520  19.815  0.00  0.00    +0.000 A 
ATOM     28  N   UNL     1      48.781   8.149  19.658  0.00  0.00    +0.000 N 
ATOM     29  C   UNL     1      48.891   7.567  18.401  0.00  0.00    +0.000 A 
ATOM     30  O   UNL     1      48.992   6.352  18.239  0.00  0.00    +0.000 OA
ATOM     31  C   UNL     1      48.869   8.504  17.290  0.00  0.00    +0.000 A 
BRANCH  28  32
ATOM     32  C   UNL     1      48.743   7.270  20.825  0.00  0.00    +0.000 C 
BRANCH  32  33
ATOM     33  C   UNL     1      47.326   6.784  21.136  0.00  0.00    +0.000 C 
BRANCH  33  34
ATOM     34  O   UNL     1      47.053   5.576  20.432  0.00  0.00    +0.000 OA
ATOM     35  H   UNL     1      47.781   5.431  19.801  0.00  0.00    +0.000 HD
ENDBRANCH  33  34
ENDBRANCH  32  33
ENDBRANCH  28  32
ENDBRANCH  19  22
ENDBRANCH   1  18
BRANCH   1  36
ATOM     36  C   UNL     1      47.225   3.828  16.101  0.00  0.00    +0.000 C 
BRANCH  36  37
ATOM     37  N   UNL     1      46.850   4.519  17.342  0.00  0.00    +0.000 NA
ATOM     38  H   UNL     1      47.143   3.962  18.141  0.00  0.00    +0.000 HD
ATOM     39  H   UNL     1      45.833   4.584  17.391  0.00  0.00    +0.000 HD
ENDBRANCH  36  37
ENDBRANCH   1  36
TORSDOF 11
ENDMDL
MODEL 3
REMARK VINA RESULT:    -7.104      4.872      8.688
REMARK INTER + INTRA:         -12.853
REMARK INTER:                 -11.230
REMARK INTRA:                  -1.623
REMARK UNBOUND:                -1.595
REMARK  Name = 
REMARK  11 active torsions:
REMARK  status: ('A' for Active; 'I' for Inactive)
REMARK    1  A    between atoms: N_1  and  C_2
REMARK    2  A    between atoms: C_2  and  C_3
REMARK    3  A    between atoms: C_3  and  N_4
REMARK    4  A    between atoms: C_3  and  C_20
REMARK    5  A    between atoms: C_5  and  C_7
REMARK    6  A    between atoms: N_13  and  C_14
REMARK    7  A    between atoms: C_14  and  C_15
REMARK    8  A    between atoms: C_15  and  O_16
REMARK    9  A    between atoms: C_23  and  C_24
REMARK   10  A    between atoms: C_24  and  N_25
REMARK   11  A    between atoms: C_26  and  C_28
REMARK                            x       y       z     vdW  Elec       q    Type
REMARK                         _______ _______ _______ _____ _____    ______ ____
ROOT
ATOM      1  C   UNL     1      49.402   8.298  12.995  0.00  0.00    +0.000 C 
ENDROOT
BRANCH   1   2
ATOM      2  C   UNL     1      48.051   7.645  12.719  0.00  0.00    +0.000 A 
ATOM      3  C   UNL     1      47.015   8.406  12.152  0.00  0.00    +0.000 A 
ATOM      4  C   UNL     1      45.769   7.831  11.863  0.00  0.00    +0.000 A 
ATOM      5  C   UNL     1      45.519   6.483  12.148  0.00  0.00    +0.000 A 
ATOM      6  C   UNL     1      46.540   5.726  12.735  0.00  0.00    +0.000 A 
ATOM      7  C   UNL     1      47.780   6.305  13.032  0.00  0.00    +0.000 A 
BRANCH   5   8
ATOM      8  C   UNL     1      44.177   5.858  11.863  0.00  0.00    +0.000 C 
BRANCH   8   9
ATOM      9  N   UNL     1      44.094   5.257  10.549  0.00  0.00    +0.000 N 
ATOM     10  C   UNL     1      44.414   3.920  10.386  0.00  0.00    +0.000 C 
ATOM     11  O   UNL     1      44.710   3.200  11.334  0.00  0.00    +0.000 OA
ATOM     12  H   UNL     1      44.042   5.867   9.743  0.00  0.00    +0.000 HD
BRANCH  10  13
ATOM     13  C   UNL     1      44.421   3.448   8.937  0.00  0.00    +0.000 C 
ATOM     14  C   UNL     1      44.550   1.944   8.807  0.00  0.00    +0.000 C 
ATOM     15  C   UNL     1      46.000   1.714   8.445  0.00  0.00    +0.000 C 
ATOM     16  O   UNL     1      46.489   2.906   7.837  0.00  0.00    +0.000 OA
ATOM     17  C   UNL     1      45.591   3.986   8.124  0.00  0.00    +0.000 C 
ENDBRANCH  10  13
ENDBRANCH   8   9
ENDBRANCH   5   8
ENDBRANCH   1   2
BRANCH   1  18
ATOM     18  N   UNL     1      50.104   7.496  13.991  0.00  0.00    +0.000 N 
ATOM     19  C   UNL     1      50.846   8.039  15.010  0.00  0.00    +0.000 C 
ATOM     20  O   UNL     1      50.840   9.237  15.272  0.00  0.00    +0.000 OA
ATOM     21  H   UNL     1      50.296   6.544  13.711  0.00  0.00    +0.000 HD
BRANCH  19  22
ATOM     22  C   UNL     1      51.612   7.074  15.813  0.00  0.00    +0.000 A 
ATOM     23  C   UNL     1      52.996   7.062  15.786  0.00  0.00    +0.000 A 
ATOM     24  S   UNL     1      53.684   5.915  16.848  0.00  0.00    +0.000 S 
ATOM     25  C   UNL     1      52.151   5.363  17.338  0.00  0.00    +0.000 A 
ATOM     26  N   UNL     1      52.016   4.369  18.252  0.00  0.00    +0.000 NA
ATOM     27  C   UNL     1      50.790   4.061  18.540  0.00  0.00    +0.000 A 
ATOM     28  N   UNL     1      49.670   4.639  17.977  0.00  0.00    +0.000 N 
ATOM     29  C   UNL     1      49.777   5.621  16.999  0.00  0.00    +0.000 A 
ATOM     30  O   UNL     1      48.797   6.104  16.435  0.00  0.00    +0.000 OA
ATOM     31  C   UNL     1      51.135   6.039  16.698  0.00  0.00    +0.000 A 
BRANCH  28  32
ATOM     32  C   UNL     1      48.334   4.201  18.373  0.00  0.00    +0.000 C 
BRANCH  32  33
ATOM     33  C   UNL     1      47.860   2.991  17.567  0.00  0.00    +0.000 C 
BRANCH  33  34
ATOM     34  O   UNL     1      46.436   2.944  17.536  0.00  0.00    +0.000 OA
ATOM     35  H   UNL     1      46.175   2.016  17.394  0.00  0.00    +0.000 HD
ENDBRANCH  33  34
ENDBRANCH  32  33
ENDBRANCH  28  32
ENDBRANCH  19  22
ENDBRANCH   1  18
BRANCH   1  36
ATOM     36  C   UNL     1      50.295   8.507  11.734  0.00  0.00    +0.000 C 
BRANCH  36  37
ATOM     37  N   UNL     1      51.190   7.378  11.444  0.00  0.00    +0.000 NA
ATOM     38  H   UNL     1      51.046   6.646  12.136  0.00  0.00    +0.000 HD
ATOM     39  H   UNL     1      52.157   7.686  11.546  0.00  0.00    +0.000 HD
ENDBRANCH  36  37
ENDBRANCH   1  36
TORSDOF 11
ENDMDL
MODEL 4
REMARK VINA RESULT:    -7.073      5.240      8.555
REMARK INTER + INTRA:         -12.803
REMARK INTER:                 -11.369
REMARK INTRA:                  -1.435
REMARK UNBOUND:                -1.595
REMARK  Name = 
REMARK  11 active torsions:
REMARK  status: ('A' for Active; 'I' for Inactive)
REMARK    1  A    between atoms: N_1  and  C_2
REMARK    2  A    between atoms: C_2  and  C_3
REMARK    3  A    between atoms: C_3  and  N_4
REMARK    4  A    between atoms: C_3  and  C_20
REMARK    5  A    between atoms: C_5  and  C_7
REMARK    6  A    between atoms: N_13  and  C_14
REMARK    7  A    between atoms: C_14  and  C_15
REMARK    8  A    between atoms: C_15  and  O_16
REMARK    9  A    between atoms: C_23  and  C_24
REMARK   10  A    between atoms: C_24  and  N_25
REMARK   11  A    between atoms: C_26  and  C_28
REMARK                            x       y       z     vdW  Elec       q    Type
REMARK                         _______ _______ _______ _____ _____    ______ ____
ROOT
ATOM      1  C   UNL     1      48.175   7.927  13.728  0.00  0.00    +0.000 C 
ENDROOT
BRANCH   1   2
ATOM      2  C   UNL     1      46.937   7.321  13.075  0.00  0.00    +0.000 A 
ATOM      3  C   UNL     1      46.566   6.001  13.382  0.00  0.00    +0.000 A 
ATOM      4  C   UNL     1      45.420   5.421  12.818  0.00  0.00    +0.000 A 
ATOM      5  C   UNL     1      44.622   6.140  11.919  0.00  0.00    +0.000 A 
ATOM      6  C   UNL     1      45.001   7.447  11.592  0.00  0.00    +0.000 A 
ATOM      7  C   UNL     1      46.150   8.021  12.148  0.00  0.00    +0.000 A 
BRANCH   5   8
ATOM      8  C   UNL     1      43.401   5.521  11.288  0.00  0.00    +0.000 C 
BRANCH   8   9
ATOM      9  N   UNL     1      43.657   4.960   9.978  0.00  0.00    +0.000 N 
ATOM     10  C   UNL     1      44.084   3.648   9.867  0.00  0.00    +0.000 C 
ATOM     11  O   UNL     1      44.198   2.914  10.843  0.00  0.00    +0.000 OA
ATOM     12  H   UNL     1      43.755   5.593   9.194  0.00  0.00    +0.000 HD
BRANCH  10  13
ATOM     13  C   UNL     1      44.452   3.225   8.449  0.00  0.00    +0.000 C 
ATOM     14  C   UNL     1      44.722   1.740   8.329  0.00  0.00    +0.000 C 
ATOM     15  C   UNL     1      46.230   1.626   8.299  0.00  0.00    +0.000 C 
ATOM     16  O   UNL     1      46.749   2.869   7.835  0.00  0.00    +0.000 OA
ATOM     17  C   UNL     1      45.728   3.872   7.929  0.00  0.00    +0.000 C 
ENDBRANCH  10  13
ENDBRANCH   8   9
ENDBRANCH   5   8
ENDBRANCH   1   2
BRANCH   1  18
ATOM     18  N   UNL     1      48.074   7.735  15.170  0.00  0.00    +0.000 N 
ATOM     19  C   UNL     1      48.563   8.632  16.087  0.00  0.00    +0.000 C 
ATOM     20  O   UNL     1      48.970   9.746  15.776  0.00  0.00    +0.000 OA
ATOM     21  H   UNL     1      47.933   6.778  15.462  0.00  0.00    +0.000 HD
BRANCH  19  22
ATOM     22  C   UNL     1      48.515   8.187  17.488  0.00  0.00    +0.000 A 
ATOM     23  C   UNL     1      48.065   9.030  18.490  0.00  0.00    +0.000 A 
ATOM     24  S   UNL     1      48.019   8.290  20.028  0.00  0.00    +0.000 S 
ATOM     25  C   UNL     1      48.649   6.835  19.411  0.00  0.00    +0.000 A 
ATOM     26  N   UNL     1      48.864   5.761  20.212  0.00  0.00    +0.000 NA
ATOM     27  C   UNL     1      49.334   4.717  19.604  0.00  0.00    +0.000 A 
ATOM     28  N   UNL     1      49.639   4.648  18.259  0.00  0.00    +0.000 N 
ATOM     29  C   UNL     1      49.481   5.748  17.424  0.00  0.00    +0.000 A 
ATOM     30  O   UNL     1      49.806   5.733  16.239  0.00  0.00    +0.000 OA
ATOM     31  C   UNL     1      48.894   6.917  18.058  0.00  0.00    +0.000 A 
BRANCH  28  32
ATOM     32  C   UNL     1      50.175   3.417  17.685  0.00  0.00    +0.000 C 
BRANCH  32  33
ATOM     33  C   UNL     1      49.082   2.549  17.057  0.00  0.00    +0.000 C 
BRANCH  33  34
ATOM     34  O   UNL     1      49.617   1.778  15.986  0.00  0.00    +0.000 OA
ATOM     35  H   UNL     1      48.874   1.324  15.550  0.00  0.00    +0.000 HD
ENDBRANCH  33  34
ENDBRANCH  32  33
ENDBRANCH  28  32
ENDBRANCH  19  22
ENDBRANCH   1  18
BRANCH   1  36
ATOM     36  C   UNL     1      49.532   7.370  13.197  0.00  0.00    +0.000 C 
BRANCH  36  37
ATOM     37  N   UNL     1      50.682   7.685  14.055  0.00  0.00    +0.000 NA
ATOM     38  H   UNL     1      50.805   8.694  14.100  0.00  0.00    +0.000 HD
ATOM     39  H   UNL     1      51.528   7.310  13.627  0.00  0.00    +0.000 HD
ENDBRANCH  36  37
ENDBRANCH   1  36
TORSDOF 11
ENDMDL
MODEL 5
REMARK VINA RESULT:    -6.566      6.139      9.725
REMARK INTER + INTRA:         -12.000
REMARK INTER:                 -10.545
REMARK INTRA:                  -1.454
REMARK UNBOUND:                -1.595
REMARK  Name = 
REMARK  11 active torsions:
REMARK  status: ('A' for Active; 'I' for Inactive)
REMARK    1  A    between atoms: N_1  and  C_2
REMARK    2  A    between atoms: C_2  and  C_3
REMARK    3  A    between atoms: C_3  and  N_4
REMARK    4  A    between atoms: C_3  and  C_20
REMARK    5  A    between atoms: C_5  and  C_7
REMARK    6  A    between atoms: N_13  and  C_14
REMARK    7  A    between atoms: C_14  and  C_15
REMARK    8  A    between atoms: C_15  and  O_16
REMARK    9  A    between atoms: C_23  and  C_24
REMARK   10  A    between atoms: C_24  and  N_25
REMARK   11  A    between atoms: C_26  and  C_28
REMARK                            x       y       z     vdW  Elec       q    Type
REMARK                         _______ _______ _______ _____ _____    ______ ____
ROOT
ATOM      1  C   UNL     1      48.115   4.053  17.662  0.00  0.00    +0.000 C 
ENDROOT
BRANCH   1   2
ATOM      2  C   UNL     1      47.833   4.626  16.277  0.00  0.00    +0.000 A 
ATOM      3  C   UNL     1      48.451   5.824  15.882  0.00  0.00    +0.000 A 
ATOM      4  C   UNL     1      48.233   6.365  14.606  0.00  0.00    +0.000 A 
ATOM      5  C   UNL     1      47.378   5.730  13.696  0.00  0.00    +0.000 A 
ATOM      6  C   UNL     1      46.741   4.549  14.093  0.00  0.00    +0.000 A 
ATOM      7  C   UNL     1      46.953   4.015  15.371  0.00  0.00    +0.000 A 
BRANCH   5   8
ATOM      8  C   UNL     1      47.116   6.313  12.331  0.00  0.00    +0.000 C 
BRANCH   8   9
ATOM      9  N   UNL     1      46.047   5.644  11.620  0.00  0.00    +0.000 N 
ATOM     10  C   UNL     1      44.840   6.295  11.431  0.00  0.00    +0.000 C 
ATOM     11  O   UNL     1      44.659   7.453  11.793  0.00  0.00    +0.000 OA
ATOM     12  H   UNL     1      46.108   4.643  11.488  0.00  0.00    +0.000 HD
BRANCH  10  13
ATOM     13  C   UNL     1      43.754   5.434  10.794  0.00  0.00    +0.000 C 
ATOM     14  C   UNL     1      42.879   4.738  11.816  0.00  0.00    +0.000 C 
ATOM     15  C   UNL     1      43.392   3.316  11.853  0.00  0.00    +0.000 C 
ATOM     16  O   UNL     1      44.033   3.054  10.608  0.00  0.00    +0.000 OA
ATOM     17  C   UNL     1      44.298   4.295   9.943  0.00  0.00    +0.000 C 
ENDBRANCH  10  13
ENDBRANCH   8   9
ENDBRANCH   5   8
ENDBRANCH   1   2
BRANCH   1  18
ATOM     18  N   UNL     1      49.523   3.679  17.727  0.00  0.00    +0.000 N 
ATOM     19  C   UNL     1      50.040   2.574  17.098  0.00  0.00    +0.000 C 
ATOM     20  O   UNL     1      49.400   1.907  16.292  0.00  0.00    +0.000 OA
ATOM     21  H   UNL     1      50.031   4.068  18.510  0.00  0.00    +0.000 HD
BRANCH  19  22
ATOM     22  C   UNL     1      51.444   2.270  17.413  0.00  0.00    +0.000 A 
ATOM     23  C   UNL     1      51.852   0.975  17.683  0.00  0.00    +0.000 A 
ATOM     24  S   UNL     1      53.533   0.835  17.948  0.00  0.00    +0.000 S 
ATOM     25  C   UNL     1      53.760   2.512  17.762  0.00  0.00    +0.000 A 
ATOM     26  N   UNL     1      54.990   3.075  17.867  0.00  0.00    +0.000 NA
ATOM     27  C   UNL     1      55.015   4.359  17.688  0.00  0.00    +0.000 A 
ATOM     28  N   UNL     1      53.912   5.150  17.437  0.00  0.00    +0.000 N 
ATOM     29  C   UNL     1      52.633   4.610  17.378  0.00  0.00    +0.000 A 
ATOM     30  O   UNL     1      51.628   5.301  17.221  0.00  0.00    +0.000 OA
ATOM     31  C   UNL     1      52.574   3.164  17.508  0.00  0.00    +0.000 A 
BRANCH  28  32
ATOM     32  C   UNL     1      54.061   6.592  17.263  0.00  0.00    +0.000 C 
BRANCH  32  33
ATOM     33  C   UNL     1      54.371   6.970  15.813  0.00  0.00    +0.000 C 
BRANCH  33  34
ATOM     34  O   UNL     1      53.181   6.945  15.030  0.00  0.00    +0.000 OA
ATOM     35  H   UNL     1      53.382   7.370  14.177  0.00  0.00    +0.000 HD
ENDBRANCH  33  34
ENDBRANCH  32  33
ENDBRANCH  28  32
ENDBRANCH  19  22
ENDBRANCH   1  18
BRANCH   1  36
ATOM     36  C   UNL     1      47.747   5.000  18.847  0.00  0.00    +0.000 C 
BRANCH  36  37
ATOM     37  N   UNL     1      46.354   5.467  18.826  0.00  0.00    +0.000 NA
ATOM     38  H   UNL     1      45.842   5.038  19.594  0.00  0.00    +0.000 HD
ATOM     39  H   UNL     1      45.910   5.145  17.967  0.00  0.00    +0.000 HD
ENDBRANCH  36  37
ENDBRANCH   1  36
TORSDOF 11
ENDMDL
MODEL 6
REMARK VINA RESULT:    -6.336      7.266     10.127
REMARK INTER + INTRA:         -11.635
REMARK INTER:                 -10.833
REMARK INTRA:                  -0.802
REMARK UNBOUND:                -1.595
REMARK  Name = 
REMARK  11 active torsions:
REMARK  status: ('A' for Active; 'I' for Inactive)
REMARK    1  A    between atoms: N_1  and  C_2
REMARK    2  A    between atoms: C_2  and  C_3
REMARK    3  A    between atoms: C_3  and  N_4
REMARK    4  A    between atoms: C_3  and  C_20
REMARK    5  A    between atoms: C_5  and  C_7
REMARK    6  A    between atoms: N_13  and  C_14
REMARK    7  A    between atoms: C_14  and  C_15
REMARK    8  A    between atoms: C_15  and  O_16
REMARK    9  A    between atoms: C_23  and  C_24
REMARK   10  A    between atoms: C_24  and  N_25
REMARK   11  A    between atoms: C_26  and  C_28
REMARK                            x       y       z     vdW  Elec       q    Type
REMARK                         _______ _______ _______ _____ _____    ______ ____
ROOT
ATOM      1  C   UNL     1      48.479   4.461  17.653  0.00  0.00    +0.000 C 
ENDROOT
BRANCH   1   2
ATOM      2  C   UNL     1      48.111   4.995  16.271  0.00  0.00    +0.000 A 
ATOM      3  C   UNL     1      47.231   4.263  15.457  0.00  0.00    +0.000 A 
ATOM      4  C   UNL     1      46.852   4.737  14.192  0.00  0.00    +0.000 A 
ATOM      5  C   UNL     1      47.358   5.946  13.699  0.00  0.00    +0.000 A 
ATOM      6  C   UNL     1      48.255   6.667  14.497  0.00  0.00    +0.000 A 
ATOM      7  C   UNL     1      48.638   6.188  15.756  0.00  0.00    +0.000 A 
BRANCH   5   8
ATOM      8  C   UNL     1      46.978   6.455  12.333  0.00  0.00    +0.000 C 
BRANCH   8   9
ATOM      9  N   UNL     1      45.943   5.667  11.697  0.00  0.00    +0.000 N 
ATOM     10  C   UNL     1      44.728   6.255  11.388  0.00  0.00    +0.000 C 
ATOM     11  O   UNL     1      44.514   7.448  11.578  0.00  0.00    +0.000 OA
ATOM     12  H   UNL     1      46.029   4.659  11.710  0.00  0.00    +0.000 HD
BRANCH  10  13
ATOM     13  C   UNL     1      43.680   5.287  10.853  0.00  0.00    +0.000 C 
ATOM     14  C   UNL     1      42.898   4.598  11.952  0.00  0.00    +0.000 C 
ATOM     15  C   UNL     1      43.509   3.218  12.048  0.00  0.00    +0.000 C 
ATOM     16  O   UNL     1      44.114   2.923  10.793  0.00  0.00    +0.000 OA
ATOM     17  C   UNL     1      44.265   4.137  10.045  0.00  0.00    +0.000 C 
ENDBRANCH  10  13
ENDBRANCH   8   9
ENDBRANCH   5   8
ENDBRANCH   1   2
BRANCH   1  18
ATOM     18  N   UNL     1      49.930   4.501  17.789  0.00  0.00    +0.000 N 
ATOM     19  C   UNL     1      50.753   3.473  17.402  0.00  0.00    +0.000 C 
ATOM     20  O   UNL     1      50.355   2.510  16.755  0.00  0.00    +0.000 OA
ATOM     21  H   UNL     1      50.275   5.161  18.472  0.00  0.00    +0.000 HD
BRANCH  19  22
ATOM     22  C   UNL     1      52.168   3.628  17.769  0.00  0.00    +0.000 A 
ATOM     23  C   UNL     1      52.728   4.883  17.943  0.00  0.00    +0.000 A 
ATOM     24  S   UNL     1      54.361   4.833  18.441  0.00  0.00    +0.000 S 
ATOM     25  C   UNL     1      54.385   3.132  18.388  0.00  0.00    +0.000 A 
ATOM     26  N   UNL     1      55.503   2.431  18.707  0.00  0.00    +0.000 NA
ATOM     27  C   UNL     1      55.372   1.143  18.636  0.00  0.00    +0.000 A 
ATOM     28  N   UNL     1      54.226   0.479  18.248  0.00  0.00    +0.000 N 
ATOM     29  C   UNL     1      53.084   1.170  17.863  0.00  0.00    +0.000 A 
ATOM     30  O   UNL     1      52.073   0.605  17.451  0.00  0.00    +0.000 OA
ATOM     31  C   UNL     1      53.171   2.615  17.993  0.00  0.00    +0.000 A 
BRANCH  28  32
ATOM     32  C   UNL     1      54.200  -0.981  18.196  0.00  0.00    +0.000 C 
BRANCH  32  33
ATOM     33  C   UNL     1      54.880  -1.527  16.939  0.00  0.00    +0.000 C 
BRANCH  33  34
ATOM     34  O   UNL     1      54.125  -1.186  15.780  0.00  0.00    +0.000 OA
ATOM     35  H   UNL     1      54.118  -1.964  15.194  0.00  0.00    +0.000 HD
ENDBRANCH  33  34
ENDBRANCH  32  33
ENDBRANCH  28  32
ENDBRANCH  19  22
ENDBRANCH   1  18
BRANCH   1  36
ATOM     36  C   UNL     1      47.798   5.208  18.842  0.00  0.00    +0.000 C 
BRANCH  36  37
ATOM     37  N   UNL     1      46.370   5.482  18.634  0.00  0.00    +0.000 NA
ATOM     38  H   UNL     1      46.107   6.319  19.151  0.00  0.00    +0.000 HD
ATOM     39  H   UNL     1      45.825   4.716  19.029  0.00  0.00    +0.000 HD
ENDBRANCH  36  37
ENDBRANCH   1  36
TORSDOF 11
ENDMDL
MODEL 7
REMARK VINA RESULT:    -6.187      4.635      8.797
REMARK INTER + INTRA:         -11.399
REMARK INTER:                  -9.890
REMARK INTRA:                  -1.509
REMARK UNBOUND:                -1.595
REMARK  Name = 
REMARK  11 active torsions:
REMARK  status: ('A' for Active; 'I' for Inactive)
REMARK    1  A    between atoms: N_1  and  C_2
REMARK    2  A    between atoms: C_2  and  C_3
REMARK    3  A    between atoms: C_3  and  N_4
REMARK    4  A    between atoms: C_3  and  C_20
REMARK    5  A    between atoms: C_5  and  C_7
REMARK    6  A    between atoms: N_13  and  C_14
REMARK    7  A    between atoms: C_14  and  C_15
REMARK    8  A    between atoms: C_15  and  O_16
REMARK    9  A    between atoms: C_23  and  C_24
REMARK   10  A    between atoms: C_24  and  N_25
REMARK   11  A    between atoms: C_26  and  C_28
REMARK                            x       y       z     vdW  Elec       q    Type
REMARK                         _______ _______ _______ _____ _____    ______ ____
ROOT
ATOM      1  C   UNL     1      50.775   8.591  12.365  0.00  0.00    +0.000 C 
ENDROOT
BRANCH   1   2
ATOM      2  C   UNL     1      49.254   8.579  12.239  0.00  0.00    +0.000 A 
ATOM      3  C   UNL     1      48.576   7.353  12.142  0.00  0.00    +0.000 A 
ATOM      4  C   UNL     1      47.177   7.304  12.050  0.00  0.00    +0.000 A 
ATOM      5  C   UNL     1      46.419   8.482  12.035  0.00  0.00    +0.000 A 
ATOM      6  C   UNL     1      47.092   9.707  12.106  0.00  0.00    +0.000 A 
ATOM      7  C   UNL     1      48.490   9.754  12.189  0.00  0.00    +0.000 A 
BRANCH   5   8
ATOM      8  C   UNL     1      44.918   8.446  11.913  0.00  0.00    +0.000 C 
BRANCH   8   9
ATOM      9  N   UNL     1      44.437   7.347  11.101  0.00  0.00    +0.000 N 
ATOM     10  C   UNL     1      43.998   6.185  11.713  0.00  0.00    +0.000 C 
ATOM     11  O   UNL     1      43.943   6.071  12.933  0.00  0.00    +0.000 OA
ATOM     12  H   UNL     1      44.653   7.349  10.113  0.00  0.00    +0.000 HD
BRANCH  10  13
ATOM     13  C   UNL     1      43.652   5.058  10.746  0.00  0.00    +0.000 C 
ATOM     14  C   UNL     1      43.048   3.854  11.437  0.00  0.00    +0.000 C 
ATOM     15  C   UNL     1      44.182   2.856  11.526  0.00  0.00    +0.000 C 
ATOM     16  O   UNL     1      45.115   3.168  10.496  0.00  0.00    +0.000 OA
ATOM     17  C   UNL     1      44.859   4.492  10.011  0.00  0.00    +0.000 C 
ENDBRANCH  10  13
ENDBRANCH   8   9
ENDBRANCH   5   8
ENDBRANCH   1   2
BRANCH   1  18
ATOM     18  N   UNL     1      51.149   7.741  13.489  0.00  0.00    +0.000 N 
ATOM     19  C   UNL     1      51.409   8.224  14.747  0.00  0.00    +0.000 C 
ATOM     20  O   UNL     1      51.182   9.384  15.074  0.00  0.00    +0.000 OA
ATOM     21  H   UNL     1      51.529   6.840  13.232  0.00  0.00    +0.000 HD
BRANCH  19  22
ATOM     22  C   UNL     1      51.929   7.236  15.704  0.00  0.00    +0.000 A 
ATOM     23  C   UNL     1      53.290   7.103  15.925  0.00  0.00    +0.000 A 
ATOM     24  S   UNL     1      53.672   5.954  17.129  0.00  0.00    +0.000 S 
ATOM     25  C   UNL     1      52.031   5.561  17.356  0.00  0.00    +0.000 A 
ATOM     26  N   UNL     1      51.647   4.628  18.263  0.00  0.00    +0.000 NA
ATOM     27  C   UNL     1      50.366   4.442  18.339  0.00  0.00    +0.000 A 
ATOM     28  N   UNL     1      49.420   5.087  17.567  0.00  0.00    +0.000 N 
ATOM     29  C   UNL     1      49.787   6.007  16.592  0.00  0.00    +0.000 A 
ATOM     30  O   UNL     1      48.970   6.546  15.847  0.00  0.00    +0.000 OA
ATOM     31  C   UNL     1      51.211   6.290  16.524  0.00  0.00    +0.000 A 
BRANCH  28  32
ATOM     32  C   UNL     1      48.000   4.787  17.734  0.00  0.00    +0.000 C 
BRANCH  32  33
ATOM     33  C   UNL     1      47.604   3.474  17.054  0.00  0.00    +0.000 C 
BRANCH  33  34
ATOM     34  O   UNL     1      46.411   2.957  17.637  0.00  0.00    +0.000 OA
ATOM     35  H   UNL     1      46.114   2.211  17.085  0.00  0.00    +0.000 HD
ENDBRANCH  33  34
ENDBRANCH  32  33
ENDBRANCH  28  32
ENDBRANCH  19  22
ENDBRANCH   1  18
BRANCH   1  36
ATOM     36  C   UNL     1      51.540   8.160  11.076  0.00  0.00    +0.000 C 
BRANCH  36  37
ATOM     37  N   UNL     1      52.842   8.820  10.907  0.00  0.00    +0.000 NA
ATOM     38  H   UNL     1      52.762   9.799  11.174  0.00  0.00    +0.000 HD
ATOM     39  H   UNL     1      53.093   8.810   9.919  0.00  0.00    +0.000 HD
ENDBRANCH  36  37
ENDBRANCH   1  36
TORSDOF 11
ENDMDL
MODEL 8
REMARK VINA RESULT:    -6.058      5.414      9.013
REMARK INTER + INTRA:         -11.195
REMARK INTER:                  -9.581
REMARK INTRA:                  -1.614
REMARK UNBOUND:                -1.595
REMARK  Name = 
REMARK  11 active torsions:
REMARK  status: ('A' for Active; 'I' for Inactive)
REMARK    1  A    between atoms: N_1  and  C_2
REMARK    2  A    between atoms: C_2  and  C_3
REMARK    3  A    between atoms: C_3  and  N_4
REMARK    4  A    between atoms: C_3  and  C_20
REMARK    5  A    between atoms: C_5  and  C_7
REMARK    6  A    between atoms: N_13  and  C_14
REMARK    7  A    between atoms: C_14  and  C_15
REMARK    8  A    between atoms: C_15  and  O_16
REMARK    9  A    between atoms: C_23  and  C_24
REMARK   10  A    between atoms: C_24  and  N_25
REMARK   11  A    between atoms: C_26  and  C_28
REMARK                            x       y       z     vdW  Elec       q    Type
REMARK                         _______ _______ _______ _____ _____    ______ ____
ROOT
ATOM      1  C   UNL     1      49.370   8.842  14.340  0.00  0.00    +0.000 C 
ENDROOT
BRANCH   1   2
ATOM      2  C   UNL     1      48.104   8.552  13.539  0.00  0.00    +0.000 A 
ATOM      3  C   UNL     1      47.586   7.247  13.510  0.00  0.00    +0.000 A 
ATOM      4  C   UNL     1      46.411   6.950  12.805  0.00  0.00    +0.000 A 
ATOM      5  C   UNL     1      45.731   7.947  12.093  0.00  0.00    +0.000 A 
ATOM      6  C   UNL     1      46.257   9.244  12.099  0.00  0.00    +0.000 A 
ATOM      7  C   UNL     1      47.436   9.537  12.797  0.00  0.00    +0.000 A 
BRANCH   5   8
ATOM      8  C   UNL     1      44.480   7.637  11.311  0.00  0.00    +0.000 C 
BRANCH   8   9
ATOM      9  N   UNL     1      44.316   6.226  11.033  0.00  0.00    +0.000 N 
ATOM     10  C   UNL     1      43.127   5.598  11.363  0.00  0.00    +0.000 C 
ATOM     11  O   UNL     1      42.174   6.210  11.833  0.00  0.00    +0.000 OA
ATOM     12  H   UNL     1      45.140   5.676  10.830  0.00  0.00    +0.000 HD
BRANCH  10  13
ATOM     13  C   UNL     1      43.134   4.088  11.148  0.00  0.00    +0.000 C 
ATOM     14  C   UNL     1      43.570   3.319  12.377  0.00  0.00    +0.000 C 
ATOM     15  C   UNL     1      45.008   2.938  12.099  0.00  0.00    +0.000 C 
ATOM     16  O   UNL     1      45.187   2.927  10.686  0.00  0.00    +0.000 OA
ATOM     17  C   UNL     1      44.102   3.629  10.066  0.00  0.00    +0.000 C 
ENDBRANCH  10  13
ENDBRANCH   8   9
ENDBRANCH   5   8
ENDBRANCH   1   2
BRANCH   1  18
ATOM     18  N   UNL     1      49.124   8.485  15.732  0.00  0.00    +0.000 N 
ATOM     19  C   UNL     1      49.905   8.923  16.773  0.00  0.00    +0.000 C 
ATOM     20  O   UNL     1      50.766   9.786  16.641  0.00  0.00    +0.000 OA
ATOM     21  H   UNL     1      48.570   7.650  15.865  0.00  0.00    +0.000 HD
BRANCH  19  22
ATOM     22  C   UNL     1      49.600   8.327  18.082  0.00  0.00    +0.000 A 
ATOM     23  C   UNL     1      49.528   9.106  19.223  0.00  0.00    +0.000 A 
ATOM     24  S   UNL     1      49.088   8.226  20.619  0.00  0.00    +0.000 S 
ATOM     25  C   UNL     1      49.030   6.764  19.749  0.00  0.00    +0.000 A 
ATOM     26  N   UNL     1      48.708   5.594  20.355  0.00  0.00    +0.000 NA
ATOM     27  C   UNL     1      48.689   4.564  19.566  0.00  0.00    +0.000 A 
ATOM     28  N   UNL     1      48.992   4.586  18.220  0.00  0.00    +0.000 N 
ATOM     29  C   UNL     1      49.379   5.759  17.584  0.00  0.00    +0.000 A 
ATOM     30  O   UNL     1      49.717   5.793  16.402  0.00  0.00    +0.000 OA
ATOM     31  C   UNL     1      49.347   6.947  18.421  0.00  0.00    +0.000 A 
BRANCH  28  32
ATOM     32  C   UNL     1      48.948   3.356  17.433  0.00  0.00    +0.000 C 
BRANCH  32  33
ATOM     33  C   UNL     1      47.617   3.188  16.697  0.00  0.00    +0.000 C 
BRANCH  33  34
ATOM     34  O   UNL     1      46.597   2.784  17.606  0.00  0.00    +0.000 OA
ATOM     35  H   UNL     1      47.007   2.685  18.484  0.00  0.00    +0.000 HD
ENDBRANCH  33  34
ENDBRANCH  32  33
ENDBRANCH  28  32
ENDBRANCH  19  22
ENDBRANCH   1  18
BRANCH   1  36
ATOM     36  C   UNL     1      50.654   8.130  13.812  0.00  0.00    +0.000 C 
BRANCH  36  37
ATOM     37  N   UNL     1      51.866   8.958  13.883  0.00  0.00    +0.000 NA
ATOM     38  H   UNL     1      52.619   8.500  13.374  0.00  0.00    +0.000 HD
ATOM     39  H   UNL     1      52.169   9.019  14.855  0.00  0.00    +0.000 HD
ENDBRANCH  36  37
ENDBRANCH   1  36
TORSDOF 11
ENDMDL
MODEL 9
REMARK VINA RESULT:    -5.823      5.154      6.537
REMARK INTER + INTRA:         -10.822
REMARK INTER:                 -10.183
REMARK INTRA:                  -0.639
REMARK UNBOUND:                -1.595
REMARK  Name = 
REMARK  11 active torsions:
REMARK  status: ('A' for Active; 'I' for Inactive)
REMARK    1  A    between atoms: N_1  and  C_2
REMARK    2  A    between atoms: C_2  and  C_3
REMARK    3  A    between atoms: C_3  and  N_4
REMARK    4  A    between atoms: C_3  and  C_20
REMARK    5  A    between atoms: C_5  and  C_7
REMARK    6  A    between atoms: N_13  and  C_14
REMARK    7  A    between atoms: C_14  and  C_15
REMARK    8  A    between atoms: C_15  and  O_16
REMARK    9  A    between atoms: C_23  and  C_24
REMARK   10  A    between atoms: C_24  and  N_25
REMARK   11  A    between atoms: C_26  and  C_28
REMARK                            x       y       z     vdW  Elec       q    Type
REMARK                         _______ _______ _______ _____ _____    ______ ____
ROOT
ATOM      1  C   UNL     1      48.358   4.462  17.344  0.00  0.00    +0.000 C 
ENDROOT
BRANCH   1   2
ATOM      2  C   UNL     1      49.874   4.623  17.393  0.00  0.00    +0.000 A 
ATOM      3  C   UNL     1      50.676   3.530  17.760  0.00  0.00    +0.000 A 
ATOM      4  C   UNL     1      52.074   3.636  17.791  0.00  0.00    +0.000 A 
ATOM      5  C   UNL     1      52.708   4.844  17.474  0.00  0.00    +0.000 A 
ATOM      6  C   UNL     1      51.912   5.943  17.132  0.00  0.00    +0.000 A 
ATOM      7  C   UNL     1      50.516   5.838  17.109  0.00  0.00    +0.000 A 
BRANCH   5   8
ATOM      8  C   UNL     1      54.208   4.979  17.526  0.00  0.00    +0.000 C 
BRANCH   8   9
ATOM      9  N   UNL     1      54.764   5.642  16.365  0.00  0.00    +0.000 N 
ATOM     10  C   UNL     1      55.337   6.895  16.501  0.00  0.00    +0.000 C 
ATOM     11  O   UNL     1      55.449   7.446  17.591  0.00  0.00    +0.000 OA
ATOM     12  H   UNL     1      54.512   5.297  15.448  0.00  0.00    +0.000 HD
BRANCH  10  13
ATOM     13  C   UNL     1      55.755   7.541  15.185  0.00  0.00    +0.000 C 
ATOM     14  C   UNL     1      55.161   8.920  14.990  0.00  0.00    +0.000 C 
ATOM     15  C   UNL     1      54.010   8.708  14.030  0.00  0.00    +0.000 C 
ATOM     16  O   UNL     1      54.278   7.522  13.289  0.00  0.00    +0.000 OA
ATOM     17  C   UNL     1      55.300   6.769  13.954  0.00  0.00    +0.000 C 
ENDBRANCH  10  13
ENDBRANCH   8   9
ENDBRANCH   5   8
ENDBRANCH   1   2
BRANCH   1  18
ATOM     18  N   UNL     1      47.847   5.266  16.240  0.00  0.00    +0.000 N 
ATOM     19  C   UNL     1      47.680   4.781  14.967  0.00  0.00    +0.000 C 
ATOM     20  O   UNL     1      47.783   3.591  14.690  0.00  0.00    +0.000 OA
ATOM     21  H   UNL     1      47.934   6.265  16.366  0.00  0.00    +0.000 HD
BRANCH  19  22
ATOM     22  C   UNL     1      47.310   5.783  13.956  0.00  0.00    +0.000 A 
ATOM     23  C   UNL     1      48.092   6.907  13.744  0.00  0.00    +0.000 A 
ATOM     24  S   UNL     1      47.524   7.898  12.475  0.00  0.00    +0.000 S 
ATOM     25  C   UNL     1      46.185   6.882  12.204  0.00  0.00    +0.000 A 
ATOM     26  N   UNL     1      45.275   7.156  11.235  0.00  0.00    +0.000 NA
ATOM     27  C   UNL     1      44.317   6.289  11.132  0.00  0.00    +0.000 A 
ATOM     28  N   UNL     1      44.162   5.174  11.932  0.00  0.00    +0.000 N 
ATOM     29  C   UNL     1      45.047   4.898  12.967  0.00  0.00    +0.000 A 
ATOM     30  O   UNL     1      44.895   3.948  13.734  0.00  0.00    +0.000 OA
ATOM     31  C   UNL     1      46.172   5.811  13.070  0.00  0.00    +0.000 A 
BRANCH  28  32
ATOM     32  C   UNL     1      43.032   4.271  11.729  0.00  0.00    +0.000 C 
BRANCH  32  33
ATOM     33  C   UNL     1      43.462   2.935  11.118  0.00  0.00    +0.000 C 
BRANCH  33  34
ATOM     34  O   UNL     1      43.295   1.883  12.063  0.00  0.00    +0.000 OA
ATOM     35  H   UNL     1      42.560   2.131  12.653  0.00  0.00    +0.000 HD
ENDBRANCH  33  34
ENDBRANCH  32  33
ENDBRANCH  28  32
ENDBRANCH  19  22
ENDBRANCH   1  18
BRANCH   1  36
ATOM     36  C   UNL     1      47.862   2.988  17.220  0.00  0.00    +0.000 C 
BRANCH  36  37
ATOM     37  N   UNL     1      46.486   2.781  17.692  0.00  0.00    +0.000 NA
ATOM     38  H   UNL     1      46.320   1.786  17.826  0.00  0.00    +0.000 HD
ATOM     39  H   UNL     1      45.837   3.087  16.967  0.00  0.00    +0.000 HD
ENDBRANCH  36  37
ENDBRANCH   1  36
TORSDOF 11
ENDMDL
