MODEL 1
REMARK VINA RESULT:    -8.273      0.000      0.000
REMARK INTER + INTRA:         -12.522
REMARK INTER:                 -11.900
REMARK INTRA:                  -0.622
REMARK UNBOUND:                -0.622
REMARK  Name = 
REMARK  9 active torsions:
REMARK  status: ('A' for Active; 'I' for Inactive)
REMARK    1  A    between atoms: C_1  and  C_2
REMARK    2  A    between atoms: C_2  and  O_3
REMARK    3  A    between atoms: O_3  and  C_4
REMARK    4  A    between atoms: C_8  and  C_9
REMARK    5  A    between atoms: C_9  and  C_10
REMARK    6  A    between atoms: C_10  and  N_11
REMARK    7  A    between atoms: N_11  and  C_12
REMARK    8  A    between atoms: C_15  and  C_16
REMARK    9  A    between atoms: C_23  and  O_24
REMARK                            x       y       z     vdW  Elec       q    Type
REMARK                         _______ _______ _______ _____ _____    ______ ____
ROOT
ATOM      1  C   UNL     1      43.741   5.280  12.558  0.00  0.00    +0.000 C 
ENDROOT
BRANCH   1   6
ATOM      2  C   UNL     1      47.273   5.208  14.113  0.00  0.00    +0.000 A 
ATOM      3  C   UNL     1      47.871   6.259  13.429  0.00  0.00    +0.000 A 
ATOM      4  C   UNL     1      47.122   7.029  12.537  0.00  0.00    +0.000 A 
ATOM      5  C   UNL     1      45.781   6.724  12.294  0.00  0.00    +0.000 A 
ATOM      6  C   UNL     1      45.174   5.631  12.923  0.00  0.00    +0.000 A 
ATOM      7  C   UNL     1      45.937   4.897  13.849  0.00  0.00    +0.000 A 
BRANCH   2   8
ATOM      8  O   UNL     1      47.869   4.406  15.057  0.00  0.00    +0.000 OA
BRANCH   8  10
ATOM      9  C   UNL     1      49.227   6.078  16.216  0.00  0.00    +0.000 C 
ATOM     10  C   UNL     1      48.233   4.926  16.362  0.00  0.00    +0.000 C 
ATOM     11  C   UNL     1      47.092   5.083  17.412  0.00  0.00    +0.000 C 
ATOM     12  C   UNL     1      47.495   3.739  18.034  0.00  0.00    +0.000 C 
ATOM     13  C   UNL     1      48.840   3.835  17.300  0.00  0.00    +0.000 C 
BRANCH  12  14
ATOM     14  O   UNL     1      46.673   2.601  17.708  0.00  0.00    +0.000 OA
ATOM     15  H   UNL     1      46.455   2.697  16.764  0.00  0.00    +0.000 HD
ENDBRANCH  12  14
ENDBRANCH   8  10
ENDBRANCH   2   8
ENDBRANCH   1   6
BRANCH   1  16
ATOM     16  C   UNL     1      43.625   4.178  11.502  0.00  0.00    +0.000 C 
BRANCH  16  17
ATOM     17  N   UNL     1      43.769   4.673  10.129  0.00  0.00    +0.000 N 
ATOM     18  H   UNL     1      44.017   5.661  10.100  0.00  0.00    +0.000 HD
BRANCH  17  19
ATOM     19  C   UNL     1      44.628   3.907   9.311  0.00  0.00    +0.000 A 
ATOM     20  C   UNL     1      45.560   4.482   8.437  0.00  0.00    +0.000 A 
ATOM     21  C   UNL     1      46.427   3.688   7.689  0.00  0.00    +0.000 A 
ATOM     22  C   UNL     1      46.367   2.315   7.860  0.00  0.00    +0.000 A 
ATOM     23  N   UNL     1      45.515   1.699   8.726  0.00  0.00    +0.000 NA
ATOM     24  C   UNL     1      44.691   2.515   9.433  0.00  0.00    +0.000 A 
BRANCH  22  25
ATOM     25  C   UNL     1      47.292   1.441   7.075  0.00  0.00    +0.000 C 
ATOM     26  N   UNL     1      48.389   2.065   6.555  0.00  0.00    +0.000 N 
ATOM     27  O   UNL     1      47.088   0.246   6.905  0.00  0.00    +0.000 OA
ATOM     28  H   UNL     1      48.514   3.063   6.700  0.00  0.00    +0.000 HD
ATOM     29  H   UNL     1      49.044   1.540   5.993  0.00  0.00    +0.000 HD
ENDBRANCH  22  25
ENDBRANCH  17  19
ENDBRANCH  16  17
ENDBRANCH   1  16
TORSDOF 8
ENDMDL
MODEL 2
REMARK VINA RESULT:    -8.094      3.471      5.142
REMARK INTER + INTRA:         -12.265
REMARK INTER:                 -11.144
REMARK INTRA:                  -1.121
REMARK UNBOUND:                -0.622
REMARK  Name = 
REMARK  9 active torsions:
REMARK  status: ('A' for Active; 'I' for Inactive)
REMARK    1  A    between atoms: C_1  and  C_2
REMARK    2  A    between atoms: C_2  and  O_3
REMARK    3  A    between atoms: O_3  and  C_4
REMARK    4  A    between atoms: C_8  and  C_9
REMARK    5  A    between atoms: C_9  and  C_10
REMARK    6  A    between atoms: C_10  and  N_11
REMARK    7  A    between atoms: N_11  and  C_12
REMARK    8  A    between atoms: C_15  and  C_16
REMARK    9  A    between atoms: C_23  and  O_24
REMARK                            x       y       z     vdW  Elec       q    Type
REMARK                         _______ _______ _______ _____ _____    ______ ____
ROOT
ATOM      1  C   UNL     1      44.607   4.636  12.255  0.00  0.00    +0.000 C 
ENDROOT
BRANCH   1   6
ATOM      2  C   UNL     1      45.412   8.410  12.344  0.00  0.00    +0.000 A 
ATOM      3  C   UNL     1      46.779   8.382  12.100  0.00  0.00    +0.000 A 
ATOM      4  C   UNL     1      47.417   7.169  11.833  0.00  0.00    +0.000 A 
ATOM      5  C   UNL     1      46.697   5.973  11.849  0.00  0.00    +0.000 A 
ATOM      6  C   UNL     1      45.331   5.969  12.155  0.00  0.00    +0.000 A 
ATOM      7  C   UNL     1      44.702   7.207  12.379  0.00  0.00    +0.000 A 
BRANCH   2   8
ATOM      8  O   UNL     1      44.646   9.530  12.564  0.00  0.00    +0.000 OA
BRANCH   8  10
ATOM      9  C   UNL     1      45.462  11.515  11.392  0.00  0.00    +0.000 C 
ATOM     10  C   UNL     1      44.357  10.465  11.492  0.00  0.00    +0.000 C 
ATOM     11  C   UNL     1      43.795   9.876  10.163  0.00  0.00    +0.000 C 
ATOM     12  C   UNL     1      42.374  10.236  10.618  0.00  0.00    +0.000 C 
ATOM     13  C   UNL     1      42.979  11.179  11.668  0.00  0.00    +0.000 C 
BRANCH  12  14
ATOM     14  O   UNL     1      41.563   9.158  11.125  0.00  0.00    +0.000 OA
ATOM     15  H   UNL     1      41.284   9.435  12.016  0.00  0.00    +0.000 HD
ENDBRANCH  12  14
ENDBRANCH   8  10
ENDBRANCH   2   8
ENDBRANCH   1   6
BRANCH   1  16
ATOM     16  C   UNL     1      43.421   4.504  11.297  0.00  0.00    +0.000 C 
BRANCH  16  17
ATOM     17  N   UNL     1      43.741   4.887   9.919  0.00  0.00    +0.000 N 
ATOM     18  H   UNL     1      44.111   5.836   9.860  0.00  0.00    +0.000 HD
BRANCH  17  19
ATOM     19  C   UNL     1      44.566   3.974   9.227  0.00  0.00    +0.000 A 
ATOM     20  C   UNL     1      45.610   4.377   8.384  0.00  0.00    +0.000 A 
ATOM     21  C   UNL     1      46.436   3.440   7.765  0.00  0.00    +0.000 A 
ATOM     22  C   UNL     1      46.218   2.100   8.035  0.00  0.00    +0.000 A 
ATOM     23  N   UNL     1      45.250   1.646   8.879  0.00  0.00    +0.000 NA
ATOM     24  C   UNL     1      44.472   2.597   9.459  0.00  0.00    +0.000 A 
BRANCH  22  25
ATOM     25  C   UNL     1      47.094   1.074   7.389  0.00  0.00    +0.000 C 
ATOM     26  N   UNL     1      48.064   1.567   6.564  0.00  0.00    +0.000 N 
ATOM     27  O   UNL     1      46.960  -0.128   7.581  0.00  0.00    +0.000 OA
ATOM     28  H   UNL     1      48.132   2.569   6.413  0.00  0.00    +0.000 HD
ATOM     29  H   UNL     1      48.677   0.929   6.076  0.00  0.00    +0.000 HD
ENDBRANCH  22  25
ENDBRANCH  17  19
ENDBRANCH  16  17
ENDBRANCH   1  16
TORSDOF 8
ENDMDL
MODEL 3
REMARK VINA RESULT:    -7.854      2.442      3.605
REMARK INTER + INTRA:         -11.920
REMARK INTER:                 -10.975
REMARK INTRA:                  -0.945
REMARK UNBOUND:                -0.622
REMARK  Name = 
REMARK  9 active torsions:
REMARK  status: ('A' for Active; 'I' for Inactive)
REMARK    1  A    between atoms: C_1  and  C_2
REMARK    2  A    between atoms: C_2  and  O_3
REMARK    3  A    between atoms: O_3  and  C_4
REMARK    4  A    between atoms: C_8  and  C_9
REMARK    5  A    between atoms: C_9  and  C_10
REMARK    6  A    between atoms: C_10  and  N_11
REMARK    7  A    between atoms: N_11  and  C_12
REMARK    8  A    between atoms: C_15  and  C_16
REMARK    9  A    between atoms: C_23  and  O_24
REMARK                            x       y       z     vdW  Elec       q    Type
REMARK                         _______ _______ _______ _____ _____    ______ ____
ROOT
ATOM      1  C   UNL     1      43.644   5.530  12.263  0.00  0.00    +0.000 C 
ENDROOT
BRANCH   1   6
ATOM      2  C   UNL     1      47.315   6.714  12.393  0.00  0.00    +0.000 A 
ATOM      3  C   UNL     1      47.812   5.888  13.394  0.00  0.00    +0.000 A 
ATOM      4  C   UNL     1      46.993   4.911  13.963  0.00  0.00    +0.000 A 
ATOM      5  C   UNL     1      45.662   4.782  13.562  0.00  0.00    +0.000 A 
ATOM      6  C   UNL     1      45.122   5.644  12.600  0.00  0.00    +0.000 A 
ATOM      7  C   UNL     1      45.977   6.593  12.011  0.00  0.00    +0.000 A 
BRANCH   2   8
ATOM      8  O   UNL     1      48.019   7.676  11.707  0.00  0.00    +0.000 OA
BRANCH   8  10
ATOM      9  C   UNL     1      47.388  10.032  11.885  0.00  0.00    +0.000 C 
ATOM     10  C   UNL     1      48.361   8.942  12.329  0.00  0.00    +0.000 C 
ATOM     11  C   UNL     1      48.775   8.910  13.832  0.00  0.00    +0.000 C 
ATOM     12  C   UNL     1      50.252   8.922  13.412  0.00  0.00    +0.000 C 
ATOM     13  C   UNL     1      49.823   9.393  12.016  0.00  0.00    +0.000 C 
BRANCH  12  14
ATOM     14  O   UNL     1      50.952   7.663  13.470  0.00  0.00    +0.000 OA
ATOM     15  H   UNL     1      51.043   7.456  14.417  0.00  0.00    +0.000 HD
ENDBRANCH  12  14
ENDBRANCH   8  10
ENDBRANCH   2   8
ENDBRANCH   1   6
BRANCH   1  16
ATOM     16  C   UNL     1      43.328   4.446  11.230  0.00  0.00    +0.000 C 
BRANCH  16  17
ATOM     17  N   UNL     1      43.630   4.850   9.854  0.00  0.00    +0.000 N 
ATOM     18  H   UNL     1      43.952   5.815   9.797  0.00  0.00    +0.000 HD
BRANCH  17  19
ATOM     19  C   UNL     1      44.500   3.980   9.159  0.00  0.00    +0.000 A 
ATOM     20  C   UNL     1      45.513   4.437   8.306  0.00  0.00    +0.000 A 
ATOM     21  C   UNL     1      46.385   3.546   7.685  0.00  0.00    +0.000 A 
ATOM     22  C   UNL     1      46.245   2.196   7.962  0.00  0.00    +0.000 A 
ATOM     23  N   UNL     1      45.310   1.693   8.815  0.00  0.00    +0.000 NA
ATOM     24  C   UNL     1      44.485   2.602   9.398  0.00  0.00    +0.000 A 
BRANCH  22  25
ATOM     25  C   UNL     1      47.173   1.219   7.314  0.00  0.00    +0.000 C 
ATOM     26  N   UNL     1      48.243   1.766   6.667  0.00  0.00    +0.000 N 
ATOM     27  O   UNL     1      46.993   0.008   7.356  0.00  0.00    +0.000 OA
ATOM     28  H   UNL     1      48.347   2.775   6.636  0.00  0.00    +0.000 HD
ATOM     29  H   UNL     1      48.897   1.165   6.186  0.00  0.00    +0.000 HD
ENDBRANCH  22  25
ENDBRANCH  17  19
ENDBRANCH  16  17
ENDBRANCH   1  16
TORSDOF 8
ENDMDL
MODEL 4
REMARK VINA RESULT:    -7.549      1.760      2.175
REMARK INTER + INTRA:         -11.481
REMARK INTER:                 -10.593
REMARK INTRA:                  -0.888
REMARK UNBOUND:                -0.622
REMARK  Name = 
REMARK  9 active torsions:
REMARK  status: ('A' for Active; 'I' for Inactive)
REMARK    1  A    between atoms: C_1  and  C_2
REMARK    2  A    between atoms: C_2  and  O_3
REMARK    3  A    between atoms: O_3  and  C_4
REMARK    4  A    between atoms: C_8  and  C_9
REMARK    5  A    between atoms: C_9  and  C_10
REMARK    6  A    between atoms: C_10  and  N_11
REMARK    7  A    between atoms: N_11  and  C_12
REMARK    8  A    between atoms: C_15  and  C_16
REMARK    9  A    between atoms: C_23  and  O_24
REMARK                            x       y       z     vdW  Elec       q    Type
REMARK                         _______ _______ _______ _____ _____    ______ ____
ROOT
ATOM      1  C   UNL     1      44.557   5.043  12.544  0.00  0.00    +0.000 C 
ENDROOT
BRANCH   1   6
ATOM      2  C   UNL     1      47.899   6.804  13.335  0.00  0.00    +0.000 A 
ATOM      3  C   UNL     1      47.673   8.047  12.756  0.00  0.00    +0.000 A 
ATOM      4  C   UNL     1      46.431   8.337  12.188  0.00  0.00    +0.000 A 
ATOM      5  C   UNL     1      45.423   7.371  12.160  0.00  0.00    +0.000 A 
ATOM      6  C   UNL     1      45.649   6.092  12.680  0.00  0.00    +0.000 A 
ATOM      7  C   UNL     1      46.893   5.836  13.285  0.00  0.00    +0.000 A 
BRANCH   2   8
ATOM      8  O   UNL     1      49.046   6.401  13.977  0.00  0.00    +0.000 OA
BRANCH   8  10
ATOM      9  C   UNL     1      50.839   7.986  14.481  0.00  0.00    +0.000 C 
ATOM     10  C   UNL     1      49.643   7.207  15.026  0.00  0.00    +0.000 C 
ATOM     11  C   UNL     1      48.673   7.952  15.992  0.00  0.00    +0.000 C 
ATOM     12  C   UNL     1      48.841   6.819  17.015  0.00  0.00    +0.000 C 
ATOM     13  C   UNL     1      50.094   6.359  16.257  0.00  0.00    +0.000 C 
BRANCH  12  14
ATOM     14  O   UNL     1      47.766   5.863  17.105  0.00  0.00    +0.000 OA
ATOM     15  H   UNL     1      46.951   6.391  17.177  0.00  0.00    +0.000 HD
ENDBRANCH  12  14
ENDBRANCH   8  10
ENDBRANCH   2   8
ENDBRANCH   1   6
BRANCH   1  16
ATOM     16  C   UNL     1      43.811   5.098  11.209  0.00  0.00    +0.000 C 
BRANCH  16  17
ATOM     17  N   UNL     1      43.619   3.780  10.597  0.00  0.00    +0.000 N 
ATOM     18  H   UNL     1      42.681   3.666  10.212  0.00  0.00    +0.000 HD
BRANCH  17  19
ATOM     19  C   UNL     1      44.604   3.416   9.653  0.00  0.00    +0.000 A 
ATOM     20  C   UNL     1      44.941   2.085   9.377  0.00  0.00    +0.000 A 
ATOM     21  C   UNL     1      45.880   1.770   8.397  0.00  0.00    +0.000 A 
ATOM     22  C   UNL     1      46.445   2.809   7.677  0.00  0.00    +0.000 A 
ATOM     23  N   UNL     1      46.128   4.120   7.867  0.00  0.00    +0.000 NA
ATOM     24  C   UNL     1      45.207   4.376   8.832  0.00  0.00    +0.000 A 
BRANCH  22  25
ATOM     25  C   UNL     1      47.451   2.498   6.615  0.00  0.00    +0.000 C 
ATOM     26  N   UNL     1      47.337   3.228   5.467  0.00  0.00    +0.000 N 
ATOM     27  O   UNL     1      48.321   1.648   6.756  0.00  0.00    +0.000 OA
ATOM     28  H   UNL     1      46.590   3.910   5.379  0.00  0.00    +0.000 HD
ATOM     29  H   UNL     1      47.969   3.053   4.698  0.00  0.00    +0.000 HD
ENDBRANCH  22  25
ENDBRANCH  17  19
ENDBRANCH  16  17
ENDBRANCH   1  16
TORSDOF 8
ENDMDL
MODEL 5
REMARK VINA RESULT:    -7.397      2.826      3.579
REMARK INTER + INTRA:         -11.262
REMARK INTER:                 -10.359
REMARK INTRA:                  -0.903
REMARK UNBOUND:                -0.622
REMARK  Name = 
REMARK  9 active torsions:
REMARK  status: ('A' for Active; 'I' for Inactive)
REMARK    1  A    between atoms: C_1  and  C_2
REMARK    2  A    between atoms: C_2  and  O_3
REMARK    3  A    between atoms: O_3  and  C_4
REMARK    4  A    between atoms: C_8  and  C_9
REMARK    5  A    between atoms: C_9  and  C_10
REMARK    6  A    between atoms: C_10  and  N_11
REMARK    7  A    between atoms: N_11  and  C_12
REMARK    8  A    between atoms: C_15  and  C_16
REMARK    9  A    between atoms: C_23  and  O_24
REMARK                            x       y       z     vdW  Elec       q    Type
REMARK                         _______ _______ _______ _____ _____    ______ ____
ROOT
ATOM      1  C   UNL     1      45.161   4.576  12.416  0.00  0.00    +0.000 C 
ENDROOT
BRANCH   1   6
ATOM      2  C   UNL     1      47.397   7.679  11.902  0.00  0.00    +0.000 A 
ATOM      3  C   UNL     1      46.490   8.693  12.180  0.00  0.00    +0.000 A 
ATOM      4  C   UNL     1      45.198   8.378  12.604  0.00  0.00    +0.000 A 
ATOM      5  C   UNL     1      44.794   7.045  12.712  0.00  0.00    +0.000 A 
ATOM      6  C   UNL     1      45.671   6.007  12.375  0.00  0.00    +0.000 A 
ATOM      7  C   UNL     1      46.981   6.348  11.992  0.00  0.00    +0.000 A 
BRANCH   2   8
ATOM      8  O   UNL     1      48.712   7.840  11.532  0.00  0.00    +0.000 OA
BRANCH   8  10
ATOM      9  C   UNL     1      49.852   9.991  11.298  0.00  0.00    +0.000 C 
ATOM     10  C   UNL     1      49.570   8.796  12.208  0.00  0.00    +0.000 C 
ATOM     11  C   UNL     1      49.274   9.084  13.710  0.00  0.00    +0.000 C 
ATOM     12  C   UNL     1      50.374   8.088  14.105  0.00  0.00    +0.000 C 
ATOM     13  C   UNL     1      50.922   8.170  12.674  0.00  0.00    +0.000 C 
BRANCH  12  14
ATOM     14  O   UNL     1      49.942   6.786  14.546  0.00  0.00    +0.000 OA
ATOM     15  H   UNL     1      49.165   6.568  14.001  0.00  0.00    +0.000 HD
ENDBRANCH  12  14
ENDBRANCH   8  10
ENDBRANCH   2   8
ENDBRANCH   1   6
BRANCH   1  16
ATOM     16  C   UNL     1      43.875   4.355  11.617  0.00  0.00    +0.000 C 
BRANCH  16  17
ATOM     17  N   UNL     1      43.979   4.786  10.220  0.00  0.00    +0.000 N 
ATOM     18  H   UNL     1      44.189   5.780  10.138  0.00  0.00    +0.000 HD
BRANCH  17  19
ATOM     19  C   UNL     1      44.854   4.013   9.426  0.00  0.00    +0.000 A 
ATOM     20  C   UNL     1      44.834   2.612   9.412  0.00  0.00    +0.000 A 
ATOM     21  C   UNL     1      45.678   1.890   8.571  0.00  0.00    +0.000 A 
ATOM     22  C   UNL     1      46.513   2.597   7.721  0.00  0.00    +0.000 A 
ATOM     23  N   UNL     1      46.548   3.956   7.655  0.00  0.00    +0.000 NA
ATOM     24  C   UNL     1      45.706   4.615   8.493  0.00  0.00    +0.000 A 
BRANCH  22  25
ATOM     25  C   UNL     1      47.424   1.845   6.803  0.00  0.00    +0.000 C 
ATOM     26  N   UNL     1      48.522   2.534   6.373  0.00  0.00    +0.000 N 
ATOM     27  O   UNL     1      47.208   0.691   6.456  0.00  0.00    +0.000 OA
ATOM     28  H   UNL     1      48.656   3.497   6.665  0.00  0.00    +0.000 HD
ATOM     29  H   UNL     1      49.167   2.095   5.731  0.00  0.00    +0.000 HD
ENDBRANCH  22  25
ENDBRANCH  17  19
ENDBRANCH  16  17
ENDBRANCH   1  16
TORSDOF 8
ENDMDL
MODEL 6
REMARK VINA RESULT:    -7.389      2.653      4.333
REMARK INTER + INTRA:         -11.250
REMARK INTER:                 -10.362
REMARK INTRA:                  -0.888
REMARK UNBOUND:                -0.622
REMARK  Name = 
REMARK  9 active torsions:
REMARK  status: ('A' for Active; 'I' for Inactive)
REMARK    1  A    between atoms: C_1  and  C_2
REMARK    2  A    between atoms: C_2  and  O_3
REMARK    3  A    between atoms: O_3  and  C_4
REMARK    4  A    between atoms: C_8  and  C_9
REMARK    5  A    between atoms: C_9  and  C_10
REMARK    6  A    between atoms: C_10  and  N_11
REMARK    7  A    between atoms: N_11  and  C_12
REMARK    8  A    between atoms: C_15  and  C_16
REMARK    9  A    between atoms: C_23  and  O_24
REMARK                            x       y       z     vdW  Elec       q    Type
REMARK                         _______ _______ _______ _____ _____    ______ ____
ROOT
ATOM      1  C   UNL     1      45.032   5.029  12.157  0.00  0.00    +0.000 C 
ENDROOT
BRANCH   1   6
ATOM      2  C   UNL     1      48.178   7.257  12.324  0.00  0.00    +0.000 A 
ATOM      3  C   UNL     1      48.659   6.923  13.584  0.00  0.00    +0.000 A 
ATOM      4  C   UNL     1      48.019   5.935  14.335  0.00  0.00    +0.000 A 
ATOM      5  C   UNL     1      46.872   5.307  13.847  0.00  0.00    +0.000 A 
ATOM      6  C   UNL     1      46.334   5.672  12.607  0.00  0.00    +0.000 A 
ATOM      7  C   UNL     1      47.019   6.639  11.850  0.00  0.00    +0.000 A 
BRANCH   2   8
ATOM      8  O   UNL     1      48.736   8.165  11.454  0.00  0.00    +0.000 OA
BRANCH   8  10
ATOM      9  C   UNL     1      50.467   9.686  12.272  0.00  0.00    +0.000 C 
ATOM     10  C   UNL     1      49.003   9.532  11.864  0.00  0.00    +0.000 C 
ATOM     11  C   UNL     1      48.365  10.670  11.013  0.00  0.00    +0.000 C 
ATOM     12  C   UNL     1      47.223  10.777  12.033  0.00  0.00    +0.000 C 
ATOM     13  C   UNL     1      48.086  10.001  13.038  0.00  0.00    +0.000 C 
BRANCH  12  14
ATOM     14  O   UNL     1      45.969  10.168  11.669  0.00  0.00    +0.000 OA
ATOM     15  H   UNL     1      46.147   9.668  10.853  0.00  0.00    +0.000 HD
ENDBRANCH  12  14
ENDBRANCH   8  10
ENDBRANCH   2   8
ENDBRANCH   1   6
BRANCH   1  16
ATOM     16  C   UNL     1      44.370   5.736  10.972  0.00  0.00    +0.000 C 
BRANCH  16  17
ATOM     17  N   UNL     1      43.780   4.811  10.000  0.00  0.00    +0.000 N 
ATOM     18  H   UNL     1      43.128   5.278   9.370  0.00  0.00    +0.000 HD
BRANCH  17  19
ATOM     19  C   UNL     1      44.714   4.032   9.282  0.00  0.00    +0.000 A 
ATOM     20  C   UNL     1      44.758   2.634   9.357  0.00  0.00    +0.000 A 
ATOM     21  C   UNL     1      45.659   1.902   8.587  0.00  0.00    +0.000 A 
ATOM     22  C   UNL     1      46.487   2.593   7.718  0.00  0.00    +0.000 A 
ATOM     23  N   UNL     1      46.462   3.946   7.566  0.00  0.00    +0.000 NA
ATOM     24  C   UNL     1      45.565   4.615   8.337  0.00  0.00    +0.000 A 
BRANCH  22  25
ATOM     25  C   UNL     1      47.458   1.830   6.875  0.00  0.00    +0.000 C 
ATOM     26  N   UNL     1      48.539   2.540   6.437  0.00  0.00    +0.000 N 
ATOM     27  O   UNL     1      47.305   0.648   6.593  0.00  0.00    +0.000 OA
ATOM     28  H   UNL     1      48.622   3.523   6.674  0.00  0.00    +0.000 HD
ATOM     29  H   UNL     1      49.223   2.093   5.843  0.00  0.00    +0.000 HD
ENDBRANCH  22  25
ENDBRANCH  17  19
ENDBRANCH  16  17
ENDBRANCH   1  16
TORSDOF 8
ENDMDL
MODEL 7
REMARK VINA RESULT:    -7.388      1.350      1.820
REMARK INTER + INTRA:         -11.249
REMARK INTER:                 -10.577
REMARK INTRA:                  -0.672
REMARK UNBOUND:                -0.622
REMARK  Name = 
REMARK  9 active torsions:
REMARK  status: ('A' for Active; 'I' for Inactive)
REMARK    1  A    between atoms: C_1  and  C_2
REMARK    2  A    between atoms: C_2  and  O_3
REMARK    3  A    between atoms: O_3  and  C_4
REMARK    4  A    between atoms: C_8  and  C_9
REMARK    5  A    between atoms: C_9  and  C_10
REMARK    6  A    between atoms: C_10  and  N_11
REMARK    7  A    between atoms: N_11  and  C_12
REMARK    8  A    between atoms: C_15  and  C_16
REMARK    9  A    between atoms: C_23  and  O_24
REMARK                            x       y       z     vdW  Elec       q    Type
REMARK                         _______ _______ _______ _____ _____    ______ ____
ROOT
ATOM      1  C   UNL     1      44.910   4.347  12.100  0.00  0.00    +0.000 C 
ENDROOT
BRANCH   1   6
ATOM      2  C   UNL     1      47.169   4.953  15.170  0.00  0.00    +0.000 A 
ATOM      3  C   UNL     1      48.079   5.859  14.640  0.00  0.00    +0.000 A 
ATOM      4  C   UNL     1      47.918   6.327  13.334  0.00  0.00    +0.000 A 
ATOM      5  C   UNL     1      46.870   5.859  12.539  0.00  0.00    +0.000 A 
ATOM      6  C   UNL     1      45.978   4.898  13.031  0.00  0.00    +0.000 A 
ATOM      7  C   UNL     1      46.135   4.473  14.362  0.00  0.00    +0.000 A 
BRANCH   2   8
ATOM      8  O   UNL     1      47.170   4.452  16.451  0.00  0.00    +0.000 OA
BRANCH   8  10
ATOM      9  C   UNL     1      48.572   2.466  16.185  0.00  0.00    +0.000 C 
ATOM     10  C   UNL     1      48.323   3.746  16.980  0.00  0.00    +0.000 C 
ATOM     11  C   UNL     1      49.563   4.602  17.380  0.00  0.00    +0.000 C 
ATOM     12  C   UNL     1      49.097   4.571  18.843  0.00  0.00    +0.000 C 
ATOM     13  C   UNL     1      48.174   3.395  18.494  0.00  0.00    +0.000 C 
BRANCH  12  14
ATOM     14  O   UNL     1      48.451   5.758  19.343  0.00  0.00    +0.000 OA
ATOM     15  H   UNL     1      47.604   5.817  18.867  0.00  0.00    +0.000 HD
ENDBRANCH  12  14
ENDBRANCH   8  10
ENDBRANCH   2   8
ENDBRANCH   1   6
BRANCH   1  16
ATOM     16  C   UNL     1      44.295   5.399  11.174  0.00  0.00    +0.000 C 
BRANCH  16  17
ATOM     17  N   UNL     1      43.791   4.841   9.916  0.00  0.00    +0.000 N 
ATOM     18  H   UNL     1      43.383   5.555   9.313  0.00  0.00    +0.000 HD
BRANCH  17  19
ATOM     19  C   UNL     1      44.718   4.045   9.208  0.00  0.00    +0.000 A 
ATOM     20  C   UNL     1      44.680   2.645   9.212  0.00  0.00    +0.000 A 
ATOM     21  C   UNL     1      45.581   1.899   8.454  0.00  0.00    +0.000 A 
ATOM     22  C   UNL     1      46.492   2.583   7.666  0.00  0.00    +0.000 A 
ATOM     23  N   UNL     1      46.551   3.941   7.584  0.00  0.00    +0.000 NA
ATOM     24  C   UNL     1      45.651   4.623   8.341  0.00  0.00    +0.000 A 
BRANCH  22  25
ATOM     25  C   UNL     1      47.465   1.807   6.837  0.00  0.00    +0.000 C 
ATOM     26  N   UNL     1      48.543   2.512   6.383  0.00  0.00    +0.000 N 
ATOM     27  O   UNL     1      47.315   0.619   6.579  0.00  0.00    +0.000 OA
ATOM     28  H   UNL     1      48.622   3.501   6.600  0.00  0.00    +0.000 HD
ATOM     29  H   UNL     1      49.228   2.056   5.797  0.00  0.00    +0.000 HD
ENDBRANCH  22  25
ENDBRANCH  17  19
ENDBRANCH  16  17
ENDBRANCH   1  16
TORSDOF 8
ENDMDL
MODEL 8
REMARK VINA RESULT:    -6.944      2.753      4.246
REMARK INTER + INTRA:         -10.611
REMARK INTER:                  -9.303
REMARK INTRA:                  -1.308
REMARK UNBOUND:                -0.622
REMARK  Name = 
REMARK  9 active torsions:
REMARK  status: ('A' for Active; 'I' for Inactive)
REMARK    1  A    between atoms: C_1  and  C_2
REMARK    2  A    between atoms: C_2  and  O_3
REMARK    3  A    between atoms: O_3  and  C_4
REMARK    4  A    between atoms: C_8  and  C_9
REMARK    5  A    between atoms: C_9  and  C_10
REMARK    6  A    between atoms: C_10  and  N_11
REMARK    7  A    between atoms: N_11  and  C_12
REMARK    8  A    between atoms: C_15  and  C_16
REMARK    9  A    between atoms: C_23  and  O_24
REMARK                            x       y       z     vdW  Elec       q    Type
REMARK                         _______ _______ _______ _____ _____    ______ ____
ROOT
ATOM      1  C   UNL     1      48.258   8.030  12.843  0.00  0.00    +0.000 C 
ENDROOT
BRANCH   1   6
ATOM      2  C   UNL     1      49.217   6.575  16.286  0.00  0.00    +0.000 A 
ATOM      3  C   UNL     1      49.019   7.686  17.095  0.00  0.00    +0.000 A 
ATOM      4  C   UNL     1      48.508   8.866  16.548  0.00  0.00    +0.000 A 
ATOM      5  C   UNL     1      48.232   8.950  15.182  0.00  0.00    +0.000 A 
ATOM      6  C   UNL     1      48.484   7.863  14.336  0.00  0.00    +0.000 A 
ATOM      7  C   UNL     1      48.958   6.673  14.917  0.00  0.00    +0.000 A 
BRANCH   2   8
ATOM      8  O   UNL     1      49.658   5.338  16.695  0.00  0.00    +0.000 OA
BRANCH   8  10
ATOM      9  C   UNL     1      49.194   4.734  19.019  0.00  0.00    +0.000 C 
ATOM     10  C   UNL     1      48.842   4.496  17.552  0.00  0.00    +0.000 C 
ATOM     11  C   UNL     1      47.335   4.350  17.183  0.00  0.00    +0.000 C 
ATOM     12  C   UNL     1      47.648   3.021  16.479  0.00  0.00    +0.000 C 
ATOM     13  C   UNL     1      48.990   2.977  17.223  0.00  0.00    +0.000 C 
BRANCH  12  14
ATOM     14  O   UNL     1      47.721   3.052  15.040  0.00  0.00    +0.000 OA
ATOM     15  H   UNL     1      47.749   3.995  14.799  0.00  0.00    +0.000 HD
ENDBRANCH  12  14
ENDBRANCH   8  10
ENDBRANCH   2   8
ENDBRANCH   1   6
BRANCH   1  16
ATOM     16  C   UNL     1      46.877   8.581  12.484  0.00  0.00    +0.000 C 
BRANCH  16  17
ATOM     17  N   UNL     1      45.785   7.929  13.212  0.00  0.00    +0.000 N 
ATOM     18  H   UNL     1      44.978   8.542  13.327  0.00  0.00    +0.000 HD
BRANCH  17  19
ATOM     19  C   UNL     1      45.399   6.671  12.700  0.00  0.00    +0.000 A 
ATOM     20  C   UNL     1      45.836   5.458  13.248  0.00  0.00    +0.000 A 
ATOM     21  C   UNL     1      45.386   4.239  12.745  0.00  0.00    +0.000 A 
ATOM     22  C   UNL     1      44.466   4.260  11.711  0.00  0.00    +0.000 A 
ATOM     23  N   UNL     1      43.969   5.404  11.164  0.00  0.00    +0.000 NA
ATOM     24  C   UNL     1      44.437   6.567  11.689  0.00  0.00    +0.000 A 
BRANCH  22  25
ATOM     25  C   UNL     1      43.962   2.965  11.157  0.00  0.00    +0.000 C 
ATOM     26  N   UNL     1      44.762   2.375  10.222  0.00  0.00    +0.000 N 
ATOM     27  O   UNL     1      42.904   2.460  11.513  0.00  0.00    +0.000 OA
ATOM     28  H   UNL     1      45.622   2.834   9.937  0.00  0.00    +0.000 HD
ATOM     29  H   UNL     1      44.471   1.510   9.789  0.00  0.00    +0.000 HD
ENDBRANCH  22  25
ENDBRANCH  17  19
ENDBRANCH  16  17
ENDBRANCH   1  16
TORSDOF 8
ENDMDL
MODEL 9
REMARK VINA RESULT:    -6.802      3.011      7.746
REMARK INTER + INTRA:         -10.406
REMARK INTER:                  -9.211
REMARK INTRA:                  -1.195
REMARK UNBOUND:                -0.622
REMARK  Name = 
REMARK  9 active torsions:
REMARK  status: ('A' for Active; 'I' for Inactive)
REMARK    1  A    between atoms: C_1  and  C_2
REMARK    2  A    between atoms: C_2  and  O_3
REMARK    3  A    between atoms: O_3  and  C_4
REMARK    4  A    between atoms: C_8  and  C_9
REMARK    5  A    between atoms: C_9  and  C_10
REMARK    6  A    between atoms: C_10  and  N_11
REMARK    7  A    between atoms: N_11  and  C_12
REMARK    8  A    between atoms: C_15  and  C_16
REMARK    9  A    between atoms: C_23  and  O_24
REMARK                            x       y       z     vdW  Elec       q    Type
REMARK                         _______ _______ _______ _____ _____    ______ ____
ROOT
ATOM      1  C   UNL     1      45.388   7.695  11.520  0.00  0.00    +0.000 C 
ENDROOT
BRANCH   1   6
ATOM      2  C   UNL     1      44.705   3.995  10.662  0.00  0.00    +0.000 A 
ATOM      3  C   UNL     1      43.395   3.869  11.110  0.00  0.00    +0.000 A 
ATOM      4  C   UNL     1      42.718   4.983  11.609  0.00  0.00    +0.000 A 
ATOM      5  C   UNL     1      43.361   6.219  11.700  0.00  0.00    +0.000 A 
ATOM      6  C   UNL     1      44.700   6.355  11.314  0.00  0.00    +0.000 A 
ATOM      7  C   UNL     1      45.348   5.229  10.776  0.00  0.00    +0.000 A 
BRANCH   2   8
ATOM      8  O   UNL     1      45.472   3.002  10.098  0.00  0.00    +0.000 OA
BRANCH   8  10
ATOM      9  C   UNL     1      44.369   1.189   8.883  0.00  0.00    +0.000 C 
ATOM     10  C   UNL     1      45.174   2.483   8.776  0.00  0.00    +0.000 C 
ATOM     11  C   UNL     1      44.749   3.512   7.684  0.00  0.00    +0.000 C 
ATOM     12  C   UNL     1      46.191   3.528   7.157  0.00  0.00    +0.000 C 
ATOM     13  C   UNL     1      46.457   2.226   7.924  0.00  0.00    +0.000 C 
BRANCH  12  14
ATOM     14  O   UNL     1      47.003   4.660   7.526  0.00  0.00    +0.000 OA
ATOM     15  H   UNL     1      47.703   4.713   6.850  0.00  0.00    +0.000 HD
ENDBRANCH  12  14
ENDBRANCH   8  10
ENDBRANCH   2   8
ENDBRANCH   1   6
BRANCH   1  16
ATOM     16  C   UNL     1      46.072   7.837  12.881  0.00  0.00    +0.000 C 
BRANCH  16  17
ATOM     17  N   UNL     1      47.438   7.305  12.902  0.00  0.00    +0.000 N 
ATOM     18  H   UNL     1      48.139   8.041  12.818  0.00  0.00    +0.000 HD
BRANCH  17  19
ATOM     19  C   UNL     1      47.724   6.451  13.990  0.00  0.00    +0.000 A 
ATOM     20  C   UNL     1      48.533   6.833  15.067  0.00  0.00    +0.000 A 
ATOM     21  C   UNL     1      48.743   5.978  16.147  0.00  0.00    +0.000 A 
ATOM     22  C   UNL     1      48.100   4.751  16.142  0.00  0.00    +0.000 A 
ATOM     23  N   UNL     1      47.266   4.339  15.147  0.00  0.00    +0.000 NA
ATOM     24  C   UNL     1      47.092   5.209  14.117  0.00  0.00    +0.000 A 
BRANCH  22  25
ATOM     25  C   UNL     1      48.303   3.817  17.292  0.00  0.00    +0.000 C 
ATOM     26  N   UNL     1      48.919   4.357  18.384  0.00  0.00    +0.000 N 
ATOM     27  O   UNL     1      47.943   2.647  17.266  0.00  0.00    +0.000 OA
ATOM     28  H   UNL     1      49.222   5.325  18.361  0.00  0.00    +0.000 HD
ATOM     29  H   UNL     1      49.110   3.775  19.189  0.00  0.00    +0.000 HD
ENDBRANCH  22  25
ENDBRANCH  17  19
ENDBRANCH  16  17
ENDBRANCH   1  16
TORSDOF 8
ENDMDL
