MODEL 1
REMARK VINA RESULT:    -7.212      0.000      0.000
REMARK INTER + INTRA:          -9.654
REMARK INTER:                  -9.109
REMARK INTRA:                  -0.545
REMARK UNBOUND:                -0.545
REMARK  Name = 
REMARK  5 active torsions:
REMARK  status: ('A' for Active; 'I' for Inactive)
REMARK    1  A    between atoms: N_1  and  C_2
REMARK    2  A    between atoms: C_2  and  C_3
REMARK    3  A    between atoms: C_6  and  C_7
REMARK    4  A    between atoms: C_7  and  N_8
REMARK    5  A    between atoms: C_13  and  C_14
REMARK                            x       y       z     vdW  Elec       q    Type
REMARK                         _______ _______ _______ _____ _____    ______ ____
ROOT
ATOM      1  N   UNL     1      44.437   4.810  10.366  0.00  0.00    +0.000 N 
ATOM      2  C   UNL     1      43.700   3.778  10.886  0.00  0.00    +0.000 A 
ATOM      3  N   UNL     1      43.999   2.627  10.321  0.00  0.00    +0.000 NA
ATOM      4  C   UNL     1      44.931   2.937   9.367  0.00  0.00    +0.000 A 
ATOM      5  C   UNL     1      45.591   2.119   8.444  0.00  0.00    +0.000 A 
ATOM      6  C   UNL     1      46.459   2.744   7.543  0.00  0.00    +0.000 A 
ATOM      7  C   UNL     1      46.642   4.128   7.636  0.00  0.00    +0.000 A 
ATOM      8  N   UNL     1      46.047   4.961   8.538  0.00  0.00    +0.000 NA
ATOM      9  C   UNL     1      45.208   4.301   9.358  0.00  0.00    +0.000 A 
ENDROOT
BRANCH   6  10
ATOM     10  C   UNL     1      47.183   2.010   6.475  0.00  0.00    +0.000 C 
ATOM     11  N   UNL     1      47.899   2.732   5.557  0.00  0.00    +0.000 N 
ATOM     12  O   UNL     1      47.155   0.790   6.412  0.00  0.00    +0.000 OA
ATOM     13  H   UNL     1      47.994   3.736   5.542  0.00  0.00    +0.000 HD
ATOM     14  H   UNL     1      48.399   2.204   4.852  0.00  0.00    +0.000 HD
ENDBRANCH   6  10
BRANCH   1  15
ATOM     15  C   UNL     1      44.390   6.190  10.811  0.00  0.00    +0.000 C 
BRANCH  15  19
ATOM     16  C   UNL     1      47.346   8.220  12.162  0.00  0.00    +0.000 C 
ATOM     17  C   UNL     1      47.405   6.754  11.701  0.00  0.00    +0.000 C 
ATOM     18  C   UNL     1      46.374   5.883  12.416  0.00  0.00    +0.000 C 
ATOM     19  C   UNL     1      44.938   6.404  12.240  0.00  0.00    +0.000 C 
ATOM     20  C   UNL     1      44.850   7.885  12.653  0.00  0.00    +0.000 C 
ATOM     21  C   UNL     1      45.916   8.765  11.994  0.00  0.00    +0.000 C 
BRANCH  16  22
ATOM     22  C   UNL     1      47.859   8.420  13.604  0.00  0.00    +0.000 C 
BRANCH  22  23
ATOM     23  N   UNL     1      47.836   9.826  13.991  0.00  0.00    +0.000 NA
ATOM     24  H   UNL     1      47.372   9.929  14.892  0.00  0.00    +0.000 HD
ATOM     25  H   UNL     1      47.288  10.361  13.319  0.00  0.00    +0.000 HD
ENDBRANCH  22  23
ENDBRANCH  16  22
ENDBRANCH  15  19
ENDBRANCH   1  15
TORSDOF 5
ENDMDL
MODEL 2
REMARK VINA RESULT:    -6.760      2.630      6.784
REMARK INTER + INTRA:          -9.083
REMARK INTER:                  -8.599
REMARK INTRA:                  -0.484
REMARK UNBOUND:                -0.545
REMARK  Name = 
REMARK  5 active torsions:
REMARK  status: ('A' for Active; 'I' for Inactive)
REMARK    1  A    between atoms: N_1  and  C_2
REMARK    2  A    between atoms: C_2  and  C_3
REMARK    3  A    between atoms: C_6  and  C_7
REMARK    4  A    between atoms: C_7  and  N_8
REMARK    5  A    between atoms: C_13  and  C_14
REMARK                            x       y       z     vdW  Elec       q    Type
REMARK                         _______ _______ _______ _____ _____    ______ ____
ROOT
ATOM      1  N   UNL     1      44.343   4.135  10.945  0.00  0.00    +0.000 N 
ATOM      2  C   UNL     1      43.014   4.392  11.162  0.00  0.00    +0.000 A 
ATOM      3  N   UNL     1      42.819   5.604  11.637  0.00  0.00    +0.000 NA
ATOM      4  C   UNL     1      44.075   6.131  11.777  0.00  0.00    +0.000 A 
ATOM      5  C   UNL     1      44.487   7.378  12.260  0.00  0.00    +0.000 A 
ATOM      6  C   UNL     1      45.864   7.609  12.338  0.00  0.00    +0.000 A 
ATOM      7  C   UNL     1      46.739   6.607  11.905  0.00  0.00    +0.000 A 
ATOM      8  N   UNL     1      46.386   5.391  11.398  0.00  0.00    +0.000 NA
ATOM      9  C   UNL     1      45.049   5.224  11.372  0.00  0.00    +0.000 A 
ENDROOT
BRANCH   6  10
ATOM     10  C   UNL     1      46.445   8.863  12.880  0.00  0.00    +0.000 C 
ATOM     11  N   UNL     1      46.824   8.891  14.196  0.00  0.00    +0.000 N 
ATOM     12  O   UNL     1      46.594   9.850  12.175  0.00  0.00    +0.000 OA
ATOM     13  H   UNL     1      46.756   8.123  14.845  0.00  0.00    +0.000 HD
ATOM     14  H   UNL     1      47.235   9.753  14.533  0.00  0.00    +0.000 HD
ENDBRANCH   6  10
BRANCH   1  15
ATOM     15  C   UNL     1      44.885   2.917  10.373  0.00  0.00    +0.000 C 
BRANCH  15  19
ATOM     16  C   UNL     1      47.119   2.971   7.259  0.00  0.00    +0.000 C 
ATOM     17  C   UNL     1      46.427   4.195   7.885  0.00  0.00    +0.000 C 
ATOM     18  C   UNL     1      44.921   3.991   8.037  0.00  0.00    +0.000 C 
ATOM     19  C   UNL     1      44.576   2.743   8.868  0.00  0.00    +0.000 C 
ATOM     20  C   UNL     1      45.287   1.503   8.295  0.00  0.00    +0.000 C 
ATOM     21  C   UNL     1      46.789   1.709   8.076  0.00  0.00    +0.000 C 
BRANCH  16  22
ATOM     22  C   UNL     1      46.775   2.782   5.767  0.00  0.00    +0.000 C 
BRANCH  22  23
ATOM     23  N   UNL     1      47.963   2.485   4.975  0.00  0.00    +0.000 NA
ATOM     24  H   UNL     1      47.801   2.732   4.000  0.00  0.00    +0.000 HD
ATOM     25  H   UNL     1      48.149   1.483   4.994  0.00  0.00    +0.000 HD
ENDBRANCH  22  23
ENDBRANCH  16  22
ENDBRANCH  15  19
ENDBRANCH   1  15
TORSDOF 5
ENDMDL
MODEL 3
REMARK VINA RESULT:    -5.936      4.931      8.357
REMARK INTER + INTRA:          -8.042
REMARK INTER:                  -7.611
REMARK INTRA:                  -0.432
REMARK UNBOUND:                -0.545
REMARK  Name = 
REMARK  5 active torsions:
REMARK  status: ('A' for Active; 'I' for Inactive)
REMARK    1  A    between atoms: N_1  and  C_2
REMARK    2  A    between atoms: C_2  and  C_3
REMARK    3  A    between atoms: C_6  and  C_7
REMARK    4  A    between atoms: C_7  and  N_8
REMARK    5  A    between atoms: C_13  and  C_14
REMARK                            x       y       z     vdW  Elec       q    Type
REMARK                         _______ _______ _______ _____ _____    ______ ____
ROOT
ATOM      1  N   UNL     1      48.121   6.527  14.305  0.00  0.00    +0.000 N 
ATOM      2  C   UNL     1      48.556   7.809  14.524  0.00  0.00    +0.000 A 
ATOM      3  N   UNL     1      49.061   7.957  15.730  0.00  0.00    +0.000 NA
ATOM      4  C   UNL     1      48.901   6.736  16.329  0.00  0.00    +0.000 A 
ATOM      5  C   UNL     1      49.231   6.309  17.620  0.00  0.00    +0.000 A 
ATOM      6  C   UNL     1      48.886   4.999  17.966  0.00  0.00    +0.000 A 
ATOM      7  C   UNL     1      48.270   4.190  17.006  0.00  0.00    +0.000 A 
ATOM      8  N   UNL     1      47.959   4.550  15.727  0.00  0.00    +0.000 NA
ATOM      9  C   UNL     1      48.295   5.828  15.467  0.00  0.00    +0.000 A 
ENDROOT
BRANCH   6  10
ATOM     10  C   UNL     1      49.124   4.429  19.316  0.00  0.00    +0.000 C 
ATOM     11  N   UNL     1      48.408   3.324  19.694  0.00  0.00    +0.000 N 
ATOM     12  O   UNL     1      49.944   4.921  20.077  0.00  0.00    +0.000 OA
ATOM     13  H   UNL     1      47.727   2.842  19.128  0.00  0.00    +0.000 HD
ATOM     14  H   UNL     1      48.605   2.946  20.613  0.00  0.00    +0.000 HD
ENDBRANCH   6  10
BRANCH   1  15
ATOM     15  C   UNL     1      47.569   6.022  13.062  0.00  0.00    +0.000 C 
BRANCH  15  19
ATOM     16  C   UNL     1      44.996   4.252  10.842  0.00  0.00    +0.000 C 
ATOM     17  C   UNL     1      45.702   5.577  10.509  0.00  0.00    +0.000 C 
ATOM     18  C   UNL     1      45.529   6.616  11.615  0.00  0.00    +0.000 C 
ATOM     19  C   UNL     1      46.028   6.114  12.980  0.00  0.00    +0.000 C 
ATOM     20  C   UNL     1      45.373   4.764  13.328  0.00  0.00    +0.000 C 
ATOM     21  C   UNL     1      45.481   3.728  12.205  0.00  0.00    +0.000 C 
BRANCH  16  22
ATOM     22  C   UNL     1      43.457   4.360  10.797  0.00  0.00    +0.000 C 
BRANCH  22  23
ATOM     23  N   UNL     1      42.819   3.201  11.409  0.00  0.00    +0.000 NA
ATOM     24  H   UNL     1      43.074   3.145  12.394  0.00  0.00    +0.000 HD
ATOM     25  H   UNL     1      43.161   2.346  10.972  0.00  0.00    +0.000 HD
ENDBRANCH  22  23
ENDBRANCH  16  22
ENDBRANCH  15  19
ENDBRANCH   1  15
TORSDOF 5
ENDMDL
MODEL 4
REMARK VINA RESULT:    -5.763      4.733      6.359
REMARK INTER + INTRA:          -7.824
REMARK INTER:                  -7.451
REMARK INTRA:                  -0.373
REMARK UNBOUND:                -0.545
REMARK  Name = 
REMARK  5 active torsions:
REMARK  status: ('A' for Active; 'I' for Inactive)
REMARK    1  A    between atoms: N_1  and  C_2
REMARK    2  A    between atoms: C_2  and  C_3
REMARK    3  A    between atoms: C_6  and  C_7
REMARK    4  A    between atoms: C_7  and  N_8
REMARK    5  A    between atoms: C_13  and  C_14
REMARK                            x       y       z     vdW  Elec       q    Type
REMARK                         _______ _______ _______ _____ _____    ______ ____
ROOT
ATOM      1  N   UNL     1      47.490   5.397  14.649  0.00  0.00    +0.000 N 
ATOM      2  C   UNL     1      48.042   6.566  14.191  0.00  0.00    +0.000 A 
ATOM      3  N   UNL     1      47.573   6.902  13.009  0.00  0.00    +0.000 NA
ATOM      4  C   UNL     1      46.721   5.885  12.668  0.00  0.00    +0.000 A 
ATOM      5  C   UNL     1      45.957   5.690  11.513  0.00  0.00    +0.000 A 
ATOM      6  C   UNL     1      45.218   4.506  11.429  0.00  0.00    +0.000 A 
ATOM      7  C   UNL     1      45.258   3.611  12.503  0.00  0.00    +0.000 A 
ATOM      8  N   UNL     1      45.960   3.772  13.661  0.00  0.00    +0.000 NA
ATOM      9  C   UNL     1      46.667   4.919  13.668  0.00  0.00    +0.000 A 
ENDROOT
BRANCH   6  10
ATOM     10  C   UNL     1      44.406   4.141  10.241  0.00  0.00    +0.000 C 
ATOM     11  N   UNL     1      44.701   4.733   9.041  0.00  0.00    +0.000 N 
ATOM     12  O   UNL     1      43.499   3.325  10.319  0.00  0.00    +0.000 OA
ATOM     13  H   UNL     1      45.439   5.399   8.879  0.00  0.00    +0.000 HD
ATOM     14  H   UNL     1      44.143   4.449   8.245  0.00  0.00    +0.000 HD
ENDBRANCH   6  10
BRANCH   1  15
ATOM     15  C   UNL     1      47.749   4.788  15.939  0.00  0.00    +0.000 C 
BRANCH  15  19
ATOM     16  C   UNL     1      48.649   4.671  19.663  0.00  0.00    +0.000 C 
ATOM     17  C   UNL     1      47.617   5.615  19.022  0.00  0.00    +0.000 C 
ATOM     18  C   UNL     1      48.211   6.422  17.870  0.00  0.00    +0.000 C 
ATOM     19  C   UNL     1      48.819   5.529  16.775  0.00  0.00    +0.000 C 
ATOM     20  C   UNL     1      49.828   4.540  17.388  0.00  0.00    +0.000 C 
ATOM     21  C   UNL     1      49.270   3.765  18.585  0.00  0.00    +0.000 C 
BRANCH  16  22
ATOM     22  C   UNL     1      49.735   5.420  20.463  0.00  0.00    +0.000 C 
BRANCH  22  23
ATOM     23  N   UNL     1      50.753   4.507  20.970  0.00  0.00    +0.000 NA
ATOM     24  H   UNL     1      51.213   4.917  21.782  0.00  0.00    +0.000 HD
ATOM     25  H   UNL     1      51.476   4.369  20.265  0.00  0.00    +0.000 HD
ENDBRANCH  22  23
ENDBRANCH  16  22
ENDBRANCH  15  19
ENDBRANCH   1  15
TORSDOF 5
ENDMDL
MODEL 5
REMARK VINA RESULT:    -5.575      3.020      4.695
REMARK INTER + INTRA:          -7.586
REMARK INTER:                  -7.175
REMARK INTRA:                  -0.410
REMARK UNBOUND:                -0.545
REMARK  Name = 
REMARK  5 active torsions:
REMARK  status: ('A' for Active; 'I' for Inactive)
REMARK    1  A    between atoms: N_1  and  C_2
REMARK    2  A    between atoms: C_2  and  C_3
REMARK    3  A    between atoms: C_6  and  C_7
REMARK    4  A    between atoms: C_7  and  N_8
REMARK    5  A    between atoms: C_13  and  C_14
REMARK                            x       y       z     vdW  Elec       q    Type
REMARK                         _______ _______ _______ _____ _____    ______ ____
ROOT
ATOM      1  N   UNL     1      47.468   6.075  13.951  0.00  0.00    +0.000 N 
ATOM      2  C   UNL     1      47.467   5.076  14.890  0.00  0.00    +0.000 A 
ATOM      3  N   UNL     1      46.773   4.030  14.495  0.00  0.00    +0.000 NA
ATOM      4  C   UNL     1      46.266   4.387  13.274  0.00  0.00    +0.000 A 
ATOM      5  C   UNL     1      45.435   3.683  12.395  0.00  0.00    +0.000 A 
ATOM      6  C   UNL     1      45.031   4.344  11.232  0.00  0.00    +0.000 A 
ATOM      7  C   UNL     1      45.500   5.642  10.998  0.00  0.00    +0.000 A 
ATOM      8  N   UNL     1      46.336   6.355  11.807  0.00  0.00    +0.000 NA
ATOM      9  C   UNL     1      46.667   5.671  12.919  0.00  0.00    +0.000 A 
ENDROOT
BRANCH   6  10
ATOM     10  C   UNL     1      44.107   3.742  10.237  0.00  0.00    +0.000 C 
ATOM     11  N   UNL     1      43.965   4.357   9.022  0.00  0.00    +0.000 N 
ATOM     12  O   UNL     1      43.490   2.717  10.485  0.00  0.00    +0.000 OA
ATOM     13  H   UNL     1      44.446   5.192   8.725  0.00  0.00    +0.000 HD
ATOM     14  H   UNL     1      43.343   3.913   8.357  0.00  0.00    +0.000 HD
ENDBRANCH   6  10
BRANCH   1  15
ATOM     15  C   UNL     1      48.186   7.331  14.053  0.00  0.00    +0.000 C 
BRANCH  15  19
ATOM     16  C   UNL     1      50.205  10.064  12.282  0.00  0.00    +0.000 C 
ATOM     17  C   UNL     1      49.179   9.135  11.612  0.00  0.00    +0.000 C 
ATOM     18  C   UNL     1      49.488   7.660  11.861  0.00  0.00    +0.000 C 
ATOM     19  C   UNL     1      49.567   7.319  13.359  0.00  0.00    +0.000 C 
ATOM     20  C   UNL     1      50.556   8.260  14.072  0.00  0.00    +0.000 C 
ATOM     21  C   UNL     1      50.301   9.742  13.784  0.00  0.00    +0.000 C 
BRANCH  16  22
ATOM     22  C   UNL     1      51.592  10.017  11.607  0.00  0.00    +0.000 C 
BRANCH  22  23
ATOM     23  N   UNL     1      51.531  10.478  10.224  0.00  0.00    +0.000 NA
ATOM     24  H   UNL     1      50.570  10.437   9.887  0.00  0.00    +0.000 HD
ATOM     25  H   UNL     1      52.075   9.854   9.628  0.00  0.00    +0.000 HD
ENDBRANCH  22  23
ENDBRANCH  16  22
ENDBRANCH  15  19
ENDBRANCH   1  15
TORSDOF 5
ENDMDL
MODEL 6
REMARK VINA RESULT:    -5.435      3.172      4.720
REMARK INTER + INTRA:          -7.410
REMARK INTER:                  -6.885
REMARK INTRA:                  -0.525
REMARK UNBOUND:                -0.545
REMARK  Name = 
REMARK  5 active torsions:
REMARK  status: ('A' for Active; 'I' for Inactive)
REMARK    1  A    between atoms: N_1  and  C_2
REMARK    2  A    between atoms: C_2  and  C_3
REMARK    3  A    between atoms: C_6  and  C_7
REMARK    4  A    between atoms: C_7  and  N_8
REMARK    5  A    between atoms: C_13  and  C_14
REMARK                            x       y       z     vdW  Elec       q    Type
REMARK                         _______ _______ _______ _____ _____    ______ ____
ROOT
ATOM      1  N   UNL     1      45.699   7.976  12.595  0.00  0.00    +0.000 N 
ATOM      2  C   UNL     1      44.880   8.734  11.799  0.00  0.00    +0.000 A 
ATOM      3  N   UNL     1      44.030   7.994  11.120  0.00  0.00    +0.000 NA
ATOM      4  C   UNL     1      44.345   6.704  11.454  0.00  0.00    +0.000 A 
ATOM      5  C   UNL     1      43.792   5.494  11.022  0.00  0.00    +0.000 A 
ATOM      6  C   UNL     1      44.374   4.318  11.504  0.00  0.00    +0.000 A 
ATOM      7  C   UNL     1      45.440   4.415  12.406  0.00  0.00    +0.000 A 
ATOM      8  N   UNL     1      45.991   5.569  12.881  0.00  0.00    +0.000 NA
ATOM      9  C   UNL     1      45.401   6.663  12.359  0.00  0.00    +0.000 A 
ENDROOT
BRANCH   6  10
ATOM     10  C   UNL     1      43.929   2.964  11.089  0.00  0.00    +0.000 C 
ATOM     11  N   UNL     1      44.600   2.339  10.072  0.00  0.00    +0.000 N 
ATOM     12  O   UNL     1      42.992   2.407  11.642  0.00  0.00    +0.000 OA
ATOM     13  H   UNL     1      45.392   2.712   9.573  0.00  0.00    +0.000 HD
ATOM     14  H   UNL     1      44.286   1.408   9.823  0.00  0.00    +0.000 HD
ENDBRANCH   6  10
BRANCH   1  15
ATOM     15  C   UNL     1      46.701   8.489  13.509  0.00  0.00    +0.000 C 
BRANCH  15  19
ATOM     16  C   UNL     1      50.504   8.022  13.536  0.00  0.00    +0.000 C 
ATOM     17  C   UNL     1      49.704   8.891  14.521  0.00  0.00    +0.000 C 
ATOM     18  C   UNL     1      48.822   9.911  13.804  0.00  0.00    +0.000 C 
ATOM     19  C   UNL     1      47.848   9.256  12.811  0.00  0.00    +0.000 C 
ATOM     20  C   UNL     1      48.612   8.343  11.834  0.00  0.00    +0.000 C 
ATOM     21  C   UNL     1      49.549   7.354  12.531  0.00  0.00    +0.000 C 
BRANCH  16  22
ATOM     22  C   UNL     1      51.623   8.804  12.814  0.00  0.00    +0.000 C 
BRANCH  22  23
ATOM     23  N   UNL     1      52.391   7.942  11.924  0.00  0.00    +0.000 NA
ATOM     24  H   UNL     1      51.898   7.061  11.784  0.00  0.00    +0.000 HD
ATOM     25  H   UNL     1      53.286   7.709  12.354  0.00  0.00    +0.000 HD
ENDBRANCH  22  23
ENDBRANCH  16  22
ENDBRANCH  15  19
ENDBRANCH   1  15
TORSDOF 5
ENDMDL
MODEL 7
REMARK VINA RESULT:    -5.220      3.232      4.984
REMARK INTER + INTRA:          -7.138
REMARK INTER:                  -6.744
REMARK INTRA:                  -0.393
REMARK UNBOUND:                -0.545
REMARK  Name = 
REMARK  5 active torsions:
REMARK  status: ('A' for Active; 'I' for Inactive)
REMARK    1  A    between atoms: N_1  and  C_2
REMARK    2  A    between atoms: C_2  and  C_3
REMARK    3  A    between atoms: C_6  and  C_7
REMARK    4  A    between atoms: C_7  and  N_8
REMARK    5  A    between atoms: C_13  and  C_14
REMARK                            x       y       z     vdW  Elec       q    Type
REMARK                         _______ _______ _______ _____ _____    ______ ____
ROOT
ATOM      1  N   UNL     1      47.565   5.967  14.037  0.00  0.00    +0.000 N 
ATOM      2  C   UNL     1      47.450   4.996  14.998  0.00  0.00    +0.000 A 
ATOM      3  N   UNL     1      46.677   4.005  14.605  0.00  0.00    +0.000 NA
ATOM      4  C   UNL     1      46.239   4.375  13.362  0.00  0.00    +0.000 A 
ATOM      5  C   UNL     1      45.374   3.725  12.474  0.00  0.00    +0.000 A 
ATOM      6  C   UNL     1      45.063   4.389  11.284  0.00  0.00    +0.000 A 
ATOM      7  C   UNL     1      45.652   5.635  11.036  0.00  0.00    +0.000 A 
ATOM      8  N   UNL     1      46.524   6.292  11.854  0.00  0.00    +0.000 NA
ATOM      9  C   UNL     1      46.762   5.609  12.991  0.00  0.00    +0.000 A 
ENDROOT
BRANCH   6  10
ATOM     10  C   UNL     1      44.118   3.846  10.276  0.00  0.00    +0.000 C 
ATOM     11  N   UNL     1      44.001   4.495   9.075  0.00  0.00    +0.000 N 
ATOM     12  O   UNL     1      43.462   2.840  10.500  0.00  0.00    +0.000 OA
ATOM     13  H   UNL     1      44.513   5.317   8.798  0.00  0.00    +0.000 HD
ATOM     14  H   UNL     1      43.363   4.090   8.400  0.00  0.00    +0.000 HD
ENDBRANCH   6  10
BRANCH   1  15
ATOM     15  C   UNL     1      48.388   7.157  14.134  0.00  0.00    +0.000 C 
BRANCH  15  19
ATOM     16  C   UNL     1      50.612   9.917  15.592  0.00  0.00    +0.000 C 
ATOM     17  C   UNL     1      51.093   8.760  14.699  0.00  0.00    +0.000 C 
ATOM     18  C   UNL     1      50.689   7.396  15.256  0.00  0.00    +0.000 C 
ATOM     19  C   UNL     1      49.170   7.269  15.463  0.00  0.00    +0.000 C 
ATOM     20  C   UNL     1      48.646   8.437  16.319  0.00  0.00    +0.000 C 
ATOM     21  C   UNL     1      49.093   9.811  15.812  0.00  0.00    +0.000 C 
BRANCH  16  22
ATOM     22  C   UNL     1      51.371   9.998  16.934  0.00  0.00    +0.000 C 
BRANCH  22  23
ATOM     23  N   UNL     1      50.755  10.960  17.841  0.00  0.00    +0.000 NA
ATOM     24  H   UNL     1      49.853  11.256  17.471  0.00  0.00    +0.000 HD
ATOM     25  H   UNL     1      51.334  11.797  17.901  0.00  0.00    +0.000 HD
ENDBRANCH  22  23
ENDBRANCH  16  22
ENDBRANCH  15  19
ENDBRANCH   1  15
TORSDOF 5
ENDMDL
MODEL 8
REMARK VINA RESULT:    -4.779      3.880      5.836
REMARK INTER + INTRA:          -6.580
REMARK INTER:                  -6.235
REMARK INTRA:                  -0.346
REMARK UNBOUND:                -0.545
REMARK  Name = 
REMARK  5 active torsions:
REMARK  status: ('A' for Active; 'I' for Inactive)
REMARK    1  A    between atoms: N_1  and  C_2
REMARK    2  A    between atoms: C_2  and  C_3
REMARK    3  A    between atoms: C_6  and  C_7
REMARK    4  A    between atoms: C_7  and  N_8
REMARK    5  A    between atoms: C_13  and  C_14
REMARK                            x       y       z     vdW  Elec       q    Type
REMARK                         _______ _______ _______ _____ _____    ______ ____
ROOT
ATOM      1  N   UNL     1      48.385   7.313  12.759  0.00  0.00    +0.000 N 
ATOM      2  C   UNL     1      48.828   7.019  14.023  0.00  0.00    +0.000 A 
ATOM      3  N   UNL     1      48.214   5.970  14.529  0.00  0.00    +0.000 NA
ATOM      4  C   UNL     1      47.306   5.603  13.572  0.00  0.00    +0.000 A 
ATOM      5  C   UNL     1      46.361   4.570  13.568  0.00  0.00    +0.000 A 
ATOM      6  C   UNL     1      45.521   4.480  12.454  0.00  0.00    +0.000 A 
ATOM      7  C   UNL     1      45.691   5.393  11.407  0.00  0.00    +0.000 A 
ATOM      8  N   UNL     1      46.616   6.393  11.352  0.00  0.00    +0.000 NA
ATOM      9  C   UNL     1      47.376   6.439  12.463  0.00  0.00    +0.000 A 
ENDROOT
BRANCH   6  10
ATOM     10  C   UNL     1      44.438   3.471  12.337  0.00  0.00    +0.000 C 
ATOM     11  N   UNL     1      44.425   2.650  11.240  0.00  0.00    +0.000 N 
ATOM     12  O   UNL     1      43.577   3.362  13.197  0.00  0.00    +0.000 OA
ATOM     13  H   UNL     1      45.102   2.656  10.493  0.00  0.00    +0.000 HD
ATOM     14  H   UNL     1      43.686   1.959  11.197  0.00  0.00    +0.000 HD
ENDBRANCH   6  10
BRANCH   1  15
ATOM     15  C   UNL     1      48.900   8.368  11.908  0.00  0.00    +0.000 C 
BRANCH  15  19
ATOM     16  C   UNL     1      51.829  10.170  10.218  0.00  0.00    +0.000 C 
ATOM     17  C   UNL     1      51.774   8.668  10.547  0.00  0.00    +0.000 C 
ATOM     18  C   UNL     1      51.468   8.412  12.021  0.00  0.00    +0.000 C 
ATOM     19  C   UNL     1      50.154   9.072  12.475  0.00  0.00    +0.000 C 
ATOM     20  C   UNL     1      50.157  10.571  12.122  0.00  0.00    +0.000 C 
ATOM     21  C   UNL     1      50.524  10.852  10.662  0.00  0.00    +0.000 C 
BRANCH  16  22
ATOM     22  C   UNL     1      53.065  10.873  10.820  0.00  0.00    +0.000 C 
BRANCH  22  23
ATOM     23  N   UNL     1      54.301  10.189  10.458  0.00  0.00    +0.000 NA
ATOM     24  H   UNL     1      54.130   9.189  10.370  0.00  0.00    +0.000 HD
ATOM     25  H   UNL     1      54.989  10.303  11.201  0.00  0.00    +0.000 HD
ENDBRANCH  22  23
ENDBRANCH  16  22
ENDBRANCH  15  19
ENDBRANCH   1  15
TORSDOF 5
ENDMDL
MODEL 9
REMARK VINA RESULT:    -4.564      3.979      7.380
REMARK INTER + INTRA:          -6.309
REMARK INTER:                  -5.910
REMARK INTRA:                  -0.399
REMARK UNBOUND:                -0.545
REMARK  Name = 
REMARK  5 active torsions:
REMARK  status: ('A' for Active; 'I' for Inactive)
REMARK    1  A    between atoms: N_1  and  C_2
REMARK    2  A    between atoms: C_2  and  C_3
REMARK    3  A    between atoms: C_6  and  C_7
REMARK    4  A    between atoms: C_7  and  N_8
REMARK    5  A    between atoms: C_13  and  C_14
REMARK                            x       y       z     vdW  Elec       q    Type
REMARK                         _______ _______ _______ _____ _____    ______ ____
ROOT
ATOM      1  N   UNL     1      48.086   6.792  14.170  0.00  0.00    +0.000 N 
ATOM      2  C   UNL     1      48.560   6.288  15.354  0.00  0.00    +0.000 A 
ATOM      3  N   UNL     1      49.787   6.693  15.605  0.00  0.00    +0.000 NA
ATOM      4  C   UNL     1      50.135   7.448  14.517  0.00  0.00    +0.000 A 
ATOM      5  C   UNL     1      51.330   8.114  14.221  0.00  0.00    +0.000 A 
ATOM      6  C   UNL     1      51.407   8.765  12.985  0.00  0.00    +0.000 A 
ATOM      7  C   UNL     1      50.291   8.741  12.141  0.00  0.00    +0.000 A 
ATOM      8  N   UNL     1      49.097   8.135  12.400  0.00  0.00    +0.000 NA
ATOM      9  C   UNL     1      49.097   7.509  13.593  0.00  0.00    +0.000 A 
ENDROOT
BRANCH   6  10
ATOM     10  C   UNL     1      52.629   9.464  12.514  0.00  0.00    +0.000 C 
ATOM     11  N   UNL     1      53.609   8.726  11.904  0.00  0.00    +0.000 N 
ATOM     12  O   UNL     1      52.764  10.670  12.654  0.00  0.00    +0.000 OA
ATOM     13  H   UNL     1      53.577   7.734  11.729  0.00  0.00    +0.000 HD
ATOM     14  H   UNL     1      54.422   9.234  11.575  0.00  0.00    +0.000 HD
ENDBRANCH   6  10
BRANCH   1  15
ATOM     15  C   UNL     1      46.754   6.584  13.636  0.00  0.00    +0.000 C 
BRANCH  15  19
ATOM     16  C   UNL     1      43.822   5.102  11.662  0.00  0.00    +0.000 C 
ATOM     17  C   UNL     1      44.337   4.589  13.018  0.00  0.00    +0.000 C 
ATOM     18  C   UNL     1      45.831   4.274  12.986  0.00  0.00    +0.000 C 
ATOM     19  C   UNL     1      46.680   5.482  12.554  0.00  0.00    +0.000 C 
ATOM     20  C   UNL     1      46.165   6.049  11.218  0.00  0.00    +0.000 C 
ATOM     21  C   UNL     1      44.657   6.314  11.210  0.00  0.00    +0.000 C 
BRANCH  16  22
ATOM     22  C   UNL     1      43.788   4.006  10.577  0.00  0.00    +0.000 C 
BRANCH  22  23
ATOM     23  N   UNL     1      43.730   4.579   9.237  0.00  0.00    +0.000 NA
ATOM     24  H   UNL     1      42.761   4.751   8.975  0.00  0.00    +0.000 HD
ATOM     25  H   UNL     1      44.100   3.912   8.559  0.00  0.00    +0.000 HD
ENDBRANCH  22  23
ENDBRANCH  16  22
ENDBRANCH  15  19
ENDBRANCH   1  15
TORSDOF 5
ENDMDL
