MODEL 1
REMARK VINA RESULT:    -6.557      0.000      0.000
REMARK INTER + INTRA:          -8.431
REMARK INTER:                  -8.474
REMARK INTRA:                   0.043
REMARK UNBOUND:                 0.043
REMARK  Name = 
REMARK  7 active torsions:
REMARK  status: ('A' for Active; 'I' for Inactive)
REMARK    1  A    between atoms: C_1  and  C_2
REMARK    2  A    between atoms: C_2  and  C_3
REMARK    3  A    between atoms: C_6  and  O_7
REMARK    4  A    between atoms: O_7  and  C_8
REMARK    5  A    between atoms: C_15  and  C_16
REMARK    6  A    between atoms: C_15  and  C_17
REMARK    7  A    between atoms: C_20  and  C_21
REMARK                            x       y       z     vdW  Elec       q    Type
REMARK                         _______ _______ _______ _____ _____    ______ ____
ROOT
ATOM      1  C   UNL     1      45.603   6.938  12.735  0.00  0.00    +0.000 C 
ATOM      2  C   UNL     1      45.476   5.438  12.557  0.00  0.00    +0.000 C 
ATOM      3  C   UNL     1      44.700   4.681  13.617  0.00  0.00    +0.000 C 
ATOM      4  C   UNL     1      46.200   4.489  13.562  0.00  0.00    +0.000 C 
ATOM      5  C   UNL     1      46.669   3.112  13.130  0.00  0.00    +0.000 C 
ENDROOT
BRANCH   2   6
ATOM      6  C   UNL     1      45.319   4.997  11.106  0.00  0.00    +0.000 A 
ATOM      7  C   UNL     1      45.975   5.670  10.064  0.00  0.00    +0.000 A 
ATOM      8  C   UNL     1      45.945   5.187   8.752  0.00  0.00    +0.000 A 
ATOM      9  C   UNL     1      45.276   4.004   8.461  0.00  0.00    +0.000 A 
ATOM     10  C   UNL     1      44.512   3.395   9.452  0.00  0.00    +0.000 A 
ATOM     11  C   UNL     1      44.528   3.891  10.758  0.00  0.00    +0.000 A 
BRANCH   9  12
ATOM     12  O   UNL     1      45.255   3.393   7.245  0.00  0.00    +0.000 OA
BRANCH  12  13
ATOM     13  C   UNL     1      46.421   2.699   6.813  0.00  0.00    +0.000 C 
ATOM     14  F   UNL     1      47.587   3.302   7.129  0.00  0.00    +0.000 F 
ATOM     15  F   UNL     1      46.431   1.470   7.376  0.00  0.00    +0.000 F 
ATOM     16  F   UNL     1      46.366   2.547   5.472  0.00  0.00    +0.000 F 
ENDBRANCH  12  13
ENDBRANCH   9  12
ENDBRANCH   2   6
BRANCH   4  17
ATOM     17  C   UNL     1      47.096   5.140  14.614  0.00  0.00    +0.000 A 
ATOM     18  C   UNL     1      47.934   6.230  14.333  0.00  0.00    +0.000 A 
ATOM     19  C   UNL     1      48.791   6.740  15.306  0.00  0.00    +0.000 A 
ATOM     20  C   UNL     1      48.773   6.159  16.565  0.00  0.00    +0.000 A 
ATOM     21  N   UNL     1      47.957   5.129  16.909  0.00  0.00    +0.000 NA
ATOM     22  C   UNL     1      47.150   4.657  15.929  0.00  0.00    +0.000 A 
BRANCH  20  23
ATOM     23  C   UNL     1      49.701   6.659  17.627  0.00  0.00    +0.000 C 
ATOM     24  N   UNL     1      49.708   5.934  18.787  0.00  0.00    +0.000 N 
ATOM     25  O   UNL     1      50.413   7.648  17.479  0.00  0.00    +0.000 OA
ATOM     26  H   UNL     1      49.108   5.120  18.867  0.00  0.00    +0.000 HD
ATOM     27  H   UNL     1      50.313   6.206  19.548  0.00  0.00    +0.000 HD
ENDBRANCH  20  23
ENDBRANCH   4  17
TORSDOF 5
ENDMDL
MODEL 2
REMARK VINA RESULT:    -6.061      4.476      5.716
REMARK INTER + INTRA:          -7.790
REMARK INTER:                  -6.620
REMARK INTRA:                  -1.170
REMARK UNBOUND:                 0.043
REMARK  Name = 
REMARK  7 active torsions:
REMARK  status: ('A' for Active; 'I' for Inactive)
REMARK    1  A    between atoms: C_1  and  C_2
REMARK    2  A    between atoms: C_2  and  C_3
REMARK    3  A    between atoms: C_6  and  O_7
REMARK    4  A    between atoms: O_7  and  C_8
REMARK    5  A    between atoms: C_15  and  C_16
REMARK    6  A    between atoms: C_15  and  C_17
REMARK    7  A    between atoms: C_20  and  C_21
REMARK                            x       y       z     vdW  Elec       q    Type
REMARK                         _______ _______ _______ _____ _____    ______ ____
ROOT
ATOM      1  C   UNL     1      49.068   7.641  11.438  0.00  0.00    +0.000 C 
ATOM      2  C   UNL     1      48.132   8.054  12.557  0.00  0.00    +0.000 C 
ATOM      3  C   UNL     1      47.741   9.517  12.623  0.00  0.00    +0.000 C 
ATOM      4  C   UNL     1      48.669   8.981  13.692  0.00  0.00    +0.000 C 
ATOM      5  C   UNL     1      48.086   8.912  15.092  0.00  0.00    +0.000 C 
ENDROOT
BRANCH   2   6
ATOM      6  C   UNL     1      47.070   7.014  12.892  0.00  0.00    +0.000 A 
ATOM      7  C   UNL     1      45.709   7.261  12.661  0.00  0.00    +0.000 A 
ATOM      8  C   UNL     1      44.746   6.262  12.837  0.00  0.00    +0.000 A 
ATOM      9  C   UNL     1      45.132   4.984  13.225  0.00  0.00    +0.000 A 
ATOM     10  C   UNL     1      46.456   4.756  13.586  0.00  0.00    +0.000 A 
ATOM     11  C   UNL     1      47.413   5.762  13.427  0.00  0.00    +0.000 A 
BRANCH   9  12
ATOM     12  O   UNL     1      44.299   3.914  13.341  0.00  0.00    +0.000 OA
BRANCH  12  13
ATOM     13  C   UNL     1      43.784   3.323  12.152  0.00  0.00    +0.000 C 
ATOM     14  F   UNL     1      42.756   3.991  11.588  0.00  0.00    +0.000 F 
ATOM     15  F   UNL     1      44.776   3.252  11.235  0.00  0.00    +0.000 F 
ATOM     16  F   UNL     1      43.378   2.066  12.430  0.00  0.00    +0.000 F 
ENDBRANCH  12  13
ENDBRANCH   9  12
ENDBRANCH   2   6
BRANCH   4  17
ATOM     17  C   UNL     1      50.155   9.331  13.664  0.00  0.00    +0.000 A 
ATOM     18  C   UNL     1      51.142   8.514  14.237  0.00  0.00    +0.000 A 
ATOM     19  C   UNL     1      52.477   8.914  14.254  0.00  0.00    +0.000 A 
ATOM     20  C   UNL     1      52.806  10.125  13.667  0.00  0.00    +0.000 A 
ATOM     21  N   UNL     1      51.904  10.940  13.061  0.00  0.00    +0.000 NA
ATOM     22  C   UNL     1      50.616  10.518  13.078  0.00  0.00    +0.000 A 
BRANCH  20  23
ATOM     23  C   UNL     1      54.224  10.603  13.692  0.00  0.00    +0.000 C 
ATOM     24  N   UNL     1      55.022  10.019  14.638  0.00  0.00    +0.000 N 
ATOM     25  O   UNL     1      54.654  11.456  12.922  0.00  0.00    +0.000 OA
ATOM     26  H   UNL     1      54.629   9.314  15.252  0.00  0.00    +0.000 HD
ATOM     27  H   UNL     1      55.992  10.285  14.712  0.00  0.00    +0.000 HD
ENDBRANCH  20  23
ENDBRANCH   4  17
TORSDOF 5
ENDMDL
MODEL 3
REMARK VINA RESULT:    -5.949      5.469      8.940
REMARK INTER + INTRA:          -7.646
REMARK INTER:                  -6.464
REMARK INTRA:                  -1.182
REMARK UNBOUND:                 0.043
REMARK  Name = 
REMARK  7 active torsions:
REMARK  status: ('A' for Active; 'I' for Inactive)
REMARK    1  A    between atoms: C_1  and  C_2
REMARK    2  A    between atoms: C_2  and  C_3
REMARK    3  A    between atoms: C_6  and  O_7
REMARK    4  A    between atoms: O_7  and  C_8
REMARK    5  A    between atoms: C_15  and  C_16
REMARK    6  A    between atoms: C_15  and  C_17
REMARK    7  A    between atoms: C_20  and  C_21
REMARK                            x       y       z     vdW  Elec       q    Type
REMARK                         _______ _______ _______ _____ _____    ______ ____
ROOT
ATOM      1  C   UNL     1      45.867   8.870  13.258  0.00  0.00    +0.000 C 
ATOM      2  C   UNL     1      47.369   8.693  13.143  0.00  0.00    +0.000 C 
ATOM      3  C   UNL     1      47.954   8.662  11.745  0.00  0.00    +0.000 C 
ATOM      4  C   UNL     1      47.933   7.371  12.535  0.00  0.00    +0.000 C 
ATOM      5  C   UNL     1      49.291   6.839  12.957  0.00  0.00    +0.000 C 
ENDROOT
BRANCH   2   6
ATOM      6  C   UNL     1      48.162   9.402  14.234  0.00  0.00    +0.000 A 
ATOM      7  C   UNL     1      48.041   9.032  15.582  0.00  0.00    +0.000 A 
ATOM      8  C   UNL     1      48.866   9.585  16.567  0.00  0.00    +0.000 A 
ATOM      9  C   UNL     1      49.849  10.502  16.217  0.00  0.00    +0.000 A 
ATOM     10  C   UNL     1      49.897  10.979  14.910  0.00  0.00    +0.000 A 
ATOM     11  C   UNL     1      49.058  10.440  13.932  0.00  0.00    +0.000 A 
BRANCH   9  12
ATOM     12  O   UNL     1      50.765  11.037  17.071  0.00  0.00    +0.000 OA
BRANCH  12  13
ATOM     13  C   UNL     1      52.061  10.450  17.129  0.00  0.00    +0.000 C 
ATOM     14  F   UNL     1      52.144   9.208  16.607  0.00  0.00    +0.000 F 
ATOM     15  F   UNL     1      52.926  11.237  16.450  0.00  0.00    +0.000 F 
ATOM     16  F   UNL     1      52.460  10.401  18.418  0.00  0.00    +0.000 F 
ENDBRANCH  12  13
ENDBRANCH   9  12
ENDBRANCH   2   6
BRANCH   4  17
ATOM     17  C   UNL     1      46.927   6.276  12.189  0.00  0.00    +0.000 A 
ATOM     18  C   UNL     1      46.226   6.241  10.972  0.00  0.00    +0.000 A 
ATOM     19  C   UNL     1      45.262   5.265  10.734  0.00  0.00    +0.000 A 
ATOM     20  C   UNL     1      45.032   4.316  11.717  0.00  0.00    +0.000 A 
ATOM     21  N   UNL     1      45.704   4.273  12.896  0.00  0.00    +0.000 NA
ATOM     22  C   UNL     1      46.625   5.248  13.092  0.00  0.00    +0.000 A 
BRANCH  20  23
ATOM     23  C   UNL     1      43.981   3.270  11.510  0.00  0.00    +0.000 C 
ATOM     24  N   UNL     1      43.738   2.462  12.586  0.00  0.00    +0.000 N 
ATOM     25  O   UNL     1      43.372   3.138  10.452  0.00  0.00    +0.000 OA
ATOM     26  H   UNL     1      44.261   2.607  13.444  0.00  0.00    +0.000 HD
ATOM     27  H   UNL     1      43.040   1.737  12.525  0.00  0.00    +0.000 HD
ENDBRANCH  20  23
ENDBRANCH   4  17
TORSDOF 5
ENDMDL
MODEL 4
REMARK VINA RESULT:    -5.648      4.120      5.012
REMARK INTER + INTRA:          -7.256
REMARK INTER:                  -6.130
REMARK INTRA:                  -1.126
REMARK UNBOUND:                 0.043
REMARK  Name = 
REMARK  7 active torsions:
REMARK  status: ('A' for Active; 'I' for Inactive)
REMARK    1  A    between atoms: C_1  and  C_2
REMARK    2  A    between atoms: C_2  and  C_3
REMARK    3  A    between atoms: C_6  and  O_7
REMARK    4  A    between atoms: O_7  and  C_8
REMARK    5  A    between atoms: C_15  and  C_16
REMARK    6  A    between atoms: C_15  and  C_17
REMARK    7  A    between atoms: C_20  and  C_21
REMARK                            x       y       z     vdW  Elec       q    Type
REMARK                         _______ _______ _______ _____ _____    ______ ____
ROOT
ATOM      1  C   UNL     1      47.350   9.513  11.689  0.00  0.00    +0.000 C 
ATOM      2  C   UNL     1      47.222   8.239  12.502  0.00  0.00    +0.000 C 
ATOM      3  C   UNL     1      47.398   8.358  14.003  0.00  0.00    +0.000 C 
ATOM      4  C   UNL     1      48.486   7.663  13.214  0.00  0.00    +0.000 C 
ATOM      5  C   UNL     1      48.625   6.172  13.463  0.00  0.00    +0.000 C 
ENDROOT
BRANCH   2   6
ATOM      6  C   UNL     1      46.164   7.275  11.980  0.00  0.00    +0.000 A 
ATOM      7  C   UNL     1      46.310   6.630  10.743  0.00  0.00    +0.000 A 
ATOM      8  C   UNL     1      45.412   5.643  10.324  0.00  0.00    +0.000 A 
ATOM      9  C   UNL     1      44.361   5.263  11.150  0.00  0.00    +0.000 A 
ATOM     10  C   UNL     1      44.123   5.980  12.319  0.00  0.00    +0.000 A 
ATOM     11  C   UNL     1      45.011   6.979  12.725  0.00  0.00    +0.000 A 
BRANCH   9  12
ATOM     12  O   UNL     1      43.482   4.257  10.890  0.00  0.00    +0.000 OA
BRANCH  12  13
ATOM     13  C   UNL     1      43.908   2.913  11.092  0.00  0.00    +0.000 C 
ATOM     14  F   UNL     1      43.029   2.136  11.760  0.00  0.00    +0.000 F 
ATOM     15  F   UNL     1      44.128   2.339   9.888  0.00  0.00    +0.000 F 
ATOM     16  F   UNL     1      45.074   2.924  11.772  0.00  0.00    +0.000 F 
ENDBRANCH  12  13
ENDBRANCH   9  12
ENDBRANCH   2   6
BRANCH   4  17
ATOM     17  C   UNL     1      49.816   8.368  12.955  0.00  0.00    +0.000 A 
ATOM     18  C   UNL     1      50.610   8.107  11.827  0.00  0.00    +0.000 A 
ATOM     19  C   UNL     1      51.852   8.719  11.675  0.00  0.00    +0.000 A 
ATOM     20  C   UNL     1      52.270   9.609  12.651  0.00  0.00    +0.000 A 
ATOM     21  N   UNL     1      51.530   9.932  13.744  0.00  0.00    +0.000 NA
ATOM     22  C   UNL     1      50.334   9.306  13.859  0.00  0.00    +0.000 A 
BRANCH  20  23
ATOM     23  C   UNL     1      53.612  10.262  12.537  0.00  0.00    +0.000 C 
ATOM     24  N   UNL     1      54.642   9.430  12.197  0.00  0.00    +0.000 N 
ATOM     25  O   UNL     1      53.788  11.461  12.731  0.00  0.00    +0.000 OA
ATOM     26  H   UNL     1      54.453   8.445  12.041  0.00  0.00    +0.000 HD
ATOM     27  H   UNL     1      55.575   9.798  12.095  0.00  0.00    +0.000 HD
ENDBRANCH  20  23
ENDBRANCH   4  17
TORSDOF 5
ENDMDL
MODEL 5
REMARK VINA RESULT:    -5.643      5.550      8.244
REMARK INTER + INTRA:          -7.249
REMARK INTER:                  -6.172
REMARK INTRA:                  -1.077
REMARK UNBOUND:                 0.043
REMARK  Name = 
REMARK  7 active torsions:
REMARK  status: ('A' for Active; 'I' for Inactive)
REMARK    1  A    between atoms: C_1  and  C_2
REMARK    2  A    between atoms: C_2  and  C_3
REMARK    3  A    between atoms: C_6  and  O_7
REMARK    4  A    between atoms: O_7  and  C_8
REMARK    5  A    between atoms: C_15  and  C_16
REMARK    6  A    between atoms: C_15  and  C_17
REMARK    7  A    between atoms: C_20  and  C_21
REMARK                            x       y       z     vdW  Elec       q    Type
REMARK                         _______ _______ _______ _____ _____    ______ ____
ROOT
ATOM      1  C   UNL     1      48.705   6.258  13.196  0.00  0.00    +0.000 C 
ATOM      2  C   UNL     1      48.141   7.657  13.036  0.00  0.00    +0.000 C 
ATOM      3  C   UNL     1      47.077   8.088  14.027  0.00  0.00    +0.000 C 
ATOM      4  C   UNL     1      46.654   7.830  12.597  0.00  0.00    +0.000 C 
ATOM      5  C   UNL     1      46.212   9.053  11.813  0.00  0.00    +0.000 C 
ENDROOT
BRANCH   2   6
ATOM      6  C   UNL     1      49.167   8.693  12.594  0.00  0.00    +0.000 A 
ATOM      7  C   UNL     1      49.458   9.815  13.384  0.00  0.00    +0.000 A 
ATOM      8  C   UNL     1      50.494  10.693  13.051  0.00  0.00    +0.000 A 
ATOM      9  C   UNL     1      51.280  10.449  11.930  0.00  0.00    +0.000 A 
ATOM     10  C   UNL     1      50.925   9.419  11.065  0.00  0.00    +0.000 A 
ATOM     11  C   UNL     1      49.876   8.555  11.390  0.00  0.00    +0.000 A 
BRANCH   9  12
ATOM     12  O   UNL     1      52.367  11.180  11.559  0.00  0.00    +0.000 OA
BRANCH  12  13
ATOM     13  C   UNL     1      53.634  10.840  12.112  0.00  0.00    +0.000 C 
ATOM     14  F   UNL     1      53.816   9.522  12.340  0.00  0.00    +0.000 F 
ATOM     15  F   UNL     1      54.604  11.245  11.262  0.00  0.00    +0.000 F 
ATOM     16  F   UNL     1      53.793  11.502  13.278  0.00  0.00    +0.000 F 
ENDBRANCH  12  13
ENDBRANCH   9  12
ENDBRANCH   2   6
BRANCH   4  17
ATOM     17  C   UNL     1      45.878   6.563  12.243  0.00  0.00    +0.000 A 
ATOM     18  C   UNL     1      45.312   5.720  13.213  0.00  0.00    +0.000 A 
ATOM     19  C   UNL     1      44.680   4.534  12.844  0.00  0.00    +0.000 A 
ATOM     20  C   UNL     1      44.601   4.224  11.496  0.00  0.00    +0.000 A 
ATOM     21  N   UNL     1      45.094   5.018  10.509  0.00  0.00    +0.000 NA
ATOM     22  C   UNL     1      45.710   6.155  10.913  0.00  0.00    +0.000 A 
BRANCH  20  23
ATOM     23  C   UNL     1      43.957   2.944  11.063  0.00  0.00    +0.000 C 
ATOM     24  N   UNL     1      44.542   2.326   9.993  0.00  0.00    +0.000 N 
ATOM     25  O   UNL     1      42.973   2.471  11.624  0.00  0.00    +0.000 OA
ATOM     26  H   UNL     1      45.358   2.748   9.561  0.00  0.00    +0.000 HD
ATOM     27  H   UNL     1      44.168   1.456   9.647  0.00  0.00    +0.000 HD
ENDBRANCH  20  23
ENDBRANCH   4  17
TORSDOF 5
ENDMDL
MODEL 6
REMARK VINA RESULT:    -5.432      6.266      9.134
REMARK INTER + INTRA:          -6.976
REMARK INTER:                  -5.850
REMARK INTRA:                  -1.126
REMARK UNBOUND:                 0.043
REMARK  Name = 
REMARK  7 active torsions:
REMARK  status: ('A' for Active; 'I' for Inactive)
REMARK    1  A    between atoms: C_1  and  C_2
REMARK    2  A    between atoms: C_2  and  C_3
REMARK    3  A    between atoms: C_6  and  O_7
REMARK    4  A    between atoms: O_7  and  C_8
REMARK    5  A    between atoms: C_15  and  C_16
REMARK    6  A    between atoms: C_15  and  C_17
REMARK    7  A    between atoms: C_20  and  C_21
REMARK                            x       y       z     vdW  Elec       q    Type
REMARK                         _______ _______ _______ _____ _____    ______ ____
ROOT
ATOM      1  C   UNL     1      48.246   8.857  15.045  0.00  0.00    +0.000 C 
ATOM      2  C   UNL     1      48.991   8.950  13.728  0.00  0.00    +0.000 C 
ATOM      3  C   UNL     1      48.292   9.667  12.590  0.00  0.00    +0.000 C 
ATOM      4  C   UNL     1      48.450   8.165  12.492  0.00  0.00    +0.000 C 
ATOM      5  C   UNL     1      49.393   7.674  11.409  0.00  0.00    +0.000 C 
ENDROOT
BRANCH   2   6
ATOM      6  C   UNL     1      50.495   9.145  13.878  0.00  0.00    +0.000 A 
ATOM      7  C   UNL     1      51.128  10.313  13.427  0.00  0.00    +0.000 A 
ATOM      8  C   UNL     1      52.481  10.556  13.685  0.00  0.00    +0.000 A 
ATOM      9  C   UNL     1      53.223   9.642  14.426  0.00  0.00    +0.000 A 
ATOM     10  C   UNL     1      52.649   8.422  14.768  0.00  0.00    +0.000 A 
ATOM     11  C   UNL     1      51.302   8.173  14.490  0.00  0.00    +0.000 A 
BRANCH   9  12
ATOM     12  O   UNL     1      54.516   9.813  14.815  0.00  0.00    +0.000 OA
BRANCH  12  13
ATOM     13  C   UNL     1      54.770  10.381  16.096  0.00  0.00    +0.000 C 
ATOM     14  F   UNL     1      55.502  11.515  16.076  0.00  0.00    +0.000 F 
ATOM     15  F   UNL     1      53.589  10.668  16.688  0.00  0.00    +0.000 F 
ATOM     16  F   UNL     1      55.412   9.470  16.858  0.00  0.00    +0.000 F 
ENDBRANCH  12  13
ENDBRANCH   9  12
ENDBRANCH   2   6
BRANCH   4  17
ATOM     17  C   UNL     1      47.247   7.251  12.718  0.00  0.00    +0.000 A 
ATOM     18  C   UNL     1      47.371   5.915  13.132  0.00  0.00    +0.000 A 
ATOM     19  C   UNL     1      46.249   5.099  13.249  0.00  0.00    +0.000 A 
ATOM     20  C   UNL     1      45.007   5.647  12.973  0.00  0.00    +0.000 A 
ATOM     21  N   UNL     1      44.818   6.942  12.608  0.00  0.00    +0.000 NA
ATOM     22  C   UNL     1      45.937   7.697  12.495  0.00  0.00    +0.000 A 
BRANCH  20  23
ATOM     23  C   UNL     1      43.781   4.793  13.059  0.00  0.00    +0.000 C 
ATOM     24  N   UNL     1      42.592   5.464  12.980  0.00  0.00    +0.000 N 
ATOM     25  O   UNL     1      43.827   3.573  13.189  0.00  0.00    +0.000 OA
ATOM     26  H   UNL     1      42.598   6.472  12.868  0.00  0.00    +0.000 HD
ATOM     27  H   UNL     1      41.722   4.955  13.024  0.00  0.00    +0.000 HD
ENDBRANCH  20  23
ENDBRANCH   4  17
TORSDOF 5
ENDMDL
MODEL 7
REMARK VINA RESULT:    -5.411     10.806     12.994
REMARK INTER + INTRA:          -6.950
REMARK INTER:                  -5.959
REMARK INTRA:                  -0.991
REMARK UNBOUND:                 0.043
REMARK  Name = 
REMARK  7 active torsions:
REMARK  status: ('A' for Active; 'I' for Inactive)
REMARK    1  A    between atoms: C_1  and  C_2
REMARK    2  A    between atoms: C_2  and  C_3
REMARK    3  A    between atoms: C_6  and  O_7
REMARK    4  A    between atoms: O_7  and  C_8
REMARK    5  A    between atoms: C_15  and  C_16
REMARK    6  A    between atoms: C_15  and  C_17
REMARK    7  A    between atoms: C_20  and  C_21
REMARK                            x       y       z     vdW  Elec       q    Type
REMARK                         _______ _______ _______ _____ _____    ______ ____
ROOT
ATOM      1  C   UNL     1      41.567  -2.709  12.883  0.00  0.00    +0.000 C 
ATOM      2  C   UNL     1      40.744  -3.805  13.530  0.00  0.00    +0.000 C 
ATOM      3  C   UNL     1      40.098  -4.819  12.605  0.00  0.00    +0.000 C 
ATOM      4  C   UNL     1      39.199  -3.825  13.308  0.00  0.00    +0.000 C 
ATOM      5  C   UNL     1      38.271  -4.410  14.358  0.00  0.00    +0.000 C 
ENDROOT
BRANCH   2   6
ATOM      6  C   UNL     1      41.307  -4.304  14.855  0.00  0.00    +0.000 A 
ATOM      7  C   UNL     1      41.841  -5.595  14.981  0.00  0.00    +0.000 A 
ATOM      8  C   UNL     1      42.482  -6.008  16.153  0.00  0.00    +0.000 A 
ATOM      9  C   UNL     1      42.625  -5.124  17.217  0.00  0.00    +0.000 A 
ATOM     10  C   UNL     1      41.989  -3.888  17.161  0.00  0.00    +0.000 A 
ATOM     11  C   UNL     1      41.331  -3.486  15.995  0.00  0.00    +0.000 A 
BRANCH   9  12
ATOM     12  O   UNL     1      43.305  -5.383  18.367  0.00  0.00    +0.000 OA
BRANCH  12  13
ATOM     13  C   UNL     1      44.714  -5.171  18.385  0.00  0.00    +0.000 C 
ATOM     14  F   UNL     1      45.094  -3.889  18.200  0.00  0.00    +0.000 F 
ATOM     15  F   UNL     1      45.200  -5.573  19.581  0.00  0.00    +0.000 F 
ATOM     16  F   UNL     1      45.281  -5.929  17.423  0.00  0.00    +0.000 F 
ENDBRANCH  12  13
ENDBRANCH   9  12
ENDBRANCH   2   6
BRANCH   4  17
ATOM     17  C   UNL     1      38.589  -2.659  12.533  0.00  0.00    +0.000 A 
ATOM     18  C   UNL     1      38.531  -2.624  11.130  0.00  0.00    +0.000 A 
ATOM     19  C   UNL     1      38.036  -1.504  10.466  0.00  0.00    +0.000 A 
ATOM     20  C   UNL     1      37.577  -0.440  11.227  0.00  0.00    +0.000 A 
ATOM     21  N   UNL     1      37.570  -0.431  12.585  0.00  0.00    +0.000 NA
ATOM     22  C   UNL     1      38.072  -1.535  13.190  0.00  0.00    +0.000 A 
BRANCH  20  23
ATOM     23  C   UNL     1      37.066   0.793  10.549  0.00  0.00    +0.000 C 
ATOM     24  N   UNL     1      35.712   0.842  10.366  0.00  0.00    +0.000 N 
ATOM     25  O   UNL     1      37.801   1.704  10.180  0.00  0.00    +0.000 OA
ATOM     26  H   UNL     1      35.139   0.069  10.690  0.00  0.00    +0.000 HD
ATOM     27  H   UNL     1      35.292   1.644   9.921  0.00  0.00    +0.000 HD
ENDBRANCH  20  23
ENDBRANCH   4  17
TORSDOF 5
ENDMDL
MODEL 8
REMARK VINA RESULT:    -5.406      5.588      8.184
REMARK INTER + INTRA:          -6.944
REMARK INTER:                  -6.210
REMARK INTRA:                  -0.734
REMARK UNBOUND:                 0.043
REMARK  Name = 
REMARK  7 active torsions:
REMARK  status: ('A' for Active; 'I' for Inactive)
REMARK    1  A    between atoms: C_1  and  C_2
REMARK    2  A    between atoms: C_2  and  C_3
REMARK    3  A    between atoms: C_6  and  O_7
REMARK    4  A    between atoms: O_7  and  C_8
REMARK    5  A    between atoms: C_15  and  C_16
REMARK    6  A    between atoms: C_15  and  C_17
REMARK    7  A    between atoms: C_20  and  C_21
REMARK                            x       y       z     vdW  Elec       q    Type
REMARK                         _______ _______ _______ _____ _____    ______ ____
ROOT
ATOM      1  C   UNL     1      48.169   8.915  15.736  0.00  0.00    +0.000 C 
ATOM      2  C   UNL     1      48.771   7.710  15.039  0.00  0.00    +0.000 C 
ATOM      3  C   UNL     1      49.764   7.983  13.926  0.00  0.00    +0.000 C 
ATOM      4  C   UNL     1      48.405   7.436  13.547  0.00  0.00    +0.000 C 
ATOM      5  C   UNL     1      48.398   6.021  12.996  0.00  0.00    +0.000 C 
ENDROOT
BRANCH   2   6
ATOM      6  C   UNL     1      49.040   6.529  15.964  0.00  0.00    +0.000 A 
ATOM      7  C   UNL     1      48.041   5.588  16.255  0.00  0.00    +0.000 A 
ATOM      8  C   UNL     1      48.321   4.432  16.990  0.00  0.00    +0.000 A 
ATOM      9  C   UNL     1      49.616   4.181  17.426  0.00  0.00    +0.000 A 
ATOM     10  C   UNL     1      50.589   5.161  17.261  0.00  0.00    +0.000 A 
ATOM     11  C   UNL     1      50.302   6.326  16.544  0.00  0.00    +0.000 A 
BRANCH   9  12
ATOM     12  O   UNL     1      50.024   3.051  18.067  0.00  0.00    +0.000 OA
BRANCH  12  13
ATOM     13  C   UNL     1      50.747   2.073  17.326  0.00  0.00    +0.000 C 
ATOM     14  F   UNL     1      50.831   0.863  17.920  0.00  0.00    +0.000 F 
ATOM     15  F   UNL     1      50.143   1.899  16.129  0.00  0.00    +0.000 F 
ATOM     16  F   UNL     1      51.997   2.530  17.105  0.00  0.00    +0.000 F 
ENDBRANCH  12  13
ENDBRANCH   9  12
ENDBRANCH   2   6
BRANCH   4  17
ATOM     17  C   UNL     1      47.362   8.348  12.904  0.00  0.00    +0.000 A 
ATOM     18  C   UNL     1      47.691   9.568  12.291  0.00  0.00    +0.000 A 
ATOM     19  C   UNL     1      46.696  10.402  11.787  0.00  0.00    +0.000 A 
ATOM     20  C   UNL     1      45.378   9.984  11.882  0.00  0.00    +0.000 A 
ATOM     21  N   UNL     1      45.001   8.798  12.427  0.00  0.00    +0.000 NA
ATOM     22  C   UNL     1      45.999   8.024  12.916  0.00  0.00    +0.000 A 
BRANCH  20  23
ATOM     23  C   UNL     1      44.279  10.867  11.379  0.00  0.00    +0.000 C 
ATOM     24  N   UNL     1      44.355  11.199  10.055  0.00  0.00    +0.000 N 
ATOM     25  O   UNL     1      43.368  11.270  12.095  0.00  0.00    +0.000 OA
ATOM     26  H   UNL     1      45.122  10.841   9.496  0.00  0.00    +0.000 HD
ATOM     27  H   UNL     1      43.646  11.786   9.641  0.00  0.00    +0.000 HD
ENDBRANCH  20  23
ENDBRANCH   4  17
TORSDOF 5
ENDMDL
MODEL 9
REMARK VINA RESULT:    -5.405      3.716      5.344
REMARK INTER + INTRA:          -6.942
REMARK INTER:                  -7.135
REMARK INTRA:                   0.194
REMARK UNBOUND:                 0.043
REMARK  Name = 
REMARK  7 active torsions:
REMARK  status: ('A' for Active; 'I' for Inactive)
REMARK    1  A    between atoms: C_1  and  C_2
REMARK    2  A    between atoms: C_2  and  C_3
REMARK    3  A    between atoms: C_6  and  O_7
REMARK    4  A    between atoms: O_7  and  C_8
REMARK    5  A    between atoms: C_15  and  C_16
REMARK    6  A    between atoms: C_15  and  C_17
REMARK    7  A    between atoms: C_20  and  C_21
REMARK                            x       y       z     vdW  Elec       q    Type
REMARK                         _______ _______ _______ _____ _____    ______ ____
ROOT
ATOM      1  C   UNL     1      49.458   6.595  16.346  0.00  0.00    +0.000 C 
ATOM      2  C   UNL     1      48.458   5.457  16.295  0.00  0.00    +0.000 C 
ATOM      3  C   UNL     1      47.677   5.169  17.563  0.00  0.00    +0.000 C 
ATOM      4  C   UNL     1      48.730   4.170  17.135  0.00  0.00    +0.000 C 
ATOM      5  C   UNL     1      48.206   2.819  16.680  0.00  0.00    +0.000 C 
ENDROOT
BRANCH   2   6
ATOM      6  C   UNL     1      47.730   5.330  14.963  0.00  0.00    +0.000 A 
ATOM      7  C   UNL     1      46.843   4.271  14.713  0.00  0.00    +0.000 A 
ATOM      8  C   UNL     1      46.070   4.226  13.549  0.00  0.00    +0.000 A 
ATOM      9  C   UNL     1      46.151   5.257  12.620  0.00  0.00    +0.000 A 
ATOM     10  C   UNL     1      47.117   6.244  12.785  0.00  0.00    +0.000 A 
ATOM     11  C   UNL     1      47.902   6.276  13.940  0.00  0.00    +0.000 A 
BRANCH   9  12
ATOM     12  O   UNL     1      45.385   5.366  11.499  0.00  0.00    +0.000 OA
BRANCH  12  13
ATOM     13  C   UNL     1      44.158   6.084  11.583  0.00  0.00    +0.000 C 
ATOM     14  F   UNL     1      44.262   7.409  11.346  0.00  0.00    +0.000 F 
ATOM     15  F   UNL     1      43.292   5.574  10.678  0.00  0.00    +0.000 F 
ATOM     16  F   UNL     1      43.633   5.908  12.814  0.00  0.00    +0.000 F 
ENDBRANCH  12  13
ENDBRANCH   9  12
ENDBRANCH   2   6
BRANCH   4  17
ATOM     17  C   UNL     1      50.060   4.090  17.881  0.00  0.00    +0.000 A 
ATOM     18  C   UNL     1      51.154   3.344  17.412  0.00  0.00    +0.000 A 
ATOM     19  C   UNL     1      52.320   3.240  18.167  0.00  0.00    +0.000 A 
ATOM     20  C   UNL     1      52.381   3.913  19.377  0.00  0.00    +0.000 A 
ATOM     21  N   UNL     1      51.373   4.682  19.864  0.00  0.00    +0.000 NA
ATOM     22  C   UNL     1      50.253   4.746  19.104  0.00  0.00    +0.000 A 
BRANCH  20  23
ATOM     23  C   UNL     1      53.606   3.800  20.230  0.00  0.00    +0.000 C 
ATOM     24  N   UNL     1      54.161   2.551  20.295  0.00  0.00    +0.000 N 
ATOM     25  O   UNL     1      54.090   4.754  20.831  0.00  0.00    +0.000 OA
ATOM     26  H   UNL     1      53.732   1.790  19.779  0.00  0.00    +0.000 HD
ATOM     27  H   UNL     1      54.992   2.398  20.846  0.00  0.00    +0.000 HD
ENDBRANCH  20  23
ENDBRANCH   4  17
TORSDOF 5
ENDMDL
