MODEL 1
REMARK VINA RESULT:    -8.566      0.000      0.000
REMARK INTER + INTRA:         -13.237
REMARK INTER:                 -12.322
REMARK INTRA:                  -0.915
REMARK UNBOUND:                -0.915
REMARK  Name = 
REMARK  8 active torsions:
REMARK  status: ('A' for Active; 'I' for Inactive)
REMARK    1  A    between atoms: N_1  and  C_2
REMARK    2  A    between atoms: C_2  and  C_3
REMARK    3  A    between atoms: C_2  and  C_18
REMARK    4  A    between atoms: C_3  and  C_4
REMARK    5  A    between atoms: C_7  and  C_8
REMARK    6  A    between atoms: C_8  and  O_9
REMARK    7  A    between atoms: O_9  and  C_10
REMARK    8  A    between atoms: C_18  and  C_20
REMARK                            x       y       z     vdW  Elec       q    Type
REMARK                         _______ _______ _______ _____ _____    ______ ____
ROOT
ATOM      1  C   UNL     1      47.301   4.267  14.756  0.00  0.00    +0.000 C 
ENDROOT
BRANCH   1   2
ATOM      2  N   UNL     1      47.521   2.909  14.201  0.00  0.00    +0.000 NA
ATOM      3  H   UNL     1      48.092   2.998  13.357  0.00  0.00    +0.000 HD
ATOM      4  H   UNL     1      46.625   2.535  13.881  0.00  0.00    +0.000 HD
ENDBRANCH   1   2
BRANCH   1   5
ATOM      5  C   UNL     1      47.435   4.201  16.300  0.00  0.00    +0.000 C 
ATOM      6  O   UNL     1      46.521   3.694  16.961  0.00  0.00    +0.000 OA
BRANCH   5   7
ATOM      7  C   UNL     1      48.682   4.565  16.996  0.00  0.00    +0.000 A 
ATOM      8  C   UNL     1      48.853   5.871  17.438  0.00  0.00    +0.000 A 
ATOM      9  S   UNL     1      50.294   6.114  18.314  0.00  0.00    +0.000 S 
ATOM     10  C   UNL     1      50.751   4.490  18.104  0.00  0.00    +0.000 A 
ATOM     11  N   UNL     1      51.894   4.011  18.661  0.00  0.00    +0.000 NA
ATOM     12  C   UNL     1      52.110   2.761  18.433  0.00  0.00    +0.000 A 
ATOM     13  N   UNL     1      51.303   1.953  17.669  0.00  0.00    +0.000 N 
ATOM     14  C   UNL     1      50.237   2.443  16.953  0.00  0.00    +0.000 A 
ATOM     15  O   UNL     1      49.734   1.801  16.038  0.00  0.00    +0.000 OA
ATOM     16  C   UNL     1      49.852   3.792  17.316  0.00  0.00    +0.000 A 
ATOM     17  H   UNL     1      51.587   1.008  17.453  0.00  0.00    +0.000 HD
ENDBRANCH   5   7
ENDBRANCH   1   5
BRANCH   1  18
ATOM     18  C   UNL     1      45.896   4.831  14.441  0.00  0.00    +0.000 C 
BRANCH  18  19
ATOM     19  C   UNL     1      45.384   4.726  13.024  0.00  0.00    +0.000 A 
ATOM     20  C   UNL     1      45.895   5.588  12.043  0.00  0.00    +0.000 A 
ATOM     21  C   UNL     1      45.556   5.426  10.698  0.00  0.00    +0.000 A 
ATOM     22  C   UNL     1      44.684   4.405  10.306  0.00  0.00    +0.000 A 
ATOM     23  C   UNL     1      44.165   3.546  11.286  0.00  0.00    +0.000 A 
ATOM     24  C   UNL     1      44.505   3.708  12.635  0.00  0.00    +0.000 A 
BRANCH  22  25
ATOM     25  C   UNL     1      44.300   4.245   8.853  0.00  0.00    +0.000 C 
BRANCH  25  26
ATOM     26  O   UNL     1      45.421   4.501   8.003  0.00  0.00    +0.000 OA
BRANCH  26  27
ATOM     27  C   UNL     1      46.041   3.327   7.616  0.00  0.00    +0.000 A 
ATOM     28  C   UNL     1      46.883   3.387   6.513  0.00  0.00    +0.000 A 
ATOM     29  C   UNL     1      47.529   2.217   6.117  0.00  0.00    +0.000 A 
ATOM     30  C   UNL     1      47.315   1.039   6.827  0.00  0.00    +0.000 A 
ATOM     31  C   UNL     1      46.455   1.078   7.913  0.00  0.00    +0.000 A 
ATOM     32  N   UNL     1      45.814   2.194   8.320  0.00  0.00    +0.000 NA
ENDBRANCH  26  27
ENDBRANCH  25  26
ENDBRANCH  22  25
ENDBRANCH  18  19
ENDBRANCH   1  18
TORSDOF 8
ENDMDL
MODEL 2
REMARK VINA RESULT:    -7.988      2.254      2.651
REMARK INTER + INTRA:         -12.406
REMARK INTER:                 -11.610
REMARK INTRA:                  -0.797
REMARK UNBOUND:                -0.915
REMARK  Name = 
REMARK  8 active torsions:
REMARK  status: ('A' for Active; 'I' for Inactive)
REMARK    1  A    between atoms: N_1  and  C_2
REMARK    2  A    between atoms: C_2  and  C_3
REMARK    3  A    between atoms: C_2  and  C_18
REMARK    4  A    between atoms: C_3  and  C_4
REMARK    5  A    between atoms: C_7  and  C_8
REMARK    6  A    between atoms: C_8  and  O_9
REMARK    7  A    between atoms: O_9  and  C_10
REMARK    8  A    between atoms: C_18  and  C_20
REMARK                            x       y       z     vdW  Elec       q    Type
REMARK                         _______ _______ _______ _____ _____    ______ ____
ROOT
ATOM      1  C   UNL     1      48.601   6.902  14.105  0.00  0.00    +0.000 C 
ENDROOT
BRANCH   1   2
ATOM      2  N   UNL     1      49.392   6.611  12.884  0.00  0.00    +0.000 NA
ATOM      3  H   UNL     1      49.850   7.476  12.587  0.00  0.00    +0.000 HD
ATOM      4  H   UNL     1      48.749   6.375  12.125  0.00  0.00    +0.000 HD
ENDBRANCH   1   2
BRANCH   1   5
ATOM      5  C   UNL     1      49.572   7.025  15.309  0.00  0.00    +0.000 C 
ATOM      6  O   UNL     1      50.765   7.268  15.094  0.00  0.00    +0.000 OA
BRANCH   5   7
ATOM      7  C   UNL     1      49.098   7.033  16.703  0.00  0.00    +0.000 A 
ATOM      8  C   UNL     1      48.480   8.175  17.200  0.00  0.00    +0.000 A 
ATOM      9  S   UNL     1      47.894   7.999  18.790  0.00  0.00    +0.000 S 
ATOM     10  C   UNL     1      48.473   6.402  18.877  0.00  0.00    +0.000 A 
ATOM     11  N   UNL     1      48.257   5.643  19.983  0.00  0.00    +0.000 NA
ATOM     12  C   UNL     1      48.739   4.450  19.907  0.00  0.00    +0.000 A 
ATOM     13  N   UNL     1      49.447   3.957  18.838  0.00  0.00    +0.000 N 
ATOM     14  C   UNL     1      49.830   4.749  17.781  0.00  0.00    +0.000 A 
ATOM     15  O   UNL     1      50.719   4.399  17.013  0.00  0.00    +0.000 OA
ATOM     16  C   UNL     1      49.167   6.036  17.736  0.00  0.00    +0.000 A 
ATOM     17  H   UNL     1      49.878   3.046  18.890  0.00  0.00    +0.000 HD
ENDBRANCH   5   7
ENDBRANCH   1   5
BRANCH   1  18
ATOM     18  C   UNL     1      47.583   5.790  14.449  0.00  0.00    +0.000 C 
BRANCH  18  19
ATOM     19  C   UNL     1      46.637   5.326  13.365  0.00  0.00    +0.000 A 
ATOM     20  C   UNL     1      46.310   6.201  12.318  0.00  0.00    +0.000 A 
ATOM     21  C   UNL     1      45.559   5.762  11.226  0.00  0.00    +0.000 A 
ATOM     22  C   UNL     1      45.104   4.441  11.164  0.00  0.00    +0.000 A 
ATOM     23  C   UNL     1      45.424   3.566  12.213  0.00  0.00    +0.000 A 
ATOM     24  C   UNL     1      46.178   4.006  13.309  0.00  0.00    +0.000 A 
BRANCH  22  25
ATOM     25  C   UNL     1      44.272   3.974   9.992  0.00  0.00    +0.000 C 
BRANCH  25  26
ATOM     26  O   UNL     1      44.540   2.601   9.699  0.00  0.00    +0.000 OA
BRANCH  26  27
ATOM     27  C   UNL     1      45.420   2.471   8.639  0.00  0.00    +0.000 A 
ATOM     28  C   UNL     1      45.593   3.578   7.817  0.00  0.00    +0.000 A 
ATOM     29  C   UNL     1      46.487   3.471   6.753  0.00  0.00    +0.000 A 
ATOM     30  C   UNL     1      47.170   2.277   6.546  0.00  0.00    +0.000 A 
ATOM     31  C   UNL     1      46.930   1.227   7.419  0.00  0.00    +0.000 A 
ATOM     32  N   UNL     1      46.070   1.299   8.456  0.00  0.00    +0.000 NA
ENDBRANCH  26  27
ENDBRANCH  25  26
ENDBRANCH  22  25
ENDBRANCH  18  19
ENDBRANCH   1  18
TORSDOF 8
ENDMDL
MODEL 3
REMARK VINA RESULT:    -7.874      2.241      3.326
REMARK INTER + INTRA:         -12.241
REMARK INTER:                 -11.009
REMARK INTRA:                  -1.232
REMARK UNBOUND:                -0.915
REMARK  Name = 
REMARK  8 active torsions:
REMARK  status: ('A' for Active; 'I' for Inactive)
REMARK    1  A    between atoms: N_1  and  C_2
REMARK    2  A    between atoms: C_2  and  C_3
REMARK    3  A    between atoms: C_2  and  C_18
REMARK    4  A    between atoms: C_3  and  C_4
REMARK    5  A    between atoms: C_7  and  C_8
REMARK    6  A    between atoms: C_8  and  O_9
REMARK    7  A    between atoms: O_9  and  C_10
REMARK    8  A    between atoms: C_18  and  C_20
REMARK                            x       y       z     vdW  Elec       q    Type
REMARK                         _______ _______ _______ _____ _____    ______ ____
ROOT
ATOM      1  C   UNL     1      47.725   3.828  16.103  0.00  0.00    +0.000 C 
ENDROOT
BRANCH   1   2
ATOM      2  N   UNL     1      46.652   3.521  17.081  0.00  0.00    +0.000 NA
ATOM      3  H   UNL     1      45.879   3.078  16.578  0.00  0.00    +0.000 HD
ATOM      4  H   UNL     1      46.271   4.400  17.437  0.00  0.00    +0.000 HD
ENDBRANCH   1   2
BRANCH   1   5
ATOM      5  C   UNL     1      49.024   4.169  16.881  0.00  0.00    +0.000 C 
ATOM      6  O   UNL     1      49.809   3.257  17.166  0.00  0.00    +0.000 OA
BRANCH   5   7
ATOM      7  C   UNL     1      49.440   5.557  17.143  0.00  0.00    +0.000 A 
ATOM      8  C   UNL     1      50.680   5.988  16.686  0.00  0.00    +0.000 A 
ATOM      9  S   UNL     1      50.978   7.641  16.973  0.00  0.00    +0.000 S 
ATOM     10  C   UNL     1      49.474   7.826  17.745  0.00  0.00    +0.000 A 
ATOM     11  N   UNL     1      49.072   9.041  18.201  0.00  0.00    +0.000 NA
ATOM     12  C   UNL     1      47.906   9.039  18.752  0.00  0.00    +0.000 A 
ATOM     13  N   UNL     1      47.120   7.925  18.919  0.00  0.00    +0.000 N 
ATOM     14  C   UNL     1      47.567   6.658  18.626  0.00  0.00    +0.000 A 
ATOM     15  O   UNL     1      47.005   5.665  19.072  0.00  0.00    +0.000 OA
ATOM     16  C   UNL     1      48.788   6.628  17.846  0.00  0.00    +0.000 A 
ATOM     17  H   UNL     1      46.262   7.982  19.447  0.00  0.00    +0.000 HD
ENDBRANCH   5   7
ENDBRANCH   1   5
BRANCH   1  18
ATOM     18  C   UNL     1      47.398   5.041  15.202  0.00  0.00    +0.000 C 
BRANCH  18  19
ATOM     19  C   UNL     1      46.755   4.782  13.860  0.00  0.00    +0.000 A 
ATOM     20  C   UNL     1      46.345   3.480  13.534  0.00  0.00    +0.000 A 
ATOM     21  C   UNL     1      45.619   3.228  12.368  0.00  0.00    +0.000 A 
ATOM     22  C   UNL     1      45.300   4.271  11.493  0.00  0.00    +0.000 A 
ATOM     23  C   UNL     1      45.715   5.572  11.812  0.00  0.00    +0.000 A 
ATOM     24  C   UNL     1      46.443   5.826  12.982  0.00  0.00    +0.000 A 
BRANCH  22  25
ATOM     25  C   UNL     1      44.534   3.992  10.220  0.00  0.00    +0.000 C 
BRANCH  25  26
ATOM     26  O   UNL     1      44.663   2.619   9.844  0.00  0.00    +0.000 OA
BRANCH  26  27
ATOM     27  C   UNL     1      45.491   2.470   8.746  0.00  0.00    +0.000 A 
ATOM     28  C   UNL     1      45.703   3.589   7.952  0.00  0.00    +0.000 A 
ATOM     29  C   UNL     1      46.547   3.462   6.850  0.00  0.00    +0.000 A 
ATOM     30  C   UNL     1      47.145   2.235   6.580  0.00  0.00    +0.000 A 
ATOM     31  C   UNL     1      46.872   1.174   7.430  0.00  0.00    +0.000 A 
ATOM     32  N   UNL     1      46.058   1.265   8.503  0.00  0.00    +0.000 NA
ENDBRANCH  26  27
ENDBRANCH  25  26
ENDBRANCH  22  25
ENDBRANCH  18  19
ENDBRANCH   1  18
TORSDOF 8
ENDMDL
MODEL 4
REMARK VINA RESULT:    -7.741      2.236      2.840
REMARK INTER + INTRA:         -12.050
REMARK INTER:                 -11.136
REMARK INTRA:                  -0.914
REMARK UNBOUND:                -0.915
REMARK  Name = 
REMARK  8 active torsions:
REMARK  status: ('A' for Active; 'I' for Inactive)
REMARK    1  A    between atoms: N_1  and  C_2
REMARK    2  A    between atoms: C_2  and  C_3
REMARK    3  A    between atoms: C_2  and  C_18
REMARK    4  A    between atoms: C_3  and  C_4
REMARK    5  A    between atoms: C_7  and  C_8
REMARK    6  A    between atoms: C_8  and  O_9
REMARK    7  A    between atoms: O_9  and  C_10
REMARK    8  A    between atoms: C_18  and  C_20
REMARK                            x       y       z     vdW  Elec       q    Type
REMARK                         _______ _______ _______ _____ _____    ______ ____
ROOT
ATOM      1  C   UNL     1      47.344   7.752  13.158  0.00  0.00    +0.000 C 
ENDROOT
BRANCH   1   2
ATOM      2  N   UNL     1      47.764   8.045  11.766  0.00  0.00    +0.000 NA
ATOM      3  H   UNL     1      48.226   7.214  11.390  0.00  0.00    +0.000 HD
ATOM      4  H   UNL     1      48.487   8.767  11.786  0.00  0.00    +0.000 HD
ENDBRANCH   1   2
BRANCH   1   5
ATOM      5  C   UNL     1      48.187   6.564  13.692  0.00  0.00    +0.000 C 
ATOM      6  O   UNL     1      48.822   5.871  12.889  0.00  0.00    +0.000 OA
BRANCH   5   7
ATOM      7  C   UNL     1      48.395   6.332  15.131  0.00  0.00    +0.000 A 
ATOM      8  C   UNL     1      49.038   7.306  15.886  0.00  0.00    +0.000 A 
ATOM      9  S   UNL     1      49.113   6.944  17.549  0.00  0.00    +0.000 S 
ATOM     10  C   UNL     1      48.318   5.461  17.310  0.00  0.00    +0.000 A 
ATOM     11  N   UNL     1      48.018   4.655  18.363  0.00  0.00    +0.000 NA
ATOM     12  C   UNL     1      47.403   3.569  18.038  0.00  0.00    +0.000 A 
ATOM     13  N   UNL     1      47.091   3.199  16.753  0.00  0.00    +0.000 N 
ATOM     14  C   UNL     1      47.530   3.905  15.657  0.00  0.00    +0.000 A 
ATOM     15  O   UNL     1      47.532   3.406  14.537  0.00  0.00    +0.000 OA
ATOM     16  C   UNL     1      48.064   5.214  15.972  0.00  0.00    +0.000 A 
ATOM     17  H   UNL     1      46.696   2.289  16.566  0.00  0.00    +0.000 HD
ENDBRANCH   5   7
ENDBRANCH   1   5
BRANCH   1  18
ATOM     18  C   UNL     1      45.856   7.346  13.271  0.00  0.00    +0.000 C 
BRANCH  18  19
ATOM     19  C   UNL     1      45.340   6.258  12.359  0.00  0.00    +0.000 A 
ATOM     20  C   UNL     1      45.065   6.560  11.017  0.00  0.00    +0.000 A 
ATOM     21  C   UNL     1      44.727   5.553  10.110  0.00  0.00    +0.000 A 
ATOM     22  C   UNL     1      44.642   4.221  10.530  0.00  0.00    +0.000 A 
ATOM     23  C   UNL     1      44.910   3.917  11.873  0.00  0.00    +0.000 A 
ATOM     24  C   UNL     1      45.249   4.927  12.783  0.00  0.00    +0.000 A 
BRANCH  22  25
ATOM     25  C   UNL     1      44.254   3.136   9.553  0.00  0.00    +0.000 C 
BRANCH  25  26
ATOM     26  O   UNL     1      45.236   2.096   9.537  0.00  0.00    +0.000 OA
BRANCH  26  27
ATOM     27  C   UNL     1      45.958   2.098   8.357  0.00  0.00    +0.000 A 
ATOM     28  C   UNL     1      45.955   3.270   7.612  0.00  0.00    +0.000 A 
ATOM     29  C   UNL     1      46.690   3.296   6.427  0.00  0.00    +0.000 A 
ATOM     30  C   UNL     1      47.394   2.164   6.030  0.00  0.00    +0.000 A 
ATOM     31  C   UNL     1      47.334   1.040   6.840  0.00  0.00    +0.000 A 
ATOM     32  N   UNL     1      46.631   0.983   7.991  0.00  0.00    +0.000 NA
ENDBRANCH  26  27
ENDBRANCH  25  26
ENDBRANCH  22  25
ENDBRANCH  18  19
ENDBRANCH   1  18
TORSDOF 8
ENDMDL
MODEL 5
REMARK VINA RESULT:    -7.329      3.018      3.465
REMARK INTER + INTRA:         -11.459
REMARK INTER:                 -10.562
REMARK INTRA:                  -0.897
REMARK UNBOUND:                -0.915
REMARK  Name = 
REMARK  8 active torsions:
REMARK  status: ('A' for Active; 'I' for Inactive)
REMARK    1  A    between atoms: N_1  and  C_2
REMARK    2  A    between atoms: C_2  and  C_3
REMARK    3  A    between atoms: C_2  and  C_18
REMARK    4  A    between atoms: C_3  and  C_4
REMARK    5  A    between atoms: C_7  and  C_8
REMARK    6  A    between atoms: C_8  and  O_9
REMARK    7  A    between atoms: O_9  and  C_10
REMARK    8  A    between atoms: C_18  and  C_20
REMARK                            x       y       z     vdW  Elec       q    Type
REMARK                         _______ _______ _______ _____ _____    ______ ____
ROOT
ATOM      1  C   UNL     1      48.517   7.513  13.312  0.00  0.00    +0.000 C 
ENDROOT
BRANCH   1   2
ATOM      2  N   UNL     1      49.681   6.794  12.738  0.00  0.00    +0.000 NA
ATOM      3  H   UNL     1      49.378   6.333  11.876  0.00  0.00    +0.000 HD
ATOM      4  H   UNL     1      49.942   6.035  13.370  0.00  0.00    +0.000 HD
ENDBRANCH   1   2
BRANCH   1   5
ATOM      5  C   UNL     1      48.976   8.258  14.593  0.00  0.00    +0.000 C 
ATOM      6  O   UNL     1      48.531   9.389  14.821  0.00  0.00    +0.000 OA
BRANCH   5   7
ATOM      7  C   UNL     1      49.788   7.604  15.634  0.00  0.00    +0.000 A 
ATOM      8  C   UNL     1      49.168   7.163  16.797  0.00  0.00    +0.000 A 
ATOM      9  S   UNL     1      50.214   6.336  17.858  0.00  0.00    +0.000 S 
ATOM     10  C   UNL     1      51.535   6.568  16.813  0.00  0.00    +0.000 A 
ATOM     11  N   UNL     1      52.756   6.052  17.110  0.00  0.00    +0.000 NA
ATOM     12  C   UNL     1      53.661   6.293  16.224  0.00  0.00    +0.000 A 
ATOM     13  N   UNL     1      53.464   7.031  15.083  0.00  0.00    +0.000 N 
ATOM     14  C   UNL     1      52.293   7.709  14.838  0.00  0.00    +0.000 A 
ATOM     15  O   UNL     1      52.239   8.609  14.007  0.00  0.00    +0.000 OA
ATOM     16  C   UNL     1      51.197   7.328  15.706  0.00  0.00    +0.000 A 
ATOM     17  H   UNL     1      54.244   7.261  14.484  0.00  0.00    +0.000 HD
ENDBRANCH   5   7
ENDBRANCH   1   5
BRANCH   1  18
ATOM     18  C   UNL     1      47.360   6.571  13.718  0.00  0.00    +0.000 C 
BRANCH  18  19
ATOM     19  C   UNL     1      46.625   5.830  12.626  0.00  0.00    +0.000 A 
ATOM     20  C   UNL     1      46.062   4.575  12.906  0.00  0.00    +0.000 A 
ATOM     21  C   UNL     1      45.254   3.927  11.970  0.00  0.00    +0.000 A 
ATOM     22  C   UNL     1      45.002   4.513  10.725  0.00  0.00    +0.000 A 
ATOM     23  C   UNL     1      45.569   5.765  10.440  0.00  0.00    +0.000 A 
ATOM     24  C   UNL     1      46.380   6.415  11.379  0.00  0.00    +0.000 A 
BRANCH  22  25
ATOM     25  C   UNL     1      44.145   3.800   9.704  0.00  0.00    +0.000 C 
BRANCH  25  26
ATOM     26  O   UNL     1      44.562   2.441   9.558  0.00  0.00    +0.000 OA
BRANCH  26  27
ATOM     27  C   UNL     1      45.443   2.291   8.502  0.00  0.00    +0.000 A 
ATOM     28  C   UNL     1      45.571   3.360   7.624  0.00  0.00    +0.000 A 
ATOM     29  C   UNL     1      46.465   3.234   6.562  0.00  0.00    +0.000 A 
ATOM     30  C   UNL     1      47.193   2.058   6.413  0.00  0.00    +0.000 A 
ATOM     31  C   UNL     1      46.996   1.045   7.339  0.00  0.00    +0.000 A 
ATOM     32  N   UNL     1      46.137   1.137   8.376  0.00  0.00    +0.000 NA
ENDBRANCH  26  27
ENDBRANCH  25  26
ENDBRANCH  22  25
ENDBRANCH  18  19
ENDBRANCH   1  18
TORSDOF 8
ENDMDL
MODEL 6
REMARK VINA RESULT:    -7.302      2.747      3.598
REMARK INTER + INTRA:         -11.419
REMARK INTER:                 -10.439
REMARK INTRA:                  -0.980
REMARK UNBOUND:                -0.915
REMARK  Name = 
REMARK  8 active torsions:
REMARK  status: ('A' for Active; 'I' for Inactive)
REMARK    1  A    between atoms: N_1  and  C_2
REMARK    2  A    between atoms: C_2  and  C_3
REMARK    3  A    between atoms: C_2  and  C_18
REMARK    4  A    between atoms: C_3  and  C_4
REMARK    5  A    between atoms: C_7  and  C_8
REMARK    6  A    between atoms: C_8  and  O_9
REMARK    7  A    between atoms: O_9  and  C_10
REMARK    8  A    between atoms: C_18  and  C_20
REMARK                            x       y       z     vdW  Elec       q    Type
REMARK                         _______ _______ _______ _____ _____    ______ ____
ROOT
ATOM      1  C   UNL     1      48.186   7.108  14.915  0.00  0.00    +0.000 C 
ENDROOT
BRANCH   1   2
ATOM      2  N   UNL     1      48.357   8.582  14.885  0.00  0.00    +0.000 NA
ATOM      3  H   UNL     1      47.512   8.992  14.478  0.00  0.00    +0.000 HD
ATOM      4  H   UNL     1      49.108   8.812  14.231  0.00  0.00    +0.000 HD
ENDBRANCH   1   2
BRANCH   1   5
ATOM      5  C   UNL     1      49.243   6.506  15.879  0.00  0.00    +0.000 C 
ATOM      6  O   UNL     1      50.443   6.664  15.627  0.00  0.00    +0.000 OA
BRANCH   5   7
ATOM      7  C   UNL     1      48.874   5.900  17.170  0.00  0.00    +0.000 A 
ATOM      8  C   UNL     1      48.926   4.519  17.307  0.00  0.00    +0.000 A 
ATOM      9  S   UNL     1      48.573   3.974  18.883  0.00  0.00    +0.000 S 
ATOM     10  C   UNL     1      48.308   5.564  19.424  0.00  0.00    +0.000 A 
ATOM     11  N   UNL     1      48.008   5.815  20.725  0.00  0.00    +0.000 NA
ATOM     12  C   UNL     1      47.846   7.064  20.998  0.00  0.00    +0.000 A 
ATOM     13  N   UNL     1      47.924   8.084  20.081  0.00  0.00    +0.000 N 
ATOM     14  C   UNL     1      48.055   7.852  18.732  0.00  0.00    +0.000 A 
ATOM     15  O   UNL     1      47.799   8.722  17.908  0.00  0.00    +0.000 OA
ATOM     16  C   UNL     1      48.417   6.489  18.400  0.00  0.00    +0.000 A 
ATOM     17  H   UNL     1      47.689   9.028  20.349  0.00  0.00    +0.000 HD
ENDBRANCH   5   7
ENDBRANCH   1   5
BRANCH   1  18
ATOM     18  C   UNL     1      48.393   6.443  13.534  0.00  0.00    +0.000 C 
BRANCH  18  19
ATOM     19  C   UNL     1      47.172   5.979  12.775  0.00  0.00    +0.000 A 
ATOM     20  C   UNL     1      46.807   6.638  11.592  0.00  0.00    +0.000 A 
ATOM     21  C   UNL     1      45.775   6.149  10.788  0.00  0.00    +0.000 A 
ATOM     22  C   UNL     1      45.074   4.997  11.158  0.00  0.00    +0.000 A 
ATOM     23  C   UNL     1      45.432   4.340  12.345  0.00  0.00    +0.000 A 
ATOM     24  C   UNL     1      46.467   4.830  13.152  0.00  0.00    +0.000 A 
BRANCH  22  25
ATOM     25  C   UNL     1      43.942   4.482  10.299  0.00  0.00    +0.000 C 
BRANCH  25  26
ATOM     26  O   UNL     1      44.087   3.080  10.061  0.00  0.00    +0.000 OA
BRANCH  26  27
ATOM     27  C   UNL     1      44.996   2.830   9.048  0.00  0.00    +0.000 A 
ATOM     28  C   UNL     1      45.230   3.851   8.137  0.00  0.00    +0.000 A 
ATOM     29  C   UNL     1      46.153   3.623   7.117  0.00  0.00    +0.000 A 
ATOM     30  C   UNL     1      46.805   2.396   7.043  0.00  0.00    +0.000 A 
ATOM     31  C   UNL     1      46.504   1.437   7.998  0.00  0.00    +0.000 A 
ATOM     32  N   UNL     1      45.614   1.627   8.994  0.00  0.00    +0.000 NA
ENDBRANCH  26  27
ENDBRANCH  25  26
ENDBRANCH  22  25
ENDBRANCH  18  19
ENDBRANCH   1  18
TORSDOF 8
ENDMDL
MODEL 7
REMARK VINA RESULT:    -7.133      4.727      5.879
REMARK INTER + INTRA:         -11.177
REMARK INTER:                 -10.023
REMARK INTRA:                  -1.153
REMARK UNBOUND:                -0.915
REMARK  Name = 
REMARK  8 active torsions:
REMARK  status: ('A' for Active; 'I' for Inactive)
REMARK    1  A    between atoms: N_1  and  C_2
REMARK    2  A    between atoms: C_2  and  C_3
REMARK    3  A    between atoms: C_2  and  C_18
REMARK    4  A    between atoms: C_3  and  C_4
REMARK    5  A    between atoms: C_7  and  C_8
REMARK    6  A    between atoms: C_8  and  O_9
REMARK    7  A    between atoms: O_9  and  C_10
REMARK    8  A    between atoms: C_18  and  C_20
REMARK                            x       y       z     vdW  Elec       q    Type
REMARK                         _______ _______ _______ _____ _____    ______ ____
ROOT
ATOM      1  C   UNL     1      48.624   7.009  13.870  0.00  0.00    +0.000 C 
ENDROOT
BRANCH   1   2
ATOM      2  N   UNL     1      49.409   6.361  14.949  0.00  0.00    +0.000 NA
ATOM      3  H   UNL     1      49.144   5.374  14.988  0.00  0.00    +0.000 HD
ATOM      4  H   UNL     1      49.117   6.752  15.847  0.00  0.00    +0.000 HD
ENDBRANCH   1   2
BRANCH   1   5
ATOM      5  C   UNL     1      48.773   8.548  14.001  0.00  0.00    +0.000 C 
ATOM      6  O   UNL     1      49.133   9.025  15.084  0.00  0.00    +0.000 OA
BRANCH   5   7
ATOM      7  C   UNL     1      48.669   9.449  12.841  0.00  0.00    +0.000 A 
ATOM      8  C   UNL     1      47.449  10.052  12.562  0.00  0.00    +0.000 A 
ATOM      9  S   UNL     1      47.509  11.145  11.255  0.00  0.00    +0.000 S 
ATOM     10  C   UNL     1      49.159  10.823  11.001  0.00  0.00    +0.000 A 
ATOM     11  N   UNL     1      49.855  11.481  10.036  0.00  0.00    +0.000 NA
ATOM     12  C   UNL     1      51.098  11.148   9.963  0.00  0.00    +0.000 A 
ATOM     13  N   UNL     1      51.702  10.194  10.745  0.00  0.00    +0.000 N 
ATOM     14  C   UNL     1      50.992   9.392  11.608  0.00  0.00    +0.000 A 
ATOM     15  O   UNL     1      51.466   8.350  12.045  0.00  0.00    +0.000 OA
ATOM     16  C   UNL     1      49.638   9.844  11.854  0.00  0.00    +0.000 A 
ATOM     17  H   UNL     1      52.656   9.917  10.565  0.00  0.00    +0.000 HD
ENDBRANCH   5   7
ENDBRANCH   1   5
BRANCH   1  18
ATOM     18  C   UNL     1      47.113   6.687  13.940  0.00  0.00    +0.000 C 
BRANCH  18  19
ATOM     19  C   UNL     1      46.488   5.932  12.790  0.00  0.00    +0.000 A 
ATOM     20  C   UNL     1      45.916   4.673  13.025  0.00  0.00    +0.000 A 
ATOM     21  C   UNL     1      45.203   4.011  12.023  0.00  0.00    +0.000 A 
ATOM     22  C   UNL     1      45.059   4.588  10.757  0.00  0.00    +0.000 A 
ATOM     23  C   UNL     1      45.637   5.844  10.517  0.00  0.00    +0.000 A 
ATOM     24  C   UNL     1      46.352   6.509  11.522  0.00  0.00    +0.000 A 
BRANCH  22  25
ATOM     25  C   UNL     1      44.308   3.860   9.667  0.00  0.00    +0.000 C 
BRANCH  25  26
ATOM     26  O   UNL     1      44.766   2.511   9.553  0.00  0.00    +0.000 OA
BRANCH  26  27
ATOM     27  C   UNL     1      45.611   2.352   8.469  0.00  0.00    +0.000 A 
ATOM     28  C   UNL     1      45.738   3.427   7.599  0.00  0.00    +0.000 A 
ATOM     29  C   UNL     1      46.597   3.291   6.510  0.00  0.00    +0.000 A 
ATOM     30  C   UNL     1      47.293   2.100   6.327  0.00  0.00    +0.000 A 
ATOM     31  C   UNL     1      47.100   1.082   7.249  0.00  0.00    +0.000 A 
ATOM     32  N   UNL     1      46.274   1.183   8.311  0.00  0.00    +0.000 NA
ENDBRANCH  26  27
ENDBRANCH  25  26
ENDBRANCH  22  25
ENDBRANCH  18  19
ENDBRANCH   1  18
TORSDOF 8
ENDMDL
MODEL 8
REMARK VINA RESULT:    -7.102      3.274      8.782
REMARK INTER + INTRA:         -11.131
REMARK INTER:                 -10.025
REMARK INTRA:                  -1.107
REMARK UNBOUND:                -0.915
REMARK  Name = 
REMARK  8 active torsions:
REMARK  status: ('A' for Active; 'I' for Inactive)
REMARK    1  A    between atoms: N_1  and  C_2
REMARK    2  A    between atoms: C_2  and  C_3
REMARK    3  A    between atoms: C_2  and  C_18
REMARK    4  A    between atoms: C_3  and  C_4
REMARK    5  A    between atoms: C_7  and  C_8
REMARK    6  A    between atoms: C_8  and  O_9
REMARK    7  A    between atoms: O_9  and  C_10
REMARK    8  A    between atoms: C_18  and  C_20
REMARK                            x       y       z     vdW  Elec       q    Type
REMARK                         _______ _______ _______ _____ _____    ______ ____
ROOT
ATOM      1  C   UNL     1      47.591   6.922  12.136  0.00  0.00    +0.000 C 
ENDROOT
BRANCH   1   2
ATOM      2  N   UNL     1      48.470   7.825  11.353  0.00  0.00    +0.000 NA
ATOM      3  H   UNL     1      49.160   7.252  10.862  0.00  0.00    +0.000 HD
ATOM      4  H   UNL     1      49.012   8.399  12.002  0.00  0.00    +0.000 HD
ENDBRANCH   1   2
BRANCH   1   5
ATOM      5  C   UNL     1      46.166   6.961  11.522  0.00  0.00    +0.000 C 
ATOM      6  O   UNL     1      45.569   8.042  11.460  0.00  0.00    +0.000 OA
BRANCH   5   7
ATOM      7  C   UNL     1      45.565   5.792  10.858  0.00  0.00    +0.000 A 
ATOM      8  C   UNL     1      45.822   5.574   9.510  0.00  0.00    +0.000 A 
ATOM      9  S   UNL     1      45.146   4.130   8.909  0.00  0.00    +0.000 S 
ATOM     10  C   UNL     1      44.460   3.766  10.422  0.00  0.00    +0.000 A 
ATOM     11  N   UNL     1      43.768   2.612  10.612  0.00  0.00    +0.000 NA
ATOM     12  C   UNL     1      43.317   2.459  11.809  0.00  0.00    +0.000 A 
ATOM     13  N   UNL     1      43.465   3.370  12.826  0.00  0.00    +0.000 N 
ATOM     14  C   UNL     1      44.007   4.617  12.623  0.00  0.00    +0.000 A 
ATOM     15  O   UNL     1      43.840   5.524  13.431  0.00  0.00    +0.000 OA
ATOM     16  C   UNL     1      44.685   4.767  11.351  0.00  0.00    +0.000 A 
ATOM     17  H   UNL     1      43.000   3.226  13.710  0.00  0.00    +0.000 HD
ENDBRANCH   5   7
ENDBRANCH   1   5
BRANCH   1  18
ATOM     18  C   UNL     1      47.462   7.335  13.621  0.00  0.00    +0.000 C 
BRANCH  18  19
ATOM     19  C   UNL     1      47.724   6.288  14.679  0.00  0.00    +0.000 A 
ATOM     20  C   UNL     1      47.144   5.018  14.546  0.00  0.00    +0.000 A 
ATOM     21  C   UNL     1      47.477   3.983  15.422  0.00  0.00    +0.000 A 
ATOM     22  C   UNL     1      48.388   4.200  16.461  0.00  0.00    +0.000 A 
ATOM     23  C   UNL     1      48.964   5.472  16.600  0.00  0.00    +0.000 A 
ATOM     24  C   UNL     1      48.630   6.510  15.721  0.00  0.00    +0.000 A 
BRANCH  22  25
ATOM     25  C   UNL     1      48.730   3.085  17.422  0.00  0.00    +0.000 C 
BRANCH  25  26
ATOM     26  O   UNL     1      49.503   2.075  16.769  0.00  0.00    +0.000 OA
BRANCH  26  27
ATOM     27  C   UNL     1      50.795   2.029  17.261  0.00  0.00    +0.000 A 
ATOM     28  C   UNL     1      51.350   3.222  17.706  0.00  0.00    +0.000 A 
ATOM     29  C   UNL     1      52.646   3.193  18.219  0.00  0.00    +0.000 A 
ATOM     30  C   UNL     1      53.338   1.987  18.269  0.00  0.00    +0.000 A 
ATOM     31  C   UNL     1      52.701   0.848  17.800  0.00  0.00    +0.000 A 
ATOM     32  N   UNL     1      51.449   0.845  17.297  0.00  0.00    +0.000 NA
ENDBRANCH  26  27
ENDBRANCH  25  26
ENDBRANCH  22  25
ENDBRANCH  18  19
ENDBRANCH   1  18
TORSDOF 8
ENDMDL
MODEL 9
REMARK VINA RESULT:    -6.908      2.612      3.247
REMARK INTER + INTRA:         -10.852
REMARK INTER:                 -10.254
REMARK INTRA:                  -0.598
REMARK UNBOUND:                -0.915
REMARK  Name = 
REMARK  8 active torsions:
REMARK  status: ('A' for Active; 'I' for Inactive)
REMARK    1  A    between atoms: N_1  and  C_2
REMARK    2  A    between atoms: C_2  and  C_3
REMARK    3  A    between atoms: C_2  and  C_18
REMARK    4  A    between atoms: C_3  and  C_4
REMARK    5  A    between atoms: C_7  and  C_8
REMARK    6  A    between atoms: C_8  and  O_9
REMARK    7  A    between atoms: O_9  and  C_10
REMARK    8  A    between atoms: C_18  and  C_20
REMARK                            x       y       z     vdW  Elec       q    Type
REMARK                         _______ _______ _______ _____ _____    ______ ____
ROOT
ATOM      1  C   UNL     1      46.611   7.042  13.151  0.00  0.00    +0.000 C 
ENDROOT
BRANCH   1   2
ATOM      2  N   UNL     1      46.924   7.467  11.765  0.00  0.00    +0.000 NA
ATOM      3  H   UNL     1      46.791   6.663  11.147  0.00  0.00    +0.000 HD
ATOM      4  H   UNL     1      47.920   7.689  11.706  0.00  0.00    +0.000 HD
ENDBRANCH   1   2
BRANCH   1   5
ATOM      5  C   UNL     1      47.724   6.075  13.638  0.00  0.00    +0.000 C 
ATOM      6  O   UNL     1      48.670   5.822  12.883  0.00  0.00    +0.000 OA
BRANCH   5   7
ATOM      7  C   UNL     1      47.784   5.582  15.024  0.00  0.00    +0.000 A 
ATOM      8  C   UNL     1      47.152   4.386  15.344  0.00  0.00    +0.000 A 
ATOM      9  S   UNL     1      47.395   3.893  16.956  0.00  0.00    +0.000 S 
ATOM     10  C   UNL     1      48.328   5.276  17.288  0.00  0.00    +0.000 A 
ATOM     11  N   UNL     1      48.898   5.454  18.509  0.00  0.00    +0.000 NA
ATOM     12  C   UNL     1      49.588   6.538  18.616  0.00  0.00    +0.000 A 
ATOM     13  N   UNL     1      49.733   7.477  17.624  0.00  0.00    +0.000 N 
ATOM     14  C   UNL     1      49.033   7.412  16.442  0.00  0.00    +0.000 A 
ATOM     15  O   UNL     1      48.914   8.393  15.717  0.00  0.00    +0.000 OA
ATOM     16  C   UNL     1      48.391   6.135  16.205  0.00  0.00    +0.000 A 
ATOM     17  H   UNL     1      50.207   8.347  17.812  0.00  0.00    +0.000 HD
ENDBRANCH   5   7
ENDBRANCH   1   5
BRANCH   1  18
ATOM     18  C   UNL     1      45.266   6.288  13.267  0.00  0.00    +0.000 C 
BRANCH  18  19
ATOM     19  C   UNL     1      44.969   5.198  12.264  0.00  0.00    +0.000 A 
ATOM     20  C   UNL     1      44.460   5.544  11.003  0.00  0.00    +0.000 A 
ATOM     21  C   UNL     1      44.310   4.583  10.002  0.00  0.00    +0.000 A 
ATOM     22  C   UNL     1      44.652   3.248  10.244  0.00  0.00    +0.000 A 
ATOM     23  C   UNL     1      45.154   2.898  11.507  0.00  0.00    +0.000 A 
ATOM     24  C   UNL     1      45.305   3.862  12.512  0.00  0.00    +0.000 A 
BRANCH  22  25
ATOM     25  C   UNL     1      44.468   2.205   9.167  0.00  0.00    +0.000 C 
BRANCH  25  26
ATOM     26  O   UNL     1      45.681   1.479   8.955  0.00  0.00    +0.000 OA
BRANCH  26  27
ATOM     27  C   UNL     1      46.322   1.888   7.799  0.00  0.00    +0.000 A 
ATOM     28  C   UNL     1      45.852   3.042   7.186  0.00  0.00    +0.000 A 
ATOM     29  C   UNL     1      46.494   3.479   6.028  0.00  0.00    +0.000 A 
ATOM     30  C   UNL     1      47.573   2.756   5.527  0.00  0.00    +0.000 A 
ATOM     31  C   UNL     1      47.969   1.616   6.209  0.00  0.00    +0.000 A 
ATOM     32  N   UNL     1      47.366   1.167   7.329  0.00  0.00    +0.000 NA
ENDBRANCH  26  27
ENDBRANCH  25  26
ENDBRANCH  22  25
ENDBRANCH  18  19
ENDBRANCH   1  18
TORSDOF 8
ENDMDL
