MODEL 1
REMARK VINA RESULT:    -7.753      0.000      0.000
REMARK INTER + INTRA:         -10.123
REMARK INTER:                  -9.566
REMARK INTRA:                  -0.558
REMARK UNBOUND:                -0.558
REMARK  Name = 
REMARK  4 active torsions:
REMARK  status: ('A' for Active; 'I' for Inactive)
REMARK    1  A    between atoms: C_5  and  N_6
REMARK    2  A    between atoms: N_6  and  C_7
REMARK    3  A    between atoms: C_7  and  C_8
REMARK    4  A    between atoms: C_12  and  C_13
REMARK                            x       y       z     vdW  Elec       q    Type
REMARK                         _______ _______ _______ _____ _____    ______ ____
ROOT
ATOM      1  C   UNL     1      44.226   3.267  10.569  0.00  0.00    +0.000 A 
ATOM      2  C   UNL     1      43.520   2.932  11.722  0.00  0.00    +0.000 A 
ATOM      3  C   UNL     1      43.568   3.798  12.810  0.00  0.00    +0.000 A 
ATOM      4  C   UNL     1      44.306   4.972  12.719  0.00  0.00    +0.000 A 
ATOM      5  C   UNL     1      44.981   5.253  11.535  0.00  0.00    +0.000 A 
ATOM      6  N   UNL     1      44.944   4.416  10.470  0.00  0.00    +0.000 NA
ENDROOT
BRANCH   5   7
ATOM      7  C   UNL     1      45.816   6.507  11.404  0.00  0.00    +0.000 C 
ATOM      8  C   UNL     1      47.140   6.397  12.174  0.00  0.00    +0.000 C 
ATOM      9  C   UNL     1      47.887   7.728  12.157  0.00  0.00    +0.000 C 
ATOM     10  C   UNL     1      46.974   8.863  12.604  0.00  0.00    +0.000 C 
ATOM     11  O   UNL     1      45.817   8.924  11.769  0.00  0.00    +0.000 OA
ATOM     12  C   UNL     1      45.026   7.734  11.874  0.00  0.00    +0.000 C 
ENDBRANCH   5   7
BRANCH   1  13
ATOM     13  C   UNL     1      44.213   2.338   9.369  0.00  0.00    +0.000 C 
BRANCH  13  14
ATOM     14  N   UNL     1      45.528   1.757   9.126  0.00  0.00    +0.000 N 
ATOM     15  H   UNL     1      46.056   1.505   9.955  0.00  0.00    +0.000 HD
BRANCH  14  20
ATOM     16  C   UNL     1      46.785   3.422   6.046  0.00  0.00    +0.000 A 
ATOM     17  C   UNL     1      47.679   2.450   5.640  0.00  0.00    +0.000 A 
ATOM     18  N   UNL     1      47.900   1.313   6.326  0.00  0.00    +0.000 NA
ATOM     19  C   UNL     1      47.182   1.148   7.468  0.00  0.00    +0.000 A 
ATOM     20  C   UNL     1      46.269   2.066   7.993  0.00  0.00    +0.000 A 
ATOM     21  C   UNL     1      46.070   3.218   7.227  0.00  0.00    +0.000 A 
ENDBRANCH  14  20
ENDBRANCH  13  14
ENDBRANCH   1  13
TORSDOF 4
ENDMDL
MODEL 2
REMARK VINA RESULT:    -7.537      2.448      5.968
REMARK INTER + INTRA:          -9.858
REMARK INTER:                  -9.170
REMARK INTRA:                  -0.688
REMARK UNBOUND:                -0.558
REMARK  Name = 
REMARK  4 active torsions:
REMARK  status: ('A' for Active; 'I' for Inactive)
REMARK    1  A    between atoms: C_5  and  N_6
REMARK    2  A    between atoms: N_6  and  C_7
REMARK    3  A    between atoms: C_7  and  C_8
REMARK    4  A    between atoms: C_12  and  C_13
REMARK                            x       y       z     vdW  Elec       q    Type
REMARK                         _______ _______ _______ _____ _____    ______ ____
ROOT
ATOM      1  C   UNL     1      43.894   5.094  11.118  0.00  0.00    +0.000 A 
ATOM      2  C   UNL     1      43.311   4.158  11.968  0.00  0.00    +0.000 A 
ATOM      3  C   UNL     1      43.356   2.814  11.613  0.00  0.00    +0.000 A 
ATOM      4  C   UNL     1      43.984   2.438  10.431  0.00  0.00    +0.000 A 
ATOM      5  C   UNL     1      44.555   3.422   9.630  0.00  0.00    +0.000 A 
ATOM      6  N   UNL     1      44.516   4.735   9.964  0.00  0.00    +0.000 NA
ENDROOT
BRANCH   5   7
ATOM      7  C   UNL     1      45.226   3.058   8.324  0.00  0.00    +0.000 C 
ATOM      8  C   UNL     1      46.042   1.763   8.441  0.00  0.00    +0.000 C 
ATOM      9  C   UNL     1      46.834   1.506   7.161  0.00  0.00    +0.000 C 
ATOM     10  C   UNL     1      47.636   2.740   6.769  0.00  0.00    +0.000 C 
ATOM     11  O   UNL     1      46.769   3.864   6.608  0.00  0.00    +0.000 OA
ATOM     12  C   UNL     1      46.117   4.207   7.836  0.00  0.00    +0.000 C 
ENDBRANCH   5   7
BRANCH   1  13
ATOM     13  C   UNL     1      43.848   6.571  11.462  0.00  0.00    +0.000 C 
BRANCH  13  14
ATOM     14  N   UNL     1      44.570   6.857  12.697  0.00  0.00    +0.000 N 
ATOM     15  H   UNL     1      44.083   7.450  13.362  0.00  0.00    +0.000 HD
BRANCH  14  20
ATOM     16  C   UNL     1      48.130   7.781  12.140  0.00  0.00    +0.000 A 
ATOM     17  C   UNL     1      48.721   6.695  12.757  0.00  0.00    +0.000 A 
ATOM     18  N   UNL     1      48.021   5.710  13.353  0.00  0.00    +0.000 NA
ATOM     19  C   UNL     1      46.668   5.825  13.319  0.00  0.00    +0.000 A 
ATOM     20  C   UNL     1      45.957   6.884  12.748  0.00  0.00    +0.000 A 
ATOM     21  C   UNL     1      46.736   7.866  12.130  0.00  0.00    +0.000 A 
ENDBRANCH  14  20
ENDBRANCH  13  14
ENDBRANCH   1  13
TORSDOF 4
ENDMDL
MODEL 3
REMARK VINA RESULT:    -7.461      1.353      1.958
REMARK INTER + INTRA:          -9.763
REMARK INTER:                  -9.199
REMARK INTRA:                  -0.564
REMARK UNBOUND:                -0.558
REMARK  Name = 
REMARK  4 active torsions:
REMARK  status: ('A' for Active; 'I' for Inactive)
REMARK    1  A    between atoms: C_5  and  N_6
REMARK    2  A    between atoms: N_6  and  C_7
REMARK    3  A    between atoms: C_7  and  C_8
REMARK    4  A    between atoms: C_12  and  C_13
REMARK                            x       y       z     vdW  Elec       q    Type
REMARK                         _______ _______ _______ _____ _____    ______ ____
ROOT
ATOM      1  C   UNL     1      44.826   4.561  11.275  0.00  0.00    +0.000 A 
ATOM      2  C   UNL     1      45.175   3.694  12.307  0.00  0.00    +0.000 A 
ATOM      3  C   UNL     1      46.159   4.088  13.208  0.00  0.00    +0.000 A 
ATOM      4  C   UNL     1      46.760   5.333  13.065  0.00  0.00    +0.000 A 
ATOM      5  C   UNL     1      46.360   6.158  12.018  0.00  0.00    +0.000 A 
ATOM      6  N   UNL     1      45.404   5.783  11.132  0.00  0.00    +0.000 NA
ENDROOT
BRANCH   5   7
ATOM      7  C   UNL     1      47.006   7.509  11.812  0.00  0.00    +0.000 C 
ATOM      8  C   UNL     1      48.522   7.460  12.046  0.00  0.00    +0.000 C 
ATOM      9  C   UNL     1      49.123   8.863  11.989  0.00  0.00    +0.000 C 
ATOM     10  C   UNL     1      48.360   9.812  12.903  0.00  0.00    +0.000 C 
ATOM     11  O   UNL     1      46.978   9.841  12.543  0.00  0.00    +0.000 OA
ATOM     12  C   UNL     1      46.359   8.562  12.721  0.00  0.00    +0.000 C 
ENDBRANCH   5   7
BRANCH   1  13
ATOM     13  C   UNL     1      43.771   4.158  10.262  0.00  0.00    +0.000 C 
BRANCH  13  14
ATOM     14  N   UNL     1      44.270   4.265   8.896  0.00  0.00    +0.000 N 
ATOM     15  H   UNL     1      43.617   4.648   8.220  0.00  0.00    +0.000 HD
BRANCH  14  20
ATOM     16  C   UNL     1      47.024   2.807   6.863  0.00  0.00    +0.000 A 
ATOM     17  C   UNL     1      46.981   1.518   7.359  0.00  0.00    +0.000 A 
ATOM     18  N   UNL     1      46.128   1.122   8.323  0.00  0.00    +0.000 NA
ATOM     19  C   UNL     1      45.277   2.067   8.801  0.00  0.00    +0.000 A 
ATOM     20  C   UNL     1      45.239   3.404   8.398  0.00  0.00    +0.000 A 
ATOM     21  C   UNL     1      46.136   3.751   7.384  0.00  0.00    +0.000 A 
ENDBRANCH  14  20
ENDBRANCH  13  14
ENDBRANCH   1  13
TORSDOF 4
ENDMDL
MODEL 4
REMARK VINA RESULT:    -7.450      1.569      1.997
REMARK INTER + INTRA:          -9.750
REMARK INTER:                  -9.188
REMARK INTRA:                  -0.562
REMARK UNBOUND:                -0.558
REMARK  Name = 
REMARK  4 active torsions:
REMARK  status: ('A' for Active; 'I' for Inactive)
REMARK    1  A    between atoms: C_5  and  N_6
REMARK    2  A    between atoms: N_6  and  C_7
REMARK    3  A    between atoms: C_7  and  C_8
REMARK    4  A    between atoms: C_12  and  C_13
REMARK                            x       y       z     vdW  Elec       q    Type
REMARK                         _______ _______ _______ _____ _____    ______ ____
ROOT
ATOM      1  C   UNL     1      44.071   4.524  10.643  0.00  0.00    +0.000 A 
ATOM      2  C   UNL     1      43.173   3.987  11.562  0.00  0.00    +0.000 A 
ATOM      3  C   UNL     1      43.355   4.263  12.913  0.00  0.00    +0.000 A 
ATOM      4  C   UNL     1      44.415   5.069  13.312  0.00  0.00    +0.000 A 
ATOM      5  C   UNL     1      45.271   5.583  12.343  0.00  0.00    +0.000 A 
ATOM      6  N   UNL     1      45.106   5.319  11.023  0.00  0.00    +0.000 NA
ENDROOT
BRANCH   5   7
ATOM      7  C   UNL     1      46.451   6.444  12.735  0.00  0.00    +0.000 C 
ATOM      8  C   UNL     1      47.106   7.107  11.515  0.00  0.00    +0.000 C 
ATOM      9  C   UNL     1      48.385   7.837  11.920  0.00  0.00    +0.000 C 
ATOM     10  C   UNL     1      49.297   6.919  12.722  0.00  0.00    +0.000 C 
ATOM     11  O   UNL     1      48.613   6.425  13.874  0.00  0.00    +0.000 OA
ATOM     12  C   UNL     1      47.485   5.621  13.514  0.00  0.00    +0.000 C 
ENDBRANCH   5   7
BRANCH   1  13
ATOM     13  C   UNL     1      43.916   4.229   9.163  0.00  0.00    +0.000 C 
BRANCH  13  14
ATOM     14  N   UNL     1      45.176   4.397   8.447  0.00  0.00    +0.000 N 
ATOM     15  H   UNL     1      45.267   5.257   7.917  0.00  0.00    +0.000 HD
BRANCH  14  20
ATOM     16  C   UNL     1      47.373   2.197   6.405  0.00  0.00    +0.000 A 
ATOM     17  C   UNL     1      47.162   1.012   7.084  0.00  0.00    +0.000 A 
ATOM     18  N   UNL     1      46.370   0.911   8.169  0.00  0.00    +0.000 NA
ATOM     19  C   UNL     1      45.761   2.053   8.580  0.00  0.00    +0.000 A 
ATOM     20  C   UNL     1      45.913   3.312   7.993  0.00  0.00    +0.000 A 
ATOM     21  C   UNL     1      46.733   3.351   6.862  0.00  0.00    +0.000 A 
ENDBRANCH  14  20
ENDBRANCH  13  14
ENDBRANCH   1  13
TORSDOF 4
ENDMDL
MODEL 5
REMARK VINA RESULT:    -7.340      1.411      2.083
REMARK INTER + INTRA:          -9.614
REMARK INTER:                  -9.118
REMARK INTRA:                  -0.496
REMARK UNBOUND:                -0.558
REMARK  Name = 
REMARK  4 active torsions:
REMARK  status: ('A' for Active; 'I' for Inactive)
REMARK    1  A    between atoms: C_5  and  N_6
REMARK    2  A    between atoms: N_6  and  C_7
REMARK    3  A    between atoms: C_7  and  C_8
REMARK    4  A    between atoms: C_12  and  C_13
REMARK                            x       y       z     vdW  Elec       q    Type
REMARK                         _______ _______ _______ _____ _____    ______ ____
ROOT
ATOM      1  C   UNL     1      44.710   4.543  11.084  0.00  0.00    +0.000 A 
ATOM      2  C   UNL     1      45.183   3.563  11.953  0.00  0.00    +0.000 A 
ATOM      3  C   UNL     1      45.825   3.959  13.122  0.00  0.00    +0.000 A 
ATOM      4  C   UNL     1      45.969   5.313  13.399  0.00  0.00    +0.000 A 
ATOM      5  C   UNL     1      45.466   6.243  12.495  0.00  0.00    +0.000 A 
ATOM      6  N   UNL     1      44.841   5.869  11.350  0.00  0.00    +0.000 NA
ENDROOT
BRANCH   5   7
ATOM      7  C   UNL     1      45.624   7.726  12.745  0.00  0.00    +0.000 C 
ATOM      8  C   UNL     1      44.863   8.566  11.710  0.00  0.00    +0.000 C 
ATOM      9  C   UNL     1      45.169  10.051  11.889  0.00  0.00    +0.000 C 
ATOM     10  C   UNL     1      46.673  10.288  11.932  0.00  0.00    +0.000 C 
ATOM     11  O   UNL     1      47.265   9.522  12.982  0.00  0.00    +0.000 OA
ATOM     12  C   UNL     1      47.107   8.116  12.762  0.00  0.00    +0.000 C 
ENDBRANCH   5   7
BRANCH   1  13
ATOM     13  C   UNL     1      44.023   4.149   9.790  0.00  0.00    +0.000 C 
BRANCH  13  14
ATOM     14  N   UNL     1      44.892   4.351   8.637  0.00  0.00    +0.000 N 
ATOM     15  H   UNL     1      44.564   5.027   7.954  0.00  0.00    +0.000 HD
BRANCH  14  20
ATOM     16  C   UNL     1      47.369   2.449   6.615  0.00  0.00    +0.000 A 
ATOM     17  C   UNL     1      47.176   1.202   7.178  0.00  0.00    +0.000 A 
ATOM     18  N   UNL     1      46.309   0.968   8.182  0.00  0.00    +0.000 NA
ATOM     19  C   UNL     1      45.603   2.038   8.631  0.00  0.00    +0.000 A 
ATOM     20  C   UNL     1      45.725   3.348   8.161  0.00  0.00    +0.000 A 
ATOM     21  C   UNL     1      46.627   3.525   7.108  0.00  0.00    +0.000 A 
ENDBRANCH  14  20
ENDBRANCH  13  14
ENDBRANCH   1  13
TORSDOF 4
ENDMDL
MODEL 6
REMARK VINA RESULT:    -7.264      2.468      3.429
REMARK INTER + INTRA:          -9.520
REMARK INTER:                  -8.994
REMARK INTRA:                  -0.527
REMARK UNBOUND:                -0.558
REMARK  Name = 
REMARK  4 active torsions:
REMARK  status: ('A' for Active; 'I' for Inactive)
REMARK    1  A    between atoms: C_5  and  N_6
REMARK    2  A    between atoms: N_6  and  C_7
REMARK    3  A    between atoms: C_7  and  C_8
REMARK    4  A    between atoms: C_12  and  C_13
REMARK                            x       y       z     vdW  Elec       q    Type
REMARK                         _______ _______ _______ _____ _____    ______ ____
ROOT
ATOM      1  C   UNL     1      44.837   5.443  11.306  0.00  0.00    +0.000 A 
ATOM      2  C   UNL     1      44.604   6.806  11.138  0.00  0.00    +0.000 A 
ATOM      3  C   UNL     1      45.318   7.707  11.921  0.00  0.00    +0.000 A 
ATOM      4  C   UNL     1      46.246   7.232  12.840  0.00  0.00    +0.000 A 
ATOM      5  C   UNL     1      46.439   5.858  12.953  0.00  0.00    +0.000 A 
ATOM      6  N   UNL     1      45.747   4.970  12.197  0.00  0.00    +0.000 NA
ENDROOT
BRANCH   5   7
ATOM      7  C   UNL     1      47.421   5.298  13.958  0.00  0.00    +0.000 C 
ATOM      8  C   UNL     1      46.726   4.419  15.007  0.00  0.00    +0.000 C 
ATOM      9  C   UNL     1      47.710   3.999  16.096  0.00  0.00    +0.000 C 
ATOM     10  C   UNL     1      48.443   5.212  16.655  0.00  0.00    +0.000 C 
ATOM     11  O   UNL     1      49.119   5.907  15.606  0.00  0.00    +0.000 OA
ATOM     12  C   UNL     1      48.199   6.429  14.640  0.00  0.00    +0.000 C 
ENDBRANCH   5   7
BRANCH   1  13
ATOM     13  C   UNL     1      44.064   4.430  10.483  0.00  0.00    +0.000 C 
BRANCH  13  14
ATOM     14  N   UNL     1      44.461   4.462   9.080  0.00  0.00    +0.000 N 
ATOM     15  H   UNL     1      43.776   4.848   8.440  0.00  0.00    +0.000 HD
BRANCH  14  20
ATOM     16  C   UNL     1      47.059   2.838   6.969  0.00  0.00    +0.000 A 
ATOM     17  C   UNL     1      46.922   1.545   7.438  0.00  0.00    +0.000 A 
ATOM     18  N   UNL     1      46.055   1.195   8.407  0.00  0.00    +0.000 NA
ATOM     19  C   UNL     1      45.290   2.194   8.920  0.00  0.00    +0.000 A 
ATOM     20  C   UNL     1      45.351   3.539   8.547  0.00  0.00    +0.000 A 
ATOM     21  C   UNL     1      46.257   3.836   7.525  0.00  0.00    +0.000 A 
ENDBRANCH  14  20
ENDBRANCH  13  14
ENDBRANCH   1  13
TORSDOF 4
ENDMDL
MODEL 7
REMARK VINA RESULT:    -6.832      3.797      7.005
REMARK INTER + INTRA:          -8.987
REMARK INTER:                  -8.591
REMARK INTRA:                  -0.396
REMARK UNBOUND:                -0.558
REMARK  Name = 
REMARK  4 active torsions:
REMARK  status: ('A' for Active; 'I' for Inactive)
REMARK    1  A    between atoms: C_5  and  N_6
REMARK    2  A    between atoms: N_6  and  C_7
REMARK    3  A    between atoms: C_7  and  C_8
REMARK    4  A    between atoms: C_12  and  C_13
REMARK                            x       y       z     vdW  Elec       q    Type
REMARK                         _______ _______ _______ _____ _____    ______ ____
ROOT
ATOM      1  C   UNL     1      45.281   5.011  12.744  0.00  0.00    +0.000 A 
ATOM      2  C   UNL     1      43.975   5.219  13.178  0.00  0.00    +0.000 A 
ATOM      3  C   UNL     1      42.929   4.964  12.298  0.00  0.00    +0.000 A 
ATOM      4  C   UNL     1      43.209   4.502  11.017  0.00  0.00    +0.000 A 
ATOM      5  C   UNL     1      44.536   4.305  10.647  0.00  0.00    +0.000 A 
ATOM      6  N   UNL     1      45.564   4.553  11.497  0.00  0.00    +0.000 NA
ENDROOT
BRANCH   5   7
ATOM      7  C   UNL     1      44.886   3.827   9.256  0.00  0.00    +0.000 C 
ATOM      8  C   UNL     1      45.432   2.392   9.264  0.00  0.00    +0.000 C 
ATOM      9  C   UNL     1      45.925   1.995   7.874  0.00  0.00    +0.000 C 
ATOM     10  C   UNL     1      46.880   3.045   7.322  0.00  0.00    +0.000 C 
ATOM     11  O   UNL     1      46.242   4.322   7.284  0.00  0.00    +0.000 OA
ATOM     12  C   UNL     1      45.893   4.777   8.596  0.00  0.00    +0.000 C 
ENDBRANCH   5   7
BRANCH   1  13
ATOM     13  C   UNL     1      46.448   5.296  13.671  0.00  0.00    +0.000 C 
BRANCH  13  14
ATOM     14  N   UNL     1      46.340   4.549  14.918  0.00  0.00    +0.000 N 
ATOM     15  H   UNL     1      45.419   4.541  15.345  0.00  0.00    +0.000 HD
BRANCH  14  20
ATOM     16  C   UNL     1      48.619   3.270  17.566  0.00  0.00    +0.000 A 
ATOM     17  C   UNL     1      49.522   4.316  17.579  0.00  0.00    +0.000 A 
ATOM     18  N   UNL     1      49.433   5.383  16.762  0.00  0.00    +0.000 NA
ATOM     19  C   UNL     1      48.382   5.397  15.901  0.00  0.00    +0.000 A 
ATOM     20  C   UNL     1      47.419   4.392  15.777  0.00  0.00    +0.000 A 
ATOM     21  C   UNL     1      47.556   3.319  16.662  0.00  0.00    +0.000 A 
ENDBRANCH  14  20
ENDBRANCH  13  14
ENDBRANCH   1  13
TORSDOF 4
ENDMDL
MODEL 8
REMARK VINA RESULT:    -6.328      3.254      4.466
REMARK INTER + INTRA:          -8.366
REMARK INTER:                  -7.845
REMARK INTRA:                  -0.521
REMARK UNBOUND:                -0.558
REMARK  Name = 
REMARK  4 active torsions:
REMARK  status: ('A' for Active; 'I' for Inactive)
REMARK    1  A    between atoms: C_5  and  N_6
REMARK    2  A    between atoms: N_6  and  C_7
REMARK    3  A    between atoms: C_7  and  C_8
REMARK    4  A    between atoms: C_12  and  C_13
REMARK                            x       y       z     vdW  Elec       q    Type
REMARK                         _______ _______ _______ _____ _____    ______ ____
ROOT
ATOM      1  C   UNL     1      45.724   5.788  11.962  0.00  0.00    +0.000 A 
ATOM      2  C   UNL     1      46.664   6.656  11.413  0.00  0.00    +0.000 A 
ATOM      3  C   UNL     1      47.810   6.949  12.144  0.00  0.00    +0.000 A 
ATOM      4  C   UNL     1      47.993   6.368  13.394  0.00  0.00    +0.000 A 
ATOM      5  C   UNL     1      47.020   5.502  13.882  0.00  0.00    +0.000 A 
ATOM      6  N   UNL     1      45.898   5.210  13.180  0.00  0.00    +0.000 NA
ENDROOT
BRANCH   5   7
ATOM      7  C   UNL     1      47.168   4.867  15.247  0.00  0.00    +0.000 C 
ATOM      8  C   UNL     1      48.258   5.555  16.082  0.00  0.00    +0.000 C 
ATOM      9  C   UNL     1      48.496   4.798  17.387  0.00  0.00    +0.000 C 
ATOM     10  C   UNL     1      48.730   3.318  17.114  0.00  0.00    +0.000 C 
ATOM     11  O   UNL     1      47.621   2.764  16.406  0.00  0.00    +0.000 OA
ATOM     12  C   UNL     1      47.462   3.368  15.117  0.00  0.00    +0.000 C 
ENDBRANCH   5   7
BRANCH   1  13
ATOM     13  C   UNL     1      44.452   5.459  11.202  0.00  0.00    +0.000 C 
BRANCH  13  14
ATOM     14  N   UNL     1      44.412   4.057  10.803  0.00  0.00    +0.000 N 
ATOM     15  H   UNL     1      44.361   3.387  11.564  0.00  0.00    +0.000 HD
BRANCH  14  20
ATOM     16  C   UNL     1      45.969   1.898   8.204  0.00  0.00    +0.000 A 
ATOM     17  C   UNL     1      46.360   2.890   7.324  0.00  0.00    +0.000 A 
ATOM     18  N   UNL     1      46.121   4.199   7.529  0.00  0.00    +0.000 NA
ATOM     19  C   UNL     1      45.465   4.521   8.674  0.00  0.00    +0.000 A 
ATOM     20  C   UNL     1      44.999   3.611   9.627  0.00  0.00    +0.000 A 
ATOM     21  C   UNL     1      45.292   2.269   9.367  0.00  0.00    +0.000 A 
ENDBRANCH  14  20
ENDBRANCH  13  14
ENDBRANCH   1  13
TORSDOF 4
ENDMDL
MODEL 9
REMARK VINA RESULT:    -6.133      4.606      7.692
REMARK INTER + INTRA:          -8.125
REMARK INTER:                  -7.520
REMARK INTRA:                  -0.605
REMARK UNBOUND:                -0.558
REMARK  Name = 
REMARK  4 active torsions:
REMARK  status: ('A' for Active; 'I' for Inactive)
REMARK    1  A    between atoms: C_5  and  N_6
REMARK    2  A    between atoms: N_6  and  C_7
REMARK    3  A    between atoms: C_7  and  C_8
REMARK    4  A    between atoms: C_12  and  C_13
REMARK                            x       y       z     vdW  Elec       q    Type
REMARK                         _______ _______ _______ _____ _____    ______ ____
ROOT
ATOM      1  C   UNL     1      48.686   6.975  14.002  0.00  0.00    +0.000 A 
ATOM      2  C   UNL     1      49.325   7.746  13.034  0.00  0.00    +0.000 A 
ATOM      3  C   UNL     1      48.777   7.805  11.757  0.00  0.00    +0.000 A 
ATOM      4  C   UNL     1      47.607   7.107  11.481  0.00  0.00    +0.000 A 
ATOM      5  C   UNL     1      47.012   6.363  12.494  0.00  0.00    +0.000 A 
ATOM      6  N   UNL     1      47.539   6.294  13.742  0.00  0.00    +0.000 NA
ENDROOT
BRANCH   5   7
ATOM      7  C   UNL     1      45.753   5.568  12.229  0.00  0.00    +0.000 C 
ATOM      8  C   UNL     1      44.609   6.460  11.726  0.00  0.00    +0.000 C 
ATOM      9  C   UNL     1      43.310   5.664  11.620  0.00  0.00    +0.000 C 
ATOM     10  C   UNL     1      43.026   4.922  12.920  0.00  0.00    +0.000 C 
ATOM     11  O   UNL     1      44.119   4.063  13.248  0.00  0.00    +0.000 OA
ATOM     12  C   UNL     1      45.321   4.804  13.487  0.00  0.00    +0.000 C 
ENDBRANCH   5   7
BRANCH   1  13
ATOM     13  C   UNL     1      49.265   6.870  15.400  0.00  0.00    +0.000 C 
BRANCH  13  14
ATOM     14  N   UNL     1      48.256   6.462  16.370  0.00  0.00    +0.000 N 
ATOM     15  H   UNL     1      47.893   7.201  16.963  0.00  0.00    +0.000 HD
BRANCH  14  20
ATOM     16  C   UNL     1      49.263   3.154  17.744  0.00  0.00    +0.000 A 
ATOM     17  C   UNL     1      48.023   2.542  17.729  0.00  0.00    +0.000 A 
ATOM     18  N   UNL     1      46.897   3.158  17.321  0.00  0.00    +0.000 NA
ATOM     19  C   UNL     1      47.031   4.445  16.905  0.00  0.00    +0.000 A 
ATOM     20  C   UNL     1      48.220   5.177  16.895  0.00  0.00    +0.000 A 
ATOM     21  C   UNL     1      49.357   4.479  17.313  0.00  0.00    +0.000 A 
ENDBRANCH  14  20
ENDBRANCH  13  14
ENDBRANCH   1  13
TORSDOF 4
ENDMDL
