MODEL 1
REMARK VINA RESULT:    -8.308      0.000      0.000
REMARK INTER + INTRA:         -12.277
REMARK INTER:                 -11.222
REMARK INTRA:                  -1.055
REMARK UNBOUND:                -1.055
REMARK  Name = 
REMARK  7 active torsions:
REMARK  status: ('A' for Active; 'I' for Inactive)
REMARK    1  A    between atoms: C_1  and  C_2
REMARK    2  A    between atoms: C_2  and  N_3
REMARK    3  A    between atoms: C_2  and  C_12
REMARK    4  A    between atoms: C_4  and  C_6
REMARK    5  A    between atoms: C_15  and  C_16
REMARK    6  A    between atoms: C_16  and  N_17
REMARK    7  A    between atoms: C_18  and  C_20
REMARK                            x       y       z     vdW  Elec       q    Type
REMARK                         _______ _______ _______ _____ _____    ______ ____
ROOT
ATOM      1  C   UNL     1      45.321   4.891  12.044  0.00  0.00    +0.000 A 
ATOM      2  C   UNL     1      45.948   4.514  13.244  0.00  0.00    +0.000 A 
ATOM      3  C   UNL     1      46.862   5.363  13.885  0.00  0.00    +0.000 A 
ATOM      4  C   UNL     1      47.162   6.624  13.347  0.00  0.00    +0.000 A 
ATOM      5  C   UNL     1      46.534   7.005  12.157  0.00  0.00    +0.000 A 
ATOM      6  C   UNL     1      45.617   6.161  11.527  0.00  0.00    +0.000 A 
ENDROOT
BRANCH   1   8
ATOM      7  C   UNL     1      43.784   2.864  12.290  0.00  0.00    +0.000 C 
ATOM      8  C   UNL     1      44.336   3.955  11.355  0.00  0.00    +0.000 C 
BRANCH   8   9
ATOM      9  N   UNL     1      44.962   3.342  10.193  0.00  0.00    +0.000 N 
ATOM     10  C   UNL     1      44.656   3.702   8.901  0.00  0.00    +0.000 C 
ATOM     11  O   UNL     1      43.894   4.628   8.627  0.00  0.00    +0.000 OA
ATOM     12  H   UNL     1      45.752   2.718  10.324  0.00  0.00    +0.000 HD
BRANCH  10  13
ATOM     13  C   UNL     1      45.336   2.854   7.800  0.00  0.00    +0.000 C 
ATOM     14  C   UNL     1      46.177   1.715   8.391  0.00  0.00    +0.000 C 
ATOM     15  C   UNL     1      46.845   0.894   7.285  0.00  0.00    +0.000 C 
ATOM     16  C   UNL     1      47.607   1.797   6.320  0.00  0.00    +0.000 C 
ATOM     17  C   UNL     1      46.730   2.948   5.827  0.00  0.00    +0.000 C 
ATOM     18  N   UNL     1      46.185   3.722   6.949  0.00  0.00    +0.000 NA
ATOM     19  H   UNL     1      45.599   4.470   6.573  0.00  0.00    +0.000 HD
ENDBRANCH  10  13
ENDBRANCH   8   9
ENDBRANCH   1   8
BRANCH   4  20
ATOM     20  C   UNL     1      48.156   7.557  13.996  0.00  0.00    +0.000 C 
BRANCH  20  21
ATOM     21  N   UNL     1      48.077   7.498  15.434  0.00  0.00    +0.000 N 
ATOM     22  C   UNL     1      49.089   6.942  16.186  0.00  0.00    +0.000 C 
ATOM     23  O   UNL     1      50.116   6.501  15.680  0.00  0.00    +0.000 OA
ATOM     24  H   UNL     1      47.153   7.563  15.845  0.00  0.00    +0.000 HD
BRANCH  22  25
ATOM     25  C   UNL     1      48.897   6.957  17.643  0.00  0.00    +0.000 A 
ATOM     26  C   UNL     1      48.853   8.165  18.326  0.00  0.00    +0.000 A 
ATOM     27  S   UNL     1      48.622   7.994  20.009  0.00  0.00    +0.000 S 
ATOM     28  C   UNL     1      48.611   6.297  19.890  0.00  0.00    +0.000 A 
ATOM     29  N   UNL     1      48.488   5.516  20.997  0.00  0.00    +0.000 NA
ATOM     30  C   UNL     1      48.513   4.249  20.760  0.00  0.00    +0.000 A 
ATOM     31  N   UNL     1      48.638   3.688  19.516  0.00  0.00    +0.000 N 
ATOM     32  C   UNL     1      48.725   4.433  18.366  0.00  0.00    +0.000 A 
ATOM     33  O   UNL     1      48.759   3.902  17.262  0.00  0.00    +0.000 OA
ATOM     34  C   UNL     1      48.739   5.870  18.580  0.00  0.00    +0.000 A 
ATOM     35  H   UNL     1      48.618   2.685  19.399  0.00  0.00    +0.000 HD
ENDBRANCH  22  25
ENDBRANCH  20  21
ENDBRANCH   4  20
TORSDOF 6
ENDMDL
MODEL 2
REMARK VINA RESULT:    -7.951      1.467      2.272
REMARK INTER + INTRA:         -11.794
REMARK INTER:                 -11.082
REMARK INTRA:                  -0.713
REMARK UNBOUND:                -1.055
REMARK  Name = 
REMARK  7 active torsions:
REMARK  status: ('A' for Active; 'I' for Inactive)
REMARK    1  A    between atoms: C_1  and  C_2
REMARK    2  A    between atoms: C_2  and  N_3
REMARK    3  A    between atoms: C_2  and  C_12
REMARK    4  A    between atoms: C_4  and  C_6
REMARK    5  A    between atoms: C_15  and  C_16
REMARK    6  A    between atoms: C_16  and  N_17
REMARK    7  A    between atoms: C_18  and  C_20
REMARK                            x       y       z     vdW  Elec       q    Type
REMARK                         _______ _______ _______ _____ _____    ______ ____
ROOT
ATOM      1  C   UNL     1      45.384   4.801  11.991  0.00  0.00    +0.000 A 
ATOM      2  C   UNL     1      45.848   6.079  11.639  0.00  0.00    +0.000 A 
ATOM      3  C   UNL     1      46.866   6.711  12.369  0.00  0.00    +0.000 A 
ATOM      4  C   UNL     1      47.458   6.069  13.467  0.00  0.00    +0.000 A 
ATOM      5  C   UNL     1      47.003   4.793  13.816  0.00  0.00    +0.000 A 
ATOM      6  C   UNL     1      45.997   4.164  13.080  0.00  0.00    +0.000 A 
ENDROOT
BRANCH   1   8
ATOM      7  C   UNL     1      43.417   3.170  12.038  0.00  0.00    +0.000 C 
ATOM      8  C   UNL     1      44.273   4.131  11.193  0.00  0.00    +0.000 C 
BRANCH   8   9
ATOM      9  N   UNL     1      44.835   3.422  10.054  0.00  0.00    +0.000 N 
ATOM     10  C   UNL     1      45.215   4.053   8.892  0.00  0.00    +0.000 C 
ATOM     11  O   UNL     1      45.188   5.275   8.756  0.00  0.00    +0.000 OA
ATOM     12  H   UNL     1      45.089   2.444  10.151  0.00  0.00    +0.000 HD
BRANCH  10  13
ATOM     13  C   UNL     1      45.678   3.116   7.752  0.00  0.00    +0.000 C 
ATOM     14  C   UNL     1      46.414   1.881   8.286  0.00  0.00    +0.000 C 
ATOM     15  C   UNL     1      46.867   0.973   7.141  0.00  0.00    +0.000 C 
ATOM     16  C   UNL     1      47.651   1.762   6.097  0.00  0.00    +0.000 C 
ATOM     17  C   UNL     1      46.891   3.014   5.662  0.00  0.00    +0.000 C 
ATOM     18  N   UNL     1      46.553   3.861   6.814  0.00  0.00    +0.000 NA
ATOM     19  H   UNL     1      46.038   4.676   6.478  0.00  0.00    +0.000 HD
ENDBRANCH  10  13
ENDBRANCH   8   9
ENDBRANCH   1   8
BRANCH   4  20
ATOM     20  C   UNL     1      48.541   6.723  14.291  0.00  0.00    +0.000 C 
BRANCH  20  21
ATOM     21  N   UNL     1      48.257   6.641  15.701  0.00  0.00    +0.000 N 
ATOM     22  C   UNL     1      49.216   6.238  16.605  0.00  0.00    +0.000 C 
ATOM     23  O   UNL     1      50.362   5.961  16.265  0.00  0.00    +0.000 OA
ATOM     24  H   UNL     1      47.282   6.562  15.968  0.00  0.00    +0.000 HD
BRANCH  22  25
ATOM     25  C   UNL     1      48.807   6.211  18.017  0.00  0.00    +0.000 A 
ATOM     26  C   UNL     1      48.922   5.039  18.752  0.00  0.00    +0.000 A 
ATOM     27  S   UNL     1      48.403   5.192  20.371  0.00  0.00    +0.000 S 
ATOM     28  C   UNL     1      47.968   6.820  20.135  0.00  0.00    +0.000 A 
ATOM     29  N   UNL     1      47.408   7.548  21.138  0.00  0.00    +0.000 NA
ATOM     30  C   UNL     1      47.113   8.762  20.814  0.00  0.00    +0.000 A 
ATOM     31  N   UNL     1      47.339   9.319  19.582  0.00  0.00    +0.000 N 
ATOM     32  C   UNL     1      47.937   8.636  18.552  0.00  0.00    +0.000 A 
ATOM     33  O   UNL     1      48.194   9.185  17.487  0.00  0.00    +0.000 OA
ATOM     34  C   UNL     1      48.256   7.251  18.853  0.00  0.00    +0.000 A 
ATOM     35  H   UNL     1      47.113  10.287  19.405  0.00  0.00    +0.000 HD
ENDBRANCH  22  25
ENDBRANCH  20  21
ENDBRANCH   4  20
TORSDOF 6
ENDMDL
MODEL 3
REMARK VINA RESULT:    -7.648      4.897      9.907
REMARK INTER + INTRA:         -11.385
REMARK INTER:                 -10.322
REMARK INTRA:                  -1.064
REMARK UNBOUND:                -1.055
REMARK  Name = 
REMARK  7 active torsions:
REMARK  status: ('A' for Active; 'I' for Inactive)
REMARK    1  A    between atoms: C_1  and  C_2
REMARK    2  A    between atoms: C_2  and  N_3
REMARK    3  A    between atoms: C_2  and  C_12
REMARK    4  A    between atoms: C_4  and  C_6
REMARK    5  A    between atoms: C_15  and  C_16
REMARK    6  A    between atoms: C_16  and  N_17
REMARK    7  A    between atoms: C_18  and  C_20
REMARK                            x       y       z     vdW  Elec       q    Type
REMARK                         _______ _______ _______ _____ _____    ______ ____
ROOT
ATOM      1  C   UNL     1      51.393   3.645  17.786  0.00  0.00    +0.000 A 
ATOM      2  C   UNL     1      50.579   4.787  17.881  0.00  0.00    +0.000 A 
ATOM      3  C   UNL     1      49.209   4.729  17.593  0.00  0.00    +0.000 A 
ATOM      4  C   UNL     1      48.610   3.517  17.215  0.00  0.00    +0.000 A 
ATOM      5  C   UNL     1      49.416   2.377  17.126  0.00  0.00    +0.000 A 
ATOM      6  C   UNL     1      50.779   2.437  17.424  0.00  0.00    +0.000 A 
ENDROOT
BRANCH   1   8
ATOM      7  C   UNL     1      53.607   4.822  17.294  0.00  0.00    +0.000 C 
ATOM      8  C   UNL     1      52.883   3.725  18.094  0.00  0.00    +0.000 C 
BRANCH   8   9
ATOM      9  N   UNL     1      53.512   2.436  17.848  0.00  0.00    +0.000 N 
ATOM     10  C   UNL     1      54.163   1.722  18.827  0.00  0.00    +0.000 C 
ATOM     11  O   UNL     1      54.192   2.075  20.005  0.00  0.00    +0.000 OA
ATOM     12  H   UNL     1      53.360   1.968  16.960  0.00  0.00    +0.000 HD
BRANCH  10  13
ATOM     13  C   UNL     1      54.871   0.434  18.346  0.00  0.00    +0.000 C 
ATOM     14  C   UNL     1      54.486   0.071  16.906  0.00  0.00    +0.000 C 
ATOM     15  C   UNL     1      55.193  -1.209  16.453  0.00  0.00    +0.000 C 
ATOM     16  C   UNL     1      54.977  -2.335  17.459  0.00  0.00    +0.000 C 
ATOM     17  C   UNL     1      55.313  -1.883  18.880  0.00  0.00    +0.000 C 
ATOM     18  N   UNL     1      54.544  -0.690  19.256  0.00  0.00    +0.000 NA
ATOM     19  H   UNL     1      54.809  -0.419  20.205  0.00  0.00    +0.000 HD
ENDBRANCH  10  13
ENDBRANCH   8   9
ENDBRANCH   1   8
BRANCH   4  20
ATOM     20  C   UNL     1      47.142   3.418  16.877  0.00  0.00    +0.000 C 
BRANCH  20  21
ATOM     21  N   UNL     1      46.757   4.398  15.893  0.00  0.00    +0.000 N 
ATOM     22  C   UNL     1      46.867   4.141  14.543  0.00  0.00    +0.000 C 
ATOM     23  O   UNL     1      47.263   3.064  14.110  0.00  0.00    +0.000 OA
ATOM     24  H   UNL     1      46.725   5.364  16.197  0.00  0.00    +0.000 HD
BRANCH  22  25
ATOM     25  C   UNL     1      46.427   5.215  13.641  0.00  0.00    +0.000 A 
ATOM     26  C   UNL     1      47.248   6.311  13.412  0.00  0.00    +0.000 A 
ATOM     27  S   UNL     1      46.579   7.457  12.339  0.00  0.00    +0.000 S 
ATOM     28  C   UNL     1      45.151   6.548  12.172  0.00  0.00    +0.000 A 
ATOM     29  N   UNL     1      44.120   6.995  11.404  0.00  0.00    +0.000 NA
ATOM     30  C   UNL     1      43.094   6.214  11.383  0.00  0.00    +0.000 A 
ATOM     31  N   UNL     1      43.008   5.019  12.049  0.00  0.00    +0.000 N 
ATOM     32  C   UNL     1      44.035   4.508  12.803  0.00  0.00    +0.000 A 
ATOM     33  O   UNL     1      43.956   3.402  13.325  0.00  0.00    +0.000 OA
ATOM     34  C   UNL     1      45.203   5.368  12.892  0.00  0.00    +0.000 A 
ATOM     35  H   UNL     1      42.185   4.439  11.963  0.00  0.00    +0.000 HD
ENDBRANCH  22  25
ENDBRANCH  20  21
ENDBRANCH   4  20
TORSDOF 6
ENDMDL
MODEL 4
REMARK VINA RESULT:    -7.507      1.703      3.020
REMARK INTER + INTRA:         -11.194
REMARK INTER:                 -10.849
REMARK INTRA:                  -0.345
REMARK UNBOUND:                -1.055
REMARK  Name = 
REMARK  7 active torsions:
REMARK  status: ('A' for Active; 'I' for Inactive)
REMARK    1  A    between atoms: C_1  and  C_2
REMARK    2  A    between atoms: C_2  and  N_3
REMARK    3  A    between atoms: C_2  and  C_12
REMARK    4  A    between atoms: C_4  and  C_6
REMARK    5  A    between atoms: C_15  and  C_16
REMARK    6  A    between atoms: C_16  and  N_17
REMARK    7  A    between atoms: C_18  and  C_20
REMARK                            x       y       z     vdW  Elec       q    Type
REMARK                         _______ _______ _______ _____ _____    ______ ____
ROOT
ATOM      1  C   UNL     1      45.427   5.505  12.006  0.00  0.00    +0.000 A 
ATOM      2  C   UNL     1      46.622   6.169  12.329  0.00  0.00    +0.000 A 
ATOM      3  C   UNL     1      47.358   5.826  13.472  0.00  0.00    +0.000 A 
ATOM      4  C   UNL     1      46.923   4.794  14.317  0.00  0.00    +0.000 A 
ATOM      5  C   UNL     1      45.737   4.126  13.994  0.00  0.00    +0.000 A 
ATOM      6  C   UNL     1      45.012   4.464  12.849  0.00  0.00    +0.000 A 
ENDROOT
BRANCH   1   8
ATOM      7  C   UNL     1      43.114   5.723  10.940  0.00  0.00    +0.000 C 
ATOM      8  C   UNL     1      44.633   5.894  10.765  0.00  0.00    +0.000 C 
BRANCH   8   9
ATOM      9  N   UNL     1      45.090   5.121   9.619  0.00  0.00    +0.000 N 
ATOM     10  C   UNL     1      44.604   3.869   9.320  0.00  0.00    +0.000 C 
ATOM     11  O   UNL     1      43.688   3.340   9.946  0.00  0.00    +0.000 OA
ATOM     12  H   UNL     1      45.689   5.561   8.929  0.00  0.00    +0.000 HD
BRANCH  10  13
ATOM     13  C   UNL     1      45.298   3.158   8.134  0.00  0.00    +0.000 C 
ATOM     14  C   UNL     1      45.994   1.862   8.570  0.00  0.00    +0.000 C 
ATOM     15  C   UNL     1      46.679   1.180   7.383  0.00  0.00    +0.000 C 
ATOM     16  C   UNL     1      47.586   2.157   6.642  0.00  0.00    +0.000 C 
ATOM     17  C   UNL     1      46.848   3.451   6.302  0.00  0.00    +0.000 C 
ATOM     18  N   UNL     1      46.279   4.073   7.504  0.00  0.00    +0.000 NA
ATOM     19  H   UNL     1      45.788   4.925   7.228  0.00  0.00    +0.000 HD
ENDBRANCH  10  13
ENDBRANCH   8   9
ENDBRANCH   1   8
BRANCH   4  20
ATOM     20  C   UNL     1      47.676   4.408  15.568  0.00  0.00    +0.000 C 
BRANCH  20  21
ATOM     21  N   UNL     1      47.751   5.505  16.500  0.00  0.00    +0.000 N 
ATOM     22  C   UNL     1      48.952   5.897  17.052  0.00  0.00    +0.000 C 
ATOM     23  O   UNL     1      50.015   5.360  16.758  0.00  0.00    +0.000 OA
ATOM     24  H   UNL     1      46.896   5.755  16.983  0.00  0.00    +0.000 HD
BRANCH  22  25
ATOM     25  C   UNL     1      48.898   7.039  17.976  0.00  0.00    +0.000 A 
ATOM     26  C   UNL     1      49.149   6.851  19.329  0.00  0.00    +0.000 A 
ATOM     27  S   UNL     1      49.045   8.284  20.251  0.00  0.00    +0.000 S 
ATOM     28  C   UNL     1      48.623   9.200  18.881  0.00  0.00    +0.000 A 
ATOM     29  N   UNL     1      48.349  10.529  18.982  0.00  0.00    +0.000 NA
ATOM     30  C   UNL     1      48.027  11.092  17.868  0.00  0.00    +0.000 A 
ATOM     31  N   UNL     1      47.965  10.452  16.657  0.00  0.00    +0.000 N 
ATOM     32  C   UNL     1      48.270   9.123  16.498  0.00  0.00    +0.000 A 
ATOM     33  O   UNL     1      48.278   8.598  15.391  0.00  0.00    +0.000 OA
ATOM     34  C   UNL     1      48.604   8.431  17.731  0.00  0.00    +0.000 A 
ATOM     35  H   UNL     1      47.735  10.962  15.816  0.00  0.00    +0.000 HD
ENDBRANCH  22  25
ENDBRANCH  20  21
ENDBRANCH   4  20
TORSDOF 6
ENDMDL
MODEL 5
REMARK VINA RESULT:    -7.187      3.948      9.361
REMARK INTER + INTRA:         -10.762
REMARK INTER:                  -9.653
REMARK INTRA:                  -1.109
REMARK UNBOUND:                -1.055
REMARK  Name = 
REMARK  7 active torsions:
REMARK  status: ('A' for Active; 'I' for Inactive)
REMARK    1  A    between atoms: C_1  and  C_2
REMARK    2  A    between atoms: C_2  and  N_3
REMARK    3  A    between atoms: C_2  and  C_12
REMARK    4  A    between atoms: C_4  and  C_6
REMARK    5  A    between atoms: C_15  and  C_16
REMARK    6  A    between atoms: C_16  and  N_17
REMARK    7  A    between atoms: C_18  and  C_20
REMARK                            x       y       z     vdW  Elec       q    Type
REMARK                         _______ _______ _______ _____ _____    ______ ____
ROOT
ATOM      1  C   UNL     1      49.245   5.208  17.265  0.00  0.00    +0.000 A 
ATOM      2  C   UNL     1      49.940   6.336  16.797  0.00  0.00    +0.000 A 
ATOM      3  C   UNL     1      49.580   6.966  15.598  0.00  0.00    +0.000 A 
ATOM      4  C   UNL     1      48.499   6.491  14.839  0.00  0.00    +0.000 A 
ATOM      5  C   UNL     1      47.801   5.372  15.305  0.00  0.00    +0.000 A 
ATOM      6  C   UNL     1      48.156   4.754  16.506  0.00  0.00    +0.000 A 
ENDROOT
BRANCH   1   8
ATOM      7  C   UNL     1      49.680   5.491  19.767  0.00  0.00    +0.000 C 
ATOM      8  C   UNL     1      49.653   4.529  18.566  0.00  0.00    +0.000 C 
BRANCH   8   9
ATOM      9  N   UNL     1      50.953   3.894  18.410  0.00  0.00    +0.000 N 
ATOM     10  C   UNL     1      51.119   2.665  17.813  0.00  0.00    +0.000 C 
ATOM     11  O   UNL     1      50.195   2.045  17.289  0.00  0.00    +0.000 OA
ATOM     12  H   UNL     1      51.793   4.421  18.622  0.00  0.00    +0.000 HD
BRANCH  10  13
ATOM     13  C   UNL     1      52.560   2.103  17.849  0.00  0.00    +0.000 C 
ATOM     14  C   UNL     1      52.596   0.597  17.564  0.00  0.00    +0.000 C 
ATOM     15  C   UNL     1      54.029   0.062  17.611  0.00  0.00    +0.000 C 
ATOM     16  C   UNL     1      54.719   0.467  18.910  0.00  0.00    +0.000 C 
ATOM     17  C   UNL     1      54.584   1.968  19.165  0.00  0.00    +0.000 C 
ATOM     18  N   UNL     1      53.176   2.384  19.168  0.00  0.00    +0.000 NA
ATOM     19  H   UNL     1      53.135   3.392  19.331  0.00  0.00    +0.000 HD
ENDBRANCH  10  13
ENDBRANCH   8   9
ENDBRANCH   1   8
BRANCH   4  20
ATOM     20  C   UNL     1      48.093   7.129  13.532  0.00  0.00    +0.000 C 
BRANCH  20  21
ATOM     21  N   UNL     1      47.405   6.195  12.678  0.00  0.00    +0.000 N 
ATOM     22  C   UNL     1      46.384   6.601  11.845  0.00  0.00    +0.000 C 
ATOM     23  O   UNL     1      46.032   7.774  11.762  0.00  0.00    +0.000 OA
ATOM     24  H   UNL     1      47.452   5.216  12.937  0.00  0.00    +0.000 HD
BRANCH  22  25
ATOM     25  C   UNL     1      45.773   5.556  11.011  0.00  0.00    +0.000 A 
ATOM     26  C   UNL     1      45.902   5.605   9.629  0.00  0.00    +0.000 A 
ATOM     27  S   UNL     1      45.133   4.312   8.822  0.00  0.00    +0.000 S 
ATOM     28  C   UNL     1      44.566   3.663  10.289  0.00  0.00    +0.000 A 
ATOM     29  N   UNL     1      43.786   2.548  10.308  0.00  0.00    +0.000 NA
ATOM     30  C   UNL     1      43.415   2.178  11.487  0.00  0.00    +0.000 A 
ATOM     31  N   UNL     1      43.761   2.813  12.651  0.00  0.00    +0.000 N 
ATOM     32  C   UNL     1      44.577   3.917  12.685  0.00  0.00    +0.000 A 
ATOM     33  O   UNL     1      44.930   4.417  13.747  0.00  0.00    +0.000 OA
ATOM     34  C   UNL     1      44.994   4.398  11.380  0.00  0.00    +0.000 A 
ATOM     35  H   UNL     1      43.461   2.450  13.545  0.00  0.00    +0.000 HD
ENDBRANCH  22  25
ENDBRANCH  20  21
ENDBRANCH   4  20
TORSDOF 6
ENDMDL
MODEL 6
REMARK VINA RESULT:    -7.083      4.892      9.694
REMARK INTER + INTRA:         -10.622
REMARK INTER:                  -9.328
REMARK INTRA:                  -1.294
REMARK UNBOUND:                -1.055
REMARK  Name = 
REMARK  7 active torsions:
REMARK  status: ('A' for Active; 'I' for Inactive)
REMARK    1  A    between atoms: C_1  and  C_2
REMARK    2  A    between atoms: C_2  and  N_3
REMARK    3  A    between atoms: C_2  and  C_12
REMARK    4  A    between atoms: C_4  and  C_6
REMARK    5  A    between atoms: C_15  and  C_16
REMARK    6  A    between atoms: C_16  and  N_17
REMARK    7  A    between atoms: C_18  and  C_20
REMARK                            x       y       z     vdW  Elec       q    Type
REMARK                         _______ _______ _______ _____ _____    ______ ____
ROOT
ATOM      1  C   UNL     1      51.479   3.599  17.781  0.00  0.00    +0.000 A 
ATOM      2  C   UNL     1      50.884   2.387  17.390  0.00  0.00    +0.000 A 
ATOM      3  C   UNL     1      49.523   2.318  17.062  0.00  0.00    +0.000 A 
ATOM      4  C   UNL     1      48.720   3.468  17.102  0.00  0.00    +0.000 A 
ATOM      5  C   UNL     1      49.311   4.678  17.484  0.00  0.00    +0.000 A 
ATOM      6  C   UNL     1      50.669   4.744  17.800  0.00  0.00    +0.000 A 
ENDROOT
BRANCH   1   8
ATOM      7  C   UNL     1      53.719   4.768  17.397  0.00  0.00    +0.000 C 
ATOM      8  C   UNL     1      52.957   3.657  18.143  0.00  0.00    +0.000 C 
BRANCH   8   9
ATOM      9  N   UNL     1      53.584   2.369  17.887  0.00  0.00    +0.000 N 
ATOM     10  C   UNL     1      54.230   1.644  18.861  0.00  0.00    +0.000 C 
ATOM     11  O   UNL     1      54.257   1.985  20.042  0.00  0.00    +0.000 OA
ATOM     12  H   UNL     1      53.433   1.910  16.995  0.00  0.00    +0.000 HD
BRANCH  10  13
ATOM     13  C   UNL     1      54.936   0.358  18.369  0.00  0.00    +0.000 C 
ATOM     14  C   UNL     1      54.881   0.222  16.843  0.00  0.00    +0.000 C 
ATOM     15  C   UNL     1      55.580  -1.059  16.380  0.00  0.00    +0.000 C 
ATOM     16  C   UNL     1      55.047  -2.273  17.134  0.00  0.00    +0.000 C 
ATOM     17  C   UNL     1      55.065  -2.040  18.644  0.00  0.00    +0.000 C 
ATOM     18  N   UNL     1      54.318  -0.830  19.007  0.00  0.00    +0.000 NA
ATOM     19  H   UNL     1      54.367  -0.709  20.020  0.00  0.00    +0.000 HD
ENDBRANCH  10  13
ENDBRANCH   8   9
ENDBRANCH   1   8
BRANCH   4  20
ATOM     20  C   UNL     1      47.247   3.431  16.775  0.00  0.00    +0.000 C 
BRANCH  20  21
ATOM     21  N   UNL     1      46.884   4.471  15.846  0.00  0.00    +0.000 N 
ATOM     22  C   UNL     1      46.912   4.258  14.484  0.00  0.00    +0.000 C 
ATOM     23  O   UNL     1      47.212   3.174  13.995  0.00  0.00    +0.000 OA
ATOM     24  H   UNL     1      46.932   5.425  16.184  0.00  0.00    +0.000 HD
BRANCH  22  25
ATOM     25  C   UNL     1      46.503   5.393  13.642  0.00  0.00    +0.000 A 
ATOM     26  C   UNL     1      45.284   5.363  12.980  0.00  0.00    +0.000 A 
ATOM     27  S   UNL     1      44.973   6.762  12.052  0.00  0.00    +0.000 S 
ATOM     28  C   UNL     1      46.476   7.440  12.471  0.00  0.00    +0.000 A 
ATOM     29  N   UNL     1      46.867   8.643  11.970  0.00  0.00    +0.000 NA
ATOM     30  C   UNL     1      48.036   9.026  12.359  0.00  0.00    +0.000 A 
ATOM     31  N   UNL     1      48.845   8.324  13.213  0.00  0.00    +0.000 N 
ATOM     32  C   UNL     1      48.478   7.126  13.775  0.00  0.00    +0.000 A 
ATOM     33  O   UNL     1      49.192   6.559  14.594  0.00  0.00    +0.000 OA
ATOM     34  C   UNL     1      47.184   6.629  13.340  0.00  0.00    +0.000 A 
ATOM     35  H   UNL     1      49.738   8.699  13.502  0.00  0.00    +0.000 HD
ENDBRANCH  22  25
ENDBRANCH  20  21
ENDBRANCH   4  20
TORSDOF 6
ENDMDL
MODEL 7
REMARK VINA RESULT:    -6.934      3.369      4.704
REMARK INTER + INTRA:         -10.421
REMARK INTER:                 -10.380
REMARK INTRA:                  -0.041
REMARK UNBOUND:                -1.055
REMARK  Name = 
REMARK  7 active torsions:
REMARK  status: ('A' for Active; 'I' for Inactive)
REMARK    1  A    between atoms: C_1  and  C_2
REMARK    2  A    between atoms: C_2  and  N_3
REMARK    3  A    between atoms: C_2  and  C_12
REMARK    4  A    between atoms: C_4  and  C_6
REMARK    5  A    between atoms: C_15  and  C_16
REMARK    6  A    between atoms: C_16  and  N_17
REMARK    7  A    between atoms: C_18  and  C_20
REMARK                            x       y       z     vdW  Elec       q    Type
REMARK                         _______ _______ _______ _____ _____    ______ ____
ROOT
ATOM      1  C   UNL     1      47.301   5.968  13.832  0.00  0.00    +0.000 A 
ATOM      2  C   UNL     1      48.131   6.421  14.872  0.00  0.00    +0.000 A 
ATOM      3  C   UNL     1      48.323   5.659  16.033  0.00  0.00    +0.000 A 
ATOM      4  C   UNL     1      47.699   4.411  16.179  0.00  0.00    +0.000 A 
ATOM      5  C   UNL     1      46.878   3.954  15.142  0.00  0.00    +0.000 A 
ATOM      6  C   UNL     1      46.698   4.711  13.983  0.00  0.00    +0.000 A 
ENDROOT
BRANCH   1   8
ATOM      7  C   UNL     1      46.218   8.051  12.823  0.00  0.00    +0.000 C 
ATOM      8  C   UNL     1      47.096   6.810  12.579  0.00  0.00    +0.000 C 
BRANCH   8   9
ATOM      9  N   UNL     1      46.519   5.996  11.520  0.00  0.00    +0.000 N 
ATOM     10  C   UNL     1      45.168   5.759  11.410  0.00  0.00    +0.000 C 
ATOM     11  O   UNL     1      44.334   6.285  12.146  0.00  0.00    +0.000 OA
ATOM     12  H   UNL     1      47.104   5.693  10.749  0.00  0.00    +0.000 HD
BRANCH  10  13
ATOM     13  C   UNL     1      44.759   4.772  10.292  0.00  0.00    +0.000 C 
ATOM     14  C   UNL     1      44.852   3.312  10.752  0.00  0.00    +0.000 C 
ATOM     15  C   UNL     1      44.450   2.354   9.629  0.00  0.00    +0.000 C 
ATOM     16  C   UNL     1      45.228   2.655   8.351  0.00  0.00    +0.000 C 
ATOM     17  C   UNL     1      45.150   4.138   7.991  0.00  0.00    +0.000 C 
ATOM     18  N   UNL     1      45.615   4.982   9.099  0.00  0.00    +0.000 NA
ATOM     19  H   UNL     1      45.535   5.961   8.818  0.00  0.00    +0.000 HD
ENDBRANCH  10  13
ENDBRANCH   8   9
ENDBRANCH   1   8
BRANCH   4  20
ATOM     20  C   UNL     1      47.864   3.570  17.422  0.00  0.00    +0.000 C 
BRANCH  20  21
ATOM     21  N   UNL     1      49.254   3.327  17.716  0.00  0.00    +0.000 N 
ATOM     22  C   UNL     1      49.975   2.371  17.033  0.00  0.00    +0.000 C 
ATOM     23  O   UNL     1      49.488   1.705  16.126  0.00  0.00    +0.000 OA
ATOM     24  H   UNL     1      49.588   3.623  18.626  0.00  0.00    +0.000 HD
BRANCH  22  25
ATOM     25  C   UNL     1      51.388   2.231  17.415  0.00  0.00    +0.000 A 
ATOM     26  C   UNL     1      51.939   0.969  17.590  0.00  0.00    +0.000 A 
ATOM     27  S   UNL     1      53.588   0.995  18.029  0.00  0.00    +0.000 S 
ATOM     28  C   UNL     1      53.615   2.696  18.039  0.00  0.00    +0.000 A 
ATOM     29  N   UNL     1      54.742   3.378  18.380  0.00  0.00    +0.000 NA
ATOM     30  C   UNL     1      54.613   4.661  18.361  0.00  0.00    +0.000 A 
ATOM     31  N   UNL     1      53.464   5.327  18.019  0.00  0.00    +0.000 N 
ATOM     32  C   UNL     1      52.316   4.684  17.630  0.00  0.00    +0.000 A 
ATOM     33  O   UNL     1      51.329   5.308  17.258  0.00  0.00    +0.000 OA
ATOM     34  C   UNL     1      52.395   3.234  17.670  0.00  0.00    +0.000 A 
ATOM     35  H   UNL     1      53.442   6.337  17.994  0.00  0.00    +0.000 HD
ENDBRANCH  22  25
ENDBRANCH  20  21
ENDBRANCH   4  20
TORSDOF 6
ENDMDL
MODEL 8
REMARK VINA RESULT:    -6.891      4.288      9.433
REMARK INTER + INTRA:         -10.362
REMARK INTER:                  -9.372
REMARK INTRA:                  -0.991
REMARK UNBOUND:                -1.055
REMARK  Name = 
REMARK  7 active torsions:
REMARK  status: ('A' for Active; 'I' for Inactive)
REMARK    1  A    between atoms: C_1  and  C_2
REMARK    2  A    between atoms: C_2  and  N_3
REMARK    3  A    between atoms: C_2  and  C_12
REMARK    4  A    between atoms: C_4  and  C_6
REMARK    5  A    between atoms: C_15  and  C_16
REMARK    6  A    between atoms: C_16  and  N_17
REMARK    7  A    between atoms: C_18  and  C_20
REMARK                            x       y       z     vdW  Elec       q    Type
REMARK                         _______ _______ _______ _____ _____    ______ ____
ROOT
ATOM      1  C   UNL     1      51.437   4.065  17.706  0.00  0.00    +0.000 A 
ATOM      2  C   UNL     1      50.926   2.769  17.529  0.00  0.00    +0.000 A 
ATOM      3  C   UNL     1      49.572   2.555  17.233  0.00  0.00    +0.000 A 
ATOM      4  C   UNL     1      48.693   3.640  17.090  0.00  0.00    +0.000 A 
ATOM      5  C   UNL     1      49.201   4.932  17.258  0.00  0.00    +0.000 A 
ATOM      6  C   UNL     1      50.552   5.141  17.543  0.00  0.00    +0.000 A 
ENDROOT
BRANCH   1   8
ATOM      7  C   UNL     1      53.147   4.675  19.504  0.00  0.00    +0.000 C 
ATOM      8  C   UNL     1      52.908   4.282  18.035  0.00  0.00    +0.000 C 
BRANCH   8   9
ATOM      9  N   UNL     1      53.473   5.293  17.154  0.00  0.00    +0.000 N 
ATOM     10  C   UNL     1      54.718   5.174  16.580  0.00  0.00    +0.000 C 
ATOM     11  O   UNL     1      55.416   4.169  16.698  0.00  0.00    +0.000 OA
ATOM     12  H   UNL     1      52.888   6.056  16.833  0.00  0.00    +0.000 HD
BRANCH  10  13
ATOM     13  C   UNL     1      55.192   6.405  15.772  0.00  0.00    +0.000 C 
ATOM     14  C   UNL     1      54.786   7.724  16.442  0.00  0.00    +0.000 C 
ATOM     15  C   UNL     1      55.260   8.926  15.623  0.00  0.00    +0.000 C 
ATOM     16  C   UNL     1      54.815   8.804  14.169  0.00  0.00    +0.000 C 
ATOM     17  C   UNL     1      55.190   7.441  13.587  0.00  0.00    +0.000 C 
ATOM     18  N   UNL     1      54.641   6.346  14.396  0.00  0.00    +0.000 NA
ATOM     19  H   UNL     1      54.926   5.459  13.978  0.00  0.00    +0.000 HD
ENDBRANCH  10  13
ENDBRANCH   8   9
ENDBRANCH   1   8
BRANCH   4  20
ATOM     20  C   UNL     1      47.225   3.450  16.791  0.00  0.00    +0.000 C 
BRANCH  20  21
ATOM     21  N   UNL     1      46.753   4.411  15.827  0.00  0.00    +0.000 N 
ATOM     22  C   UNL     1      46.788   4.147  14.474  0.00  0.00    +0.000 C 
ATOM     23  O   UNL     1      47.188   3.078  14.025  0.00  0.00    +0.000 OA
ATOM     24  H   UNL     1      46.711   5.378  16.126  0.00  0.00    +0.000 HD
BRANCH  22  25
ATOM     25  C   UNL     1      46.262   5.200  13.594  0.00  0.00    +0.000 A 
ATOM     26  C   UNL     1      46.996   6.359  13.381  0.00  0.00    +0.000 A 
ATOM     27  S   UNL     1      46.236   7.470  12.332  0.00  0.00    +0.000 S 
ATOM     28  C   UNL     1      44.879   6.459  12.156  0.00  0.00    +0.000 A 
ATOM     29  N   UNL     1      43.813   6.840  11.402  0.00  0.00    +0.000 NA
ATOM     30  C   UNL     1      42.849   5.983  11.371  0.00  0.00    +0.000 A 
ATOM     31  N   UNL     1      42.858   4.773  12.016  0.00  0.00    +0.000 N 
ATOM     32  C   UNL     1      43.926   4.329  12.755  0.00  0.00    +0.000 A 
ATOM     33  O   UNL     1      43.933   3.211  13.257  0.00  0.00    +0.000 OA
ATOM     34  C   UNL     1      45.025   5.273  12.853  0.00  0.00    +0.000 A 
ATOM     35  H   UNL     1      42.080   4.135  11.923  0.00  0.00    +0.000 HD
ENDBRANCH  22  25
ENDBRANCH  20  21
ENDBRANCH   4  20
TORSDOF 6
ENDMDL
MODEL 9
REMARK VINA RESULT:    -6.857      1.868      2.450
REMARK INTER + INTRA:         -10.316
REMARK INTER:                 -10.218
REMARK INTRA:                  -0.098
REMARK UNBOUND:                -1.055
REMARK  Name = 
REMARK  7 active torsions:
REMARK  status: ('A' for Active; 'I' for Inactive)
REMARK    1  A    between atoms: C_1  and  C_2
REMARK    2  A    between atoms: C_2  and  N_3
REMARK    3  A    between atoms: C_2  and  C_12
REMARK    4  A    between atoms: C_4  and  C_6
REMARK    5  A    between atoms: C_15  and  C_16
REMARK    6  A    between atoms: C_16  and  N_17
REMARK    7  A    between atoms: C_18  and  C_20
REMARK                            x       y       z     vdW  Elec       q    Type
REMARK                         _______ _______ _______ _____ _____    ______ ____
ROOT
ATOM      1  C   UNL     1      45.612   5.345  12.042  0.00  0.00    +0.000 A 
ATOM      2  C   UNL     1      46.612   6.091  12.689  0.00  0.00    +0.000 A 
ATOM      3  C   UNL     1      47.252   5.607  13.839  0.00  0.00    +0.000 A 
ATOM      4  C   UNL     1      46.918   4.349  14.365  0.00  0.00    +0.000 A 
ATOM      5  C   UNL     1      45.928   3.601  13.719  0.00  0.00    +0.000 A 
ATOM      6  C   UNL     1      45.300   4.083  12.569  0.00  0.00    +0.000 A 
ENDROOT
BRANCH   1   8
ATOM      7  C   UNL     1      43.386   5.906  10.921  0.00  0.00    +0.000 C 
ATOM      8  C   UNL     1      44.920   5.888  10.799  0.00  0.00    +0.000 C 
BRANCH   8   9
ATOM      9  N   UNL     1      45.314   5.114   9.631  0.00  0.00    +0.000 N 
ATOM     10  C   UNL     1      44.704   3.933   9.275  0.00  0.00    +0.000 C 
ATOM     11  O   UNL     1      43.725   3.481   9.866  0.00  0.00    +0.000 OA
ATOM     12  H   UNL     1      45.970   5.512   8.968  0.00  0.00    +0.000 HD
BRANCH  10  13
ATOM     13  C   UNL     1      45.342   3.196   8.074  0.00  0.00    +0.000 C 
ATOM     14  C   UNL     1      46.058   1.909   8.504  0.00  0.00    +0.000 C 
ATOM     15  C   UNL     1      46.686   1.201   7.301  0.00  0.00    +0.000 C 
ATOM     16  C   UNL     1      47.558   2.162   6.498  0.00  0.00    +0.000 C 
ATOM     17  C   UNL     1      46.805   3.449   6.165  0.00  0.00    +0.000 C 
ATOM     18  N   UNL     1      46.293   4.097   7.379  0.00  0.00    +0.000 NA
ATOM     19  H   UNL     1      45.789   4.943   7.108  0.00  0.00    +0.000 HD
ENDBRANCH  10  13
ENDBRANCH   8   9
ENDBRANCH   1   8
BRANCH   4  20
ATOM     20  C   UNL     1      47.569   3.802  15.612  0.00  0.00    +0.000 C 
BRANCH  20  21
ATOM     21  N   UNL     1      48.231   4.839  16.363  0.00  0.00    +0.000 N 
ATOM     22  C   UNL     1      47.773   5.231  17.603  0.00  0.00    +0.000 C 
ATOM     23  O   UNL     1      46.807   4.702  18.143  0.00  0.00    +0.000 OA
ATOM     24  H   UNL     1      48.813   5.483  15.840  0.00  0.00    +0.000 HD
BRANCH  22  25
ATOM     25  C   UNL     1      48.545   6.287  18.274  0.00  0.00    +0.000 A 
ATOM     26  C   UNL     1      47.921   7.466  18.657  0.00  0.00    +0.000 A 
ATOM     27  S   UNL     1      48.966   8.577  19.424  0.00  0.00    +0.000 S 
ATOM     28  C   UNL     1      50.299   7.537  19.235  0.00  0.00    +0.000 A 
ATOM     29  N   UNL     1      51.541   7.905  19.650  0.00  0.00    +0.000 NA
ATOM     30  C   UNL     1      52.459   7.026  19.428  0.00  0.00    +0.000 A 
ATOM     31  N   UNL     1      52.247   5.806  18.841  0.00  0.00    +0.000 N 
ATOM     32  C   UNL     1      51.006   5.374  18.442  0.00  0.00    +0.000 A 
ATOM     33  O   UNL     1      50.838   4.248  17.989  0.00  0.00    +0.000 OA
ATOM     34  C   UNL     1      49.941   6.342  18.635  0.00  0.00    +0.000 A 
ATOM     35  H   UNL     1      53.007   5.151  18.726  0.00  0.00    +0.000 HD
ENDBRANCH  22  25
ENDBRANCH  20  21
ENDBRANCH   4  20
TORSDOF 6
ENDMDL
