MODEL 1
REMARK VINA RESULT:    -6.746      0.000      0.000
REMARK INTER + INTRA:         -11.342
REMARK INTER:                 -10.098
REMARK INTRA:                  -1.244
REMARK UNBOUND:                -1.244
REMARK  Name = 
REMARK  9 active torsions:
REMARK  status: ('A' for Active; 'I' for Inactive)
REMARK    1  A    between atoms: N_1  and  C_2
REMARK    2  A    between atoms: C_2  and  C_3
REMARK    3  A    between atoms: C_3  and  N_4
REMARK    4  A    between atoms: N_4  and  C_5
REMARK    5  A    between atoms: C_5  and  C_6
REMARK    6  A    between atoms: C_9  and  C_10
REMARK    7  A    between atoms: C_10  and  N_11
REMARK    8  A    between atoms: N_11  and  C_12
REMARK    9  A    between atoms: C_20  and  C_22
REMARK                            x       y       z     vdW  Elec       q    Type
REMARK                         _______ _______ _______ _____ _____    ______ ____
ROOT
ATOM      1  N   UNL     1      49.744   7.458  14.660  0.00  0.00    +0.000 N 
ATOM      2  C   UNL     1      50.099   7.075  15.967  0.00  0.00    +0.000 C 
ATOM      3  O   UNL     1      51.276   6.847  16.251  0.00  0.00    +0.000 OA
ENDROOT
BRANCH   2   4
ATOM      4  C   UNL     1      49.124   7.096  17.075  0.00  0.00    +0.000 A 
ATOM      5  C   UNL     1      48.481   8.202  17.608  0.00  0.00    +0.000 A 
ATOM      6  S   UNL     1      47.814   7.931  19.161  0.00  0.00    +0.000 S 
ATOM      7  C   UNL     1      48.366   6.326  19.165  0.00  0.00    +0.000 A 
ATOM      8  N   UNL     1      48.282   5.548  20.275  0.00  0.00    +0.000 NA
ATOM      9  C   UNL     1      48.725   4.346  20.107  0.00  0.00    +0.000 A 
ATOM     10  N   UNL     1      49.188   3.836  18.920  0.00  0.00    +0.000 N 
ATOM     11  C   UNL     1      49.202   4.563  17.749  0.00  0.00    +0.000 A 
ATOM     12  O   UNL     1      49.367   4.025  16.660  0.00  0.00    +0.000 OA
ATOM     13  C   UNL     1      48.880   5.963  17.936  0.00  0.00    +0.000 A 
ATOM     14  H   UNL     1      49.394   2.853  18.828  0.00  0.00    +0.000 HD
ENDBRANCH   2   4
BRANCH   1  15
ATOM     15  C   UNL     1      50.852   7.986  13.832  0.00  0.00    +0.000 C 
BRANCH  15  16
ATOM     16  C   UNL     1      50.491   8.392  12.382  0.00  0.00    +0.000 C 
BRANCH  16  17
ATOM     17  N   UNL     1      50.764   7.352  11.389  0.00  0.00    +0.000 NA
ATOM     18  H   UNL     1      51.728   7.038  11.499  0.00  0.00    +0.000 HD
ATOM     19  H   UNL     1      50.706   7.743  10.448  0.00  0.00    +0.000 HD
ENDBRANCH  16  17
ENDBRANCH  15  16
ENDBRANCH   1  15
BRANCH   1  20
ATOM     20  C   UNL     1      48.365   7.749  14.275  0.00  0.00    +0.000 C 
BRANCH  20  21
ATOM     21  C   UNL     1      47.587   6.654  13.634  0.00  0.00    +0.000 A 
ATOM     22  C   UNL     1      47.116   6.724  12.345  0.00  0.00    +0.000 A 
ATOM     23  N   UNL     1      46.304   5.788  11.816  0.00  0.00    +0.000 NA
ATOM     24  C   UNL     1      45.976   4.745  12.609  0.00  0.00    +0.000 A 
ATOM     25  N   UNL     1      46.471   4.540  13.843  0.00  0.00    +0.000 NA
ATOM     26  C   UNL     1      47.277   5.501  14.319  0.00  0.00    +0.000 A 
BRANCH  24  27
ATOM     27  C   UNL     1      44.818   3.854  12.192  0.00  0.00    +0.000 C 
BRANCH  27  28
ATOM     28  N   UNL     1      45.147   2.831  11.188  0.00  0.00    +0.000 NA
ATOM     29  H   UNL     1      45.100   1.921  11.648  0.00  0.00    +0.000 HD
BRANCH  28  30
ATOM     30  C   UNL     1      44.270   2.874  10.014  0.00  0.00    +0.000 C 
ATOM     31  C   UNL     1      44.651   1.725   9.065  0.00  0.00    +0.000 C 
ATOM     32  C   UNL     1      45.949   1.996   8.302  0.00  0.00    +0.000 C 
ATOM     33  N   UNL     1      45.893   3.259   7.561  0.00  0.00    +0.000 NA
ATOM     34  C   UNL     1      45.653   4.375   8.479  0.00  0.00    +0.000 C 
ATOM     35  C   UNL     1      44.340   4.202   9.243  0.00  0.00    +0.000 C 
ATOM     36  H   UNL     1      45.133   3.214   6.883  0.00  0.00    +0.000 HD
ENDBRANCH  28  30
ENDBRANCH  27  28
ENDBRANCH  24  27
ENDBRANCH  20  21
ENDBRANCH   1  20
TORSDOF 9
ENDMDL
MODEL 2
REMARK VINA RESULT:    -6.702      3.393      7.853
REMARK INTER + INTRA:         -11.276
REMARK INTER:                  -9.953
REMARK INTRA:                  -1.322
REMARK UNBOUND:                -1.244
REMARK  Name = 
REMARK  9 active torsions:
REMARK  status: ('A' for Active; 'I' for Inactive)
REMARK    1  A    between atoms: N_1  and  C_2
REMARK    2  A    between atoms: C_2  and  C_3
REMARK    3  A    between atoms: C_3  and  N_4
REMARK    4  A    between atoms: N_4  and  C_5
REMARK    5  A    between atoms: C_5  and  C_6
REMARK    6  A    between atoms: C_9  and  C_10
REMARK    7  A    between atoms: C_10  and  N_11
REMARK    8  A    between atoms: N_11  and  C_12
REMARK    9  A    between atoms: C_20  and  C_22
REMARK                            x       y       z     vdW  Elec       q    Type
REMARK                         _______ _______ _______ _____ _____    ______ ____
ROOT
ATOM      1  N   UNL     1      46.659   7.719  12.339  0.00  0.00    +0.000 N 
ATOM      2  C   UNL     1      45.489   7.208  11.746  0.00  0.00    +0.000 C 
ATOM      3  O   UNL     1      44.457   7.880  11.725  0.00  0.00    +0.000 OA
ENDROOT
BRANCH   2   4
ATOM      4  C   UNL     1      45.492   5.943  10.986  0.00  0.00    +0.000 A 
ATOM      5  C   UNL     1      45.797   5.769   9.645  0.00  0.00    +0.000 A 
ATOM      6  S   UNL     1      45.235   4.288   8.996  0.00  0.00    +0.000 S 
ATOM      7  C   UNL     1      44.568   3.837  10.491  0.00  0.00    +0.000 A 
ATOM      8  N   UNL     1      43.783   2.736  10.615  0.00  0.00    +0.000 NA
ATOM      9  C   UNL     1      43.372   2.519  11.821  0.00  0.00    +0.000 A 
ATOM     10  N   UNL     1      43.723   3.265  12.918  0.00  0.00    +0.000 N 
ATOM     11  C   UNL     1      44.593   4.332  12.850  0.00  0.00    +0.000 A 
ATOM     12  O   UNL     1      45.096   4.818  13.856  0.00  0.00    +0.000 OA
ATOM     13  C   UNL     1      44.932   4.713  11.493  0.00  0.00    +0.000 A 
ATOM     14  H   UNL     1      43.475   2.962  13.847  0.00  0.00    +0.000 HD
ENDBRANCH   2   4
BRANCH   1  15
ATOM     15  C   UNL     1      46.696   9.190  12.506  0.00  0.00    +0.000 C 
BRANCH  15  16
ATOM     16  C   UNL     1      47.813   9.939  11.740  0.00  0.00    +0.000 C 
BRANCH  16  17
ATOM     17  N   UNL     1      48.321  11.121  12.437  0.00  0.00    +0.000 NA
ATOM     18  H   UNL     1      48.847  11.692  11.776  0.00  0.00    +0.000 HD
ATOM     19  H   UNL     1      48.991  10.841  13.155  0.00  0.00    +0.000 HD
ENDBRANCH  16  17
ENDBRANCH  15  16
ENDBRANCH   1  15
BRANCH   1  20
ATOM     20  C   UNL     1      47.911   6.965  12.382  0.00  0.00    +0.000 C 
BRANCH  20  21
ATOM     21  C   UNL     1      48.658   6.947  13.669  0.00  0.00    +0.000 A 
ATOM     22  C   UNL     1      49.816   7.660  13.873  0.00  0.00    +0.000 A 
ATOM     23  N   UNL     1      50.554   7.537  14.994  0.00  0.00    +0.000 NA
ATOM     24  C   UNL     1      50.098   6.685  15.937  0.00  0.00    +0.000 A 
ATOM     25  N   UNL     1      48.927   6.028  15.868  0.00  0.00    +0.000 NA
ATOM     26  C   UNL     1      48.230   6.188  14.733  0.00  0.00    +0.000 A 
BRANCH  24  27
ATOM     27  C   UNL     1      51.044   6.261  17.048  0.00  0.00    +0.000 C 
BRANCH  27  28
ATOM     28  N   UNL     1      51.463   4.852  17.007  0.00  0.00    +0.000 NA
ATOM     29  H   UNL     1      52.480   4.835  16.927  0.00  0.00    +0.000 HD
BRANCH  28  30
ATOM     30  C   UNL     1      51.013   4.084  18.172  0.00  0.00    +0.000 C 
ATOM     31  C   UNL     1      52.172   3.197  18.661  0.00  0.00    +0.000 C 
ATOM     32  C   UNL     1      52.409   1.987  17.757  0.00  0.00    +0.000 C 
ATOM     33  N   UNL     1      51.197   1.180  17.594  0.00  0.00    +0.000 NA
ATOM     34  C   UNL     1      50.125   1.991  17.011  0.00  0.00    +0.000 C 
ATOM     35  C   UNL     1      49.791   3.197  17.889  0.00  0.00    +0.000 C 
ATOM     36  H   UNL     1      50.899   0.837  18.506  0.00  0.00    +0.000 HD
ENDBRANCH  28  30
ENDBRANCH  27  28
ENDBRANCH  24  27
ENDBRANCH  20  21
ENDBRANCH   1  20
TORSDOF 9
ENDMDL
MODEL 3
REMARK VINA RESULT:    -6.556      2.331      3.522
REMARK INTER + INTRA:         -11.057
REMARK INTER:                  -9.531
REMARK INTRA:                  -1.527
REMARK UNBOUND:                -1.244
REMARK  Name = 
REMARK  9 active torsions:
REMARK  status: ('A' for Active; 'I' for Inactive)
REMARK    1  A    between atoms: N_1  and  C_2
REMARK    2  A    between atoms: C_2  and  C_3
REMARK    3  A    between atoms: C_3  and  N_4
REMARK    4  A    between atoms: N_4  and  C_5
REMARK    5  A    between atoms: C_5  and  C_6
REMARK    6  A    between atoms: C_9  and  C_10
REMARK    7  A    between atoms: C_10  and  N_11
REMARK    8  A    between atoms: N_11  and  C_12
REMARK    9  A    between atoms: C_20  and  C_22
REMARK                            x       y       z     vdW  Elec       q    Type
REMARK                         _______ _______ _______ _____ _____    ______ ____
ROOT
ATOM      1  N   UNL     1      49.271   7.783  17.196  0.00  0.00    +0.000 N 
ATOM      2  C   UNL     1      49.278   6.956  18.336  0.00  0.00    +0.000 C 
ATOM      3  O   UNL     1      48.695   7.306  19.363  0.00  0.00    +0.000 OA
ENDROOT
BRANCH   2   4
ATOM      4  C   UNL     1      49.824   5.585  18.298  0.00  0.00    +0.000 A 
ATOM      5  C   UNL     1      51.142   5.200  18.493  0.00  0.00    +0.000 A 
ATOM      6  S   UNL     1      51.496   3.631  17.905  0.00  0.00    +0.000 S 
ATOM      7  C   UNL     1      49.897   3.423  17.374  0.00  0.00    +0.000 A 
ATOM      8  N   UNL     1      49.532   2.353  16.622  0.00  0.00    +0.000 NA
ATOM      9  C   UNL     1      48.276   2.329  16.318  0.00  0.00    +0.000 A 
ATOM     10  N   UNL     1      47.346   3.244  16.746  0.00  0.00    +0.000 N 
ATOM     11  C   UNL     1      47.658   4.290  17.587  0.00  0.00    +0.000 A 
ATOM     12  O   UNL     1      46.788   4.933  18.164  0.00  0.00    +0.000 OA
ATOM     13  C   UNL     1      49.081   4.450  17.804  0.00  0.00    +0.000 A 
ATOM     14  H   UNL     1      46.362   3.092  16.582  0.00  0.00    +0.000 HD
ENDBRANCH   2   4
BRANCH   1  15
ATOM     15  C   UNL     1      48.203   8.807  17.164  0.00  0.00    +0.000 C 
BRANCH  15  16
ATOM     16  C   UNL     1      48.669  10.282  17.114  0.00  0.00    +0.000 C 
BRANCH  16  17
ATOM     17  N   UNL     1      48.546  10.899  15.792  0.00  0.00    +0.000 NA
ATOM     18  H   UNL     1      49.030  10.315  15.111  0.00  0.00    +0.000 HD
ATOM     19  H   UNL     1      49.030  11.798  15.780  0.00  0.00    +0.000 HD
ENDBRANCH  16  17
ENDBRANCH  15  16
ENDBRANCH   1  15
BRANCH   1  20
ATOM     20  C   UNL     1      49.939   7.408  15.952  0.00  0.00    +0.000 C 
BRANCH  20  21
ATOM     21  C   UNL     1      49.080   7.150  14.764  0.00  0.00    +0.000 A 
ATOM     22  C   UNL     1      49.037   7.986  13.673  0.00  0.00    +0.000 A 
ATOM     23  N   UNL     1      48.164   7.815  12.662  0.00  0.00    +0.000 NA
ATOM     24  C   UNL     1      47.326   6.760  12.749  0.00  0.00    +0.000 A 
ATOM     25  N   UNL     1      47.366   5.834  13.723  0.00  0.00    +0.000 NA
ATOM     26  C   UNL     1      48.255   6.050  14.703  0.00  0.00    +0.000 A 
BRANCH  24  27
ATOM     27  C   UNL     1      46.120   6.714  11.826  0.00  0.00    +0.000 C 
BRANCH  27  28
ATOM     28  N   UNL     1      45.693   5.366  11.422  0.00  0.00    +0.000 NA
ATOM     29  H   UNL     1      45.932   4.727  12.180  0.00  0.00    +0.000 HD
BRANCH  28  30
ATOM     30  C   UNL     1      44.266   5.288  11.096  0.00  0.00    +0.000 C 
ATOM     31  C   UNL     1      43.501   4.779  12.331  0.00  0.00    +0.000 C 
ATOM     32  C   UNL     1      43.691   3.280  12.564  0.00  0.00    +0.000 C 
ATOM     33  N   UNL     1      43.320   2.491  11.386  0.00  0.00    +0.000 NA
ATOM     34  C   UNL     1      44.135   2.888  10.235  0.00  0.00    +0.000 C 
ATOM     35  C   UNL     1      43.956   4.370   9.903  0.00  0.00    +0.000 C 
ATOM     36  H   UNL     1      42.336   2.654  11.172  0.00  0.00    +0.000 HD
ENDBRANCH  28  30
ENDBRANCH  27  28
ENDBRANCH  24  27
ENDBRANCH  20  21
ENDBRANCH   1  20
TORSDOF 9
ENDMDL
MODEL 4
REMARK VINA RESULT:    -6.553      3.232      8.245
REMARK INTER + INTRA:         -11.053
REMARK INTER:                  -9.623
REMARK INTRA:                  -1.430
REMARK UNBOUND:                -1.244
REMARK  Name = 
REMARK  9 active torsions:
REMARK  status: ('A' for Active; 'I' for Inactive)
REMARK    1  A    between atoms: N_1  and  C_2
REMARK    2  A    between atoms: C_2  and  C_3
REMARK    3  A    between atoms: C_3  and  N_4
REMARK    4  A    between atoms: N_4  and  C_5
REMARK    5  A    between atoms: C_5  and  C_6
REMARK    6  A    between atoms: C_9  and  C_10
REMARK    7  A    between atoms: C_10  and  N_11
REMARK    8  A    between atoms: N_11  and  C_12
REMARK    9  A    between atoms: C_20  and  C_22
REMARK                            x       y       z     vdW  Elec       q    Type
REMARK                         _______ _______ _______ _____ _____    ______ ____
ROOT
ATOM      1  N   UNL     1      46.444   7.359  11.862  0.00  0.00    +0.000 N 
ATOM      2  C   UNL     1      45.297   6.787  11.279  0.00  0.00    +0.000 C 
ATOM      3  O   UNL     1      44.259   7.441  11.176  0.00  0.00    +0.000 OA
ENDROOT
BRANCH   2   4
ATOM      4  C   UNL     1      45.337   5.465  10.622  0.00  0.00    +0.000 A 
ATOM      5  C   UNL     1      45.642   5.194   9.297  0.00  0.00    +0.000 A 
ATOM      6  S   UNL     1      45.123   3.649   8.773  0.00  0.00    +0.000 S 
ATOM      7  C   UNL     1      44.478   3.299  10.304  0.00  0.00    +0.000 A 
ATOM      8  N   UNL     1      43.728   2.188  10.521  0.00  0.00    +0.000 NA
ATOM      9  C   UNL     1      43.330   2.055  11.743  0.00  0.00    +0.000 A 
ATOM     10  N   UNL     1      43.662   2.897  12.775  0.00  0.00    +0.000 N 
ATOM     11  C   UNL     1      44.497   3.982  12.615  0.00  0.00    +0.000 A 
ATOM     12  O   UNL     1      44.988   4.562  13.576  0.00  0.00    +0.000 OA
ATOM     13  C   UNL     1      44.818   4.263  11.231  0.00  0.00    +0.000 A 
ATOM     14  H   UNL     1      43.427   2.662  13.727  0.00  0.00    +0.000 HD
ENDBRANCH   2   4
BRANCH   1  15
ATOM     15  C   UNL     1      46.458   8.838  11.911  0.00  0.00    +0.000 C 
BRANCH  15  16
ATOM     16  C   UNL     1      45.681   9.494  13.079  0.00  0.00    +0.000 C 
BRANCH  16  17
ATOM     17  N   UNL     1      44.360   9.999  12.702  0.00  0.00    +0.000 NA
ATOM     18  H   UNL     1      43.688   9.234  12.759  0.00  0.00    +0.000 HD
ATOM     19  H   UNL     1      44.364  10.292  11.725  0.00  0.00    +0.000 HD
ENDBRANCH  16  17
ENDBRANCH  15  16
ENDBRANCH   1  15
BRANCH   1  20
ATOM     20  C   UNL     1      47.702   6.628  11.999  0.00  0.00    +0.000 C 
BRANCH  20  21
ATOM     21  C   UNL     1      48.464   6.807  13.265  0.00  0.00    +0.000 A 
ATOM     22  C   UNL     1      49.664   7.475  13.329  0.00  0.00    +0.000 A 
ATOM     23  N   UNL     1      50.410   7.521  14.450  0.00  0.00    +0.000 NA
ATOM     24  C   UNL     1      49.919   6.890  15.538  0.00  0.00    +0.000 A 
ATOM     25  N   UNL     1      48.711   6.301  15.597  0.00  0.00    +0.000 NA
ATOM     26  C   UNL     1      48.009   6.287  14.455  0.00  0.00    +0.000 A 
BRANCH  24  27
ATOM     27  C   UNL     1      50.854   6.625  16.706  0.00  0.00    +0.000 C 
BRANCH  27  28
ATOM     28  N   UNL     1      50.194   6.214  17.954  0.00  0.00    +0.000 NA
ATOM     29  H   UNL     1      49.191   6.173  17.773  0.00  0.00    +0.000 HD
BRANCH  28  30
ATOM     30  C   UNL     1      50.689   4.935  18.472  0.00  0.00    +0.000 C 
ATOM     31  C   UNL     1      49.845   3.795  17.875  0.00  0.00    +0.000 C 
ATOM     32  C   UNL     1      48.457   3.696  18.511  0.00  0.00    +0.000 C 
ATOM     33  N   UNL     1      48.532   3.553  19.967  0.00  0.00    +0.000 NA
ATOM     34  C   UNL     1      49.228   4.701  20.553  0.00  0.00    +0.000 C 
ATOM     35  C   UNL     1      50.650   4.835  20.005  0.00  0.00    +0.000 C 
ATOM     36  H   UNL     1      49.043   2.700  20.193  0.00  0.00    +0.000 HD
ENDBRANCH  28  30
ENDBRANCH  27  28
ENDBRANCH  24  27
ENDBRANCH  20  21
ENDBRANCH   1  20
TORSDOF 9
ENDMDL
MODEL 5
REMARK VINA RESULT:    -6.459      2.336      4.173
REMARK INTER + INTRA:         -10.912
REMARK INTER:                  -9.453
REMARK INTRA:                  -1.459
REMARK UNBOUND:                -1.244
REMARK  Name = 
REMARK  9 active torsions:
REMARK  status: ('A' for Active; 'I' for Inactive)
REMARK    1  A    between atoms: N_1  and  C_2
REMARK    2  A    between atoms: C_2  and  C_3
REMARK    3  A    between atoms: C_3  and  N_4
REMARK    4  A    between atoms: N_4  and  C_5
REMARK    5  A    between atoms: C_5  and  C_6
REMARK    6  A    between atoms: C_9  and  C_10
REMARK    7  A    between atoms: C_10  and  N_11
REMARK    8  A    between atoms: N_11  and  C_12
REMARK    9  A    between atoms: C_20  and  C_22
REMARK                            x       y       z     vdW  Elec       q    Type
REMARK                         _______ _______ _______ _____ _____    ______ ____
ROOT
ATOM      1  N   UNL     1      49.721   4.346  18.412  0.00  0.00    +0.000 N 
ATOM      2  C   UNL     1      50.318   5.182  19.374  0.00  0.00    +0.000 C 
ATOM      3  O   UNL     1      51.507   5.044  19.667  0.00  0.00    +0.000 OA
ENDROOT
BRANCH   2   4
ATOM      4  C   UNL     1      49.611   6.350  19.936  0.00  0.00    +0.000 A 
ATOM      5  C   UNL     1      48.794   6.377  21.056  0.00  0.00    +0.000 A 
ATOM      6  S   UNL     1      47.773   7.749  21.130  0.00  0.00    +0.000 S 
ATOM      7  C   UNL     1      48.395   8.345  19.668  0.00  0.00    +0.000 A 
ATOM      8  N   UNL     1      47.845   9.421  19.048  0.00  0.00    +0.000 NA
ATOM      9  C   UNL     1      48.448   9.761  17.956  0.00  0.00    +0.000 A 
ATOM     10  N   UNL     1      49.580   9.162  17.463  0.00  0.00    +0.000 N 
ATOM     11  C   UNL     1      50.223   8.129  18.110  0.00  0.00    +0.000 A 
ATOM     12  O   UNL     1      51.358   7.785  17.803  0.00  0.00    +0.000 OA
ATOM     13  C   UNL     1      49.480   7.607  19.239  0.00  0.00    +0.000 A 
ATOM     14  H   UNL     1      50.074   9.562  16.680  0.00  0.00    +0.000 HD
ENDBRANCH   2   4
BRANCH   1  15
ATOM     15  C   UNL     1      50.661   3.651  17.504  0.00  0.00    +0.000 C 
BRANCH  15  16
ATOM     16  C   UNL     1      50.489   2.118  17.381  0.00  0.00    +0.000 C 
BRANCH  16  17
ATOM     17  N   UNL     1      49.931   1.684  16.099  0.00  0.00    +0.000 NA
ATOM     18  H   UNL     1      50.692   1.583  15.427  0.00  0.00    +0.000 HD
ATOM     19  H   UNL     1      49.323   2.411  15.719  0.00  0.00    +0.000 HD
ENDBRANCH  16  17
ENDBRANCH  15  16
ENDBRANCH   1  15
BRANCH   1  20
ATOM     20  C   UNL     1      48.318   4.475  18.023  0.00  0.00    +0.000 C 
BRANCH  20  21
ATOM     21  C   UNL     1      48.028   4.805  16.601  0.00  0.00    +0.000 A 
ATOM     22  C   UNL     1      48.567   5.895  15.959  0.00  0.00    +0.000 A 
ATOM     23  N   UNL     1      48.201   6.259  14.715  0.00  0.00    +0.000 NA
ATOM     24  C   UNL     1      47.278   5.490  14.100  0.00  0.00    +0.000 A 
ATOM     25  N   UNL     1      46.774   4.350  14.607  0.00  0.00    +0.000 NA
ATOM     26  C   UNL     1      47.175   4.032  15.847  0.00  0.00    +0.000 A 
BRANCH  24  27
ATOM     27  C   UNL     1      46.591   6.034  12.858  0.00  0.00    +0.000 C 
BRANCH  27  28
ATOM     28  N   UNL     1      45.989   5.019  11.981  0.00  0.00    +0.000 NA
ATOM     29  H   UNL     1      46.030   4.125  12.472  0.00  0.00    +0.000 HD
BRANCH  28  30
ATOM     30  C   UNL     1      44.613   5.342  11.588  0.00  0.00    +0.000 C 
ATOM     31  C   UNL     1      43.655   4.876  12.699  0.00  0.00    +0.000 C 
ATOM     32  C   UNL     1      43.463   3.359  12.712  0.00  0.00    +0.000 C 
ATOM     33  N   UNL     1      43.006   2.855  11.414  0.00  0.00    +0.000 NA
ATOM     34  C   UNL     1      43.980   3.189  10.371  0.00  0.00    +0.000 C 
ATOM     35  C   UNL     1      44.187   4.699  10.259  0.00  0.00    +0.000 C 
ATOM     36  H   UNL     1      42.110   3.283  11.186  0.00  0.00    +0.000 HD
ENDBRANCH  28  30
ENDBRANCH  27  28
ENDBRANCH  24  27
ENDBRANCH  20  21
ENDBRANCH   1  20
TORSDOF 9
ENDMDL
MODEL 6
REMARK VINA RESULT:    -6.218      3.080      7.929
REMARK INTER + INTRA:         -10.551
REMARK INTER:                  -9.132
REMARK INTRA:                  -1.419
REMARK UNBOUND:                -1.244
REMARK  Name = 
REMARK  9 active torsions:
REMARK  status: ('A' for Active; 'I' for Inactive)
REMARK    1  A    between atoms: N_1  and  C_2
REMARK    2  A    between atoms: C_2  and  C_3
REMARK    3  A    between atoms: C_3  and  N_4
REMARK    4  A    between atoms: N_4  and  C_5
REMARK    5  A    between atoms: C_5  and  C_6
REMARK    6  A    between atoms: C_9  and  C_10
REMARK    7  A    between atoms: C_10  and  N_11
REMARK    8  A    between atoms: N_11  and  C_12
REMARK    9  A    between atoms: C_20  and  C_22
REMARK                            x       y       z     vdW  Elec       q    Type
REMARK                         _______ _______ _______ _____ _____    ______ ____
ROOT
ATOM      1  N   UNL     1      45.601   4.928  12.053  0.00  0.00    +0.000 N 
ATOM      2  C   UNL     1      46.001   6.009  11.245  0.00  0.00    +0.000 C 
ATOM      3  O   UNL     1      46.112   5.869  10.027  0.00  0.00    +0.000 OA
ENDROOT
BRANCH   2   4
ATOM      4  C   UNL     1      46.135   7.376  11.787  0.00  0.00    +0.000 A 
ATOM      5  C   UNL     1      45.152   8.350  11.863  0.00  0.00    +0.000 A 
ATOM      6  S   UNL     1      45.766   9.933  12.085  0.00  0.00    +0.000 S 
ATOM      7  C   UNL     1      47.364   9.359  12.088  0.00  0.00    +0.000 A 
ATOM      8  N   UNL     1      48.423  10.209  12.075  0.00  0.00    +0.000 NA
ATOM      9  C   UNL     1      49.571   9.615  12.100  0.00  0.00    +0.000 A 
ATOM     10  N   UNL     1      49.753   8.258  12.197  0.00  0.00    +0.000 N 
ATOM     11  C   UNL     1      48.706   7.369  12.307  0.00  0.00    +0.000 A 
ATOM     12  O   UNL     1      48.883   6.206  12.651  0.00  0.00    +0.000 OA
ATOM     13  C   UNL     1      47.408   7.980  12.105  0.00  0.00    +0.000 A 
ATOM     14  H   UNL     1      50.672   7.872  12.346  0.00  0.00    +0.000 HD
ENDBRANCH   2   4
BRANCH   1  15
ATOM     15  C   UNL     1      44.919   3.823  11.341  0.00  0.00    +0.000 C 
BRANCH  15  16
ATOM     16  C   UNL     1      43.429   3.596  11.694  0.00  0.00    +0.000 C 
BRANCH  16  17
ATOM     17  N   UNL     1      43.036   2.186  11.729  0.00  0.00    +0.000 NA
ATOM     18  H   UNL     1      42.023   2.126  11.631  0.00  0.00    +0.000 HD
ATOM     19  H   UNL     1      43.251   1.787  12.644  0.00  0.00    +0.000 HD
ENDBRANCH  16  17
ENDBRANCH  15  16
ENDBRANCH   1  15
BRANCH   1  20
ATOM     20  C   UNL     1      45.446   5.046  13.501  0.00  0.00    +0.000 C 
BRANCH  20  21
ATOM     21  C   UNL     1      46.553   4.534  14.353  0.00  0.00    +0.000 A 
ATOM     22  C   UNL     1      47.033   3.249  14.267  0.00  0.00    +0.000 A 
ATOM     23  N   UNL     1      47.945   2.755  15.127  0.00  0.00    +0.000 NA
ATOM     24  C   UNL     1      48.394   3.590  16.089  0.00  0.00    +0.000 A 
ATOM     25  N   UNL     1      48.059   4.890  16.186  0.00  0.00    +0.000 NA
ATOM     26  C   UNL     1      47.152   5.330  15.303  0.00  0.00    +0.000 A 
BRANCH  24  27
ATOM     27  C   UNL     1      49.150   3.000  17.267  0.00  0.00    +0.000 C 
BRANCH  27  28
ATOM     28  N   UNL     1      50.606   3.206  17.242  0.00  0.00    +0.000 NA
ATOM     29  H   UNL     1      50.845   3.601  16.332  0.00  0.00    +0.000 HD
BRANCH  28  30
ATOM     30  C   UNL     1      51.084   4.063  18.331  0.00  0.00    +0.000 C 
ATOM     31  C   UNL     1      51.056   5.528  17.861  0.00  0.00    +0.000 C 
ATOM     32  C   UNL     1      52.193   5.857  16.892  0.00  0.00    +0.000 C 
ATOM     33  N   UNL     1      53.505   5.539  17.461  0.00  0.00    +0.000 NA
ATOM     34  C   UNL     1      53.580   4.114  17.795  0.00  0.00    +0.000 C 
ATOM     35  C   UNL     1      52.504   3.718  18.807  0.00  0.00    +0.000 C 
ATOM     36  H   UNL     1      53.645   6.089  18.307  0.00  0.00    +0.000 HD
ENDBRANCH  28  30
ENDBRANCH  27  28
ENDBRANCH  24  27
ENDBRANCH  20  21
ENDBRANCH   1  20
TORSDOF 9
ENDMDL
MODEL 7
REMARK VINA RESULT:    -6.028      3.509      8.295
REMARK INTER + INTRA:         -10.267
REMARK INTER:                  -9.308
REMARK INTRA:                  -0.959
REMARK UNBOUND:                -1.244
REMARK  Name = 
REMARK  9 active torsions:
REMARK  status: ('A' for Active; 'I' for Inactive)
REMARK    1  A    between atoms: N_1  and  C_2
REMARK    2  A    between atoms: C_2  and  C_3
REMARK    3  A    between atoms: C_3  and  N_4
REMARK    4  A    between atoms: N_4  and  C_5
REMARK    5  A    between atoms: C_5  and  C_6
REMARK    6  A    between atoms: C_9  and  C_10
REMARK    7  A    between atoms: C_10  and  N_11
REMARK    8  A    between atoms: N_11  and  C_12
REMARK    9  A    between atoms: C_20  and  C_22
REMARK                            x       y       z     vdW  Elec       q    Type
REMARK                         _______ _______ _______ _____ _____    ______ ____
ROOT
ATOM      1  N   UNL     1      46.274   7.348  12.445  0.00  0.00    +0.000 N 
ATOM      2  C   UNL     1      45.202   6.846  11.683  0.00  0.00    +0.000 C 
ATOM      3  O   UNL     1      44.161   7.494  11.571  0.00  0.00    +0.000 OA
ENDROOT
BRANCH   2   4
ATOM      4  C   UNL     1      45.337   5.628  10.860  0.00  0.00    +0.000 A 
ATOM      5  C   UNL     1      45.738   5.549   9.536  0.00  0.00    +0.000 A 
ATOM      6  S   UNL     1      45.317   4.075   8.774  0.00  0.00    +0.000 S 
ATOM      7  C   UNL     1      44.587   3.500  10.195  0.00  0.00    +0.000 A 
ATOM      8  N   UNL     1      43.868   2.348  10.208  0.00  0.00    +0.000 NA
ATOM      9  C   UNL     1      43.396   2.038  11.370  0.00  0.00    +0.000 A 
ATOM     10  N   UNL     1      43.626   2.742  12.526  0.00  0.00    +0.000 N 
ATOM     11  C   UNL     1      44.426   3.863  12.572  0.00  0.00    +0.000 A 
ATOM     12  O   UNL     1      44.831   4.321  13.635  0.00  0.00    +0.000 OA
ATOM     13  C   UNL     1      44.826   4.339  11.264  0.00  0.00    +0.000 A 
ATOM     14  H   UNL     1      43.339   2.372  13.419  0.00  0.00    +0.000 HD
ENDBRANCH   2   4
BRANCH   1  15
ATOM     15  C   UNL     1      46.246   8.807  12.696  0.00  0.00    +0.000 C 
BRANCH  15  16
ATOM     16  C   UNL     1      47.568   9.571  12.446  0.00  0.00    +0.000 C 
BRANCH  16  17
ATOM     17  N   UNL     1      48.050  10.319  13.609  0.00  0.00    +0.000 NA
ATOM     18  H   UNL     1      49.042  10.122  13.738  0.00  0.00    +0.000 HD
ATOM     19  H   UNL     1      47.589   9.983  14.456  0.00  0.00    +0.000 HD
ENDBRANCH  16  17
ENDBRANCH  15  16
ENDBRANCH   1  15
BRANCH   1  20
ATOM     20  C   UNL     1      47.533   6.622  12.601  0.00  0.00    +0.000 C 
BRANCH  20  21
ATOM     21  C   UNL     1      47.921   6.210  13.977  0.00  0.00    +0.000 A 
ATOM     22  C   UNL     1      48.880   6.865  14.714  0.00  0.00    +0.000 A 
ATOM     23  N   UNL     1      49.317   6.411  15.904  0.00  0.00    +0.000 NA
ATOM     24  C   UNL     1      48.756   5.273  16.368  0.00  0.00    +0.000 A 
ATOM     25  N   UNL     1      47.743   4.623  15.767  0.00  0.00    +0.000 NA
ATOM     26  C   UNL     1      47.344   5.120  14.588  0.00  0.00    +0.000 A 
BRANCH  24  27
ATOM     27  C   UNL     1      49.435   4.546  17.516  0.00  0.00    +0.000 C 
BRANCH  27  28
ATOM     28  N   UNL     1      50.781   4.031  17.221  0.00  0.00    +0.000 NA
ATOM     29  H   UNL     1      51.181   4.617  16.487  0.00  0.00    +0.000 HD
BRANCH  28  30
ATOM     30  C   UNL     1      51.653   3.993  18.399  0.00  0.00    +0.000 C 
ATOM     31  C   UNL     1      51.549   5.338  19.140  0.00  0.00    +0.000 C 
ATOM     32  C   UNL     1      52.299   6.463  18.426  0.00  0.00    +0.000 C 
ATOM     33  N   UNL     1      53.707   6.124  18.200  0.00  0.00    +0.000 NA
ATOM     34  C   UNL     1      53.811   4.909  17.388  0.00  0.00    +0.000 C 
ATOM     35  C   UNL     1      53.128   3.720  18.065  0.00  0.00    +0.000 C 
ATOM     36  H   UNL     1      54.160   5.966  19.099  0.00  0.00    +0.000 HD
ENDBRANCH  28  30
ENDBRANCH  27  28
ENDBRANCH  24  27
ENDBRANCH  20  21
ENDBRANCH   1  20
TORSDOF 9
ENDMDL
MODEL 8
REMARK VINA RESULT:    -5.946      3.350      8.466
REMARK INTER + INTRA:         -10.145
REMARK INTER:                  -8.740
REMARK INTRA:                  -1.404
REMARK UNBOUND:                -1.244
REMARK  Name = 
REMARK  9 active torsions:
REMARK  status: ('A' for Active; 'I' for Inactive)
REMARK    1  A    between atoms: N_1  and  C_2
REMARK    2  A    between atoms: C_2  and  C_3
REMARK    3  A    between atoms: C_3  and  N_4
REMARK    4  A    between atoms: N_4  and  C_5
REMARK    5  A    between atoms: C_5  and  C_6
REMARK    6  A    between atoms: C_9  and  C_10
REMARK    7  A    between atoms: C_10  and  N_11
REMARK    8  A    between atoms: N_11  and  C_12
REMARK    9  A    between atoms: C_20  and  C_22
REMARK                            x       y       z     vdW  Elec       q    Type
REMARK                         _______ _______ _______ _____ _____    ______ ____
ROOT
ATOM      1  N   UNL     1      46.750   6.541  12.402  0.00  0.00    +0.000 N 
ATOM      2  C   UNL     1      45.443   6.596  11.883  0.00  0.00    +0.000 C 
ATOM      3  O   UNL     1      44.983   7.660  11.465  0.00  0.00    +0.000 OA
ENDROOT
BRANCH   2   4
ATOM      4  C   UNL     1      44.643   5.375  11.661  0.00  0.00    +0.000 A 
ATOM      5  C   UNL     1      43.790   4.755  12.560  0.00  0.00    +0.000 A 
ATOM      6  S   UNL     1      43.419   3.134  12.152  0.00  0.00    +0.000 S 
ATOM      7  C   UNL     1      44.387   3.218  10.760  0.00  0.00    +0.000 A 
ATOM      8  N   UNL     1      44.657   2.115  10.015  0.00  0.00    +0.000 NA
ATOM      9  C   UNL     1      45.390   2.350   8.977  0.00  0.00    +0.000 A 
ATOM     10  N   UNL     1      45.827   3.592   8.587  0.00  0.00    +0.000 N 
ATOM     11  C   UNL     1      45.497   4.747   9.263  0.00  0.00    +0.000 A 
ATOM     12  O   UNL     1      45.668   5.854   8.766  0.00  0.00    +0.000 OA
ATOM     13  C   UNL     1      44.827   4.505  10.524  0.00  0.00    +0.000 A 
ATOM     14  H   UNL     1      46.282   3.720   7.697  0.00  0.00    +0.000 HD
ENDBRANCH   2   4
BRANCH   1  15
ATOM     15  C   UNL     1      47.636   7.660  12.009  0.00  0.00    +0.000 C 
BRANCH  15  16
ATOM     16  C   UNL     1      47.677   8.873  12.970  0.00  0.00    +0.000 C 
BRANCH  16  17
ATOM     17  N   UNL     1      46.646   8.843  14.008  0.00  0.00    +0.000 NA
ATOM     18  H   UNL     1      46.226   9.770  14.081  0.00  0.00    +0.000 HD
ATOM     19  H   UNL     1      47.071   8.660  14.918  0.00  0.00    +0.000 HD
ENDBRANCH  16  17
ENDBRANCH  15  16
ENDBRANCH   1  15
BRANCH   1  20
ATOM     20  C   UNL     1      47.344   5.303  12.902  0.00  0.00    +0.000 C 
BRANCH  20  21
ATOM     21  C   UNL     1      47.486   5.157  14.376  0.00  0.00    +0.000 A 
ATOM     22  C   UNL     1      48.285   5.978  15.137  0.00  0.00    +0.000 A 
ATOM     23  N   UNL     1      48.509   5.760  16.448  0.00  0.00    +0.000 NA
ATOM     24  C   UNL     1      47.896   4.694  17.004  0.00  0.00    +0.000 A 
ATOM     25  N   UNL     1      47.019   3.899  16.365  0.00  0.00    +0.000 NA
ATOM     26  C   UNL     1      46.829   4.163  15.064  0.00  0.00    +0.000 A 
BRANCH  24  27
ATOM     27  C   UNL     1      48.371   4.212  18.365  0.00  0.00    +0.000 C 
BRANCH  27  28
ATOM     28  N   UNL     1      49.347   5.087  19.031  0.00  0.00    +0.000 NA
ATOM     29  H   UNL     1      48.936   5.393  19.914  0.00  0.00    +0.000 HD
BRANCH  28  30
ATOM     30  C   UNL     1      50.644   4.440  19.250  0.00  0.00    +0.000 C 
ATOM     31  C   UNL     1      51.479   5.309  20.208  0.00  0.00    +0.000 C 
ATOM     32  C   UNL     1      52.040   6.560  19.530  0.00  0.00    +0.000 C 
ATOM     33  N   UNL     1      52.828   6.229  18.339  0.00  0.00    +0.000 NA
ATOM     34  C   UNL     1      52.000   5.509  17.369  0.00  0.00    +0.000 C 
ATOM     35  C   UNL     1      51.444   4.212  17.958  0.00  0.00    +0.000 C 
ATOM     36  H   UNL     1      53.614   5.640  18.612  0.00  0.00    +0.000 HD
ENDBRANCH  28  30
ENDBRANCH  27  28
ENDBRANCH  24  27
ENDBRANCH  20  21
ENDBRANCH   1  20
TORSDOF 9
ENDMDL
MODEL 9
REMARK VINA RESULT:    -5.855      3.265      5.367
REMARK INTER + INTRA:         -10.008
REMARK INTER:                  -8.867
REMARK INTRA:                  -1.140
REMARK UNBOUND:                -1.244
REMARK  Name = 
REMARK  9 active torsions:
REMARK  status: ('A' for Active; 'I' for Inactive)
REMARK    1  A    between atoms: N_1  and  C_2
REMARK    2  A    between atoms: C_2  and  C_3
REMARK    3  A    between atoms: C_3  and  N_4
REMARK    4  A    between atoms: N_4  and  C_5
REMARK    5  A    between atoms: C_5  and  C_6
REMARK    6  A    between atoms: C_9  and  C_10
REMARK    7  A    between atoms: C_10  and  N_11
REMARK    8  A    between atoms: N_11  and  C_12
REMARK    9  A    between atoms: C_20  and  C_22
REMARK                            x       y       z     vdW  Elec       q    Type
REMARK                         _______ _______ _______ _____ _____    ______ ____
ROOT
ATOM      1  N   UNL     1      50.059   4.548  19.143  0.00  0.00    +0.000 N 
ATOM      2  C   UNL     1      51.397   4.938  19.346  0.00  0.00    +0.000 C 
ATOM      3  O   UNL     1      51.679   5.763  20.215  0.00  0.00    +0.000 OA
ENDROOT
BRANCH   2   4
ATOM      4  C   UNL     1      52.516   4.263  18.660  0.00  0.00    +0.000 A 
ATOM      5  C   UNL     1      53.174   3.110  19.060  0.00  0.00    +0.000 A 
ATOM      6  S   UNL     1      54.700   2.893  18.315  0.00  0.00    +0.000 S 
ATOM      7  C   UNL     1      54.523   4.334  17.435  0.00  0.00    +0.000 A 
ATOM      8  N   UNL     1      55.544   4.850  16.704  0.00  0.00    +0.000 NA
ATOM      9  C   UNL     1      55.242   5.939  16.077  0.00  0.00    +0.000 A 
ATOM     10  N   UNL     1      54.000   6.522  16.067  0.00  0.00    +0.000 N 
ATOM     11  C   UNL     1      52.913   5.979  16.718  0.00  0.00    +0.000 A 
ATOM     12  O   UNL     1      51.771   6.358  16.489  0.00  0.00    +0.000 OA
ATOM     13  C   UNL     1      53.254   4.860  17.573  0.00  0.00    +0.000 A 
ATOM     14  H   UNL     1      53.799   7.295  15.450  0.00  0.00    +0.000 HD
ENDBRANCH   2   4
BRANCH   1  15
ATOM     15  C   UNL     1      49.141   4.822  20.271  0.00  0.00    +0.000 C 
BRANCH  15  16
ATOM     16  C   UNL     1      48.129   5.975  20.067  0.00  0.00    +0.000 C 
BRANCH  16  17
ATOM     17  N   UNL     1      46.852   5.550  19.492  0.00  0.00    +0.000 NA
ATOM     18  H   UNL     1      47.037   4.926  18.707  0.00  0.00    +0.000 HD
ATOM     19  H   UNL     1      46.362   6.354  19.097  0.00  0.00    +0.000 HD
ENDBRANCH  16  17
ENDBRANCH  15  16
ENDBRANCH   1  15
BRANCH   1  20
ATOM     20  C   UNL     1      49.674   3.566  18.131  0.00  0.00    +0.000 C 
BRANCH  20  21
ATOM     21  C   UNL     1      48.721   4.006  17.076  0.00  0.00    +0.000 A 
ATOM     22  C   UNL     1      47.646   3.249  16.674  0.00  0.00    +0.000 A 
ATOM     23  N   UNL     1      46.865   3.594  15.632  0.00  0.00    +0.000 NA
ATOM     24  C   UNL     1      47.170   4.744  14.993  0.00  0.00    +0.000 A 
ATOM     25  N   UNL     1      48.136   5.597  15.379  0.00  0.00    +0.000 NA
ATOM     26  C   UNL     1      48.880   5.207  16.424  0.00  0.00    +0.000 A 
BRANCH  24  27
ATOM     27  C   UNL     1      46.548   5.004  13.631  0.00  0.00    +0.000 C 
BRANCH  27  28
ATOM     28  N   UNL     1      45.694   3.922  13.118  0.00  0.00    +0.000 NA
ATOM     29  H   UNL     1      45.848   3.102  13.706  0.00  0.00    +0.000 HD
BRANCH  28  30
ATOM     30  C   UNL     1      44.273   4.281  13.075  0.00  0.00    +0.000 C 
ATOM     31  C   UNL     1      43.545   3.319  12.120  0.00  0.00    +0.000 C 
ATOM     32  C   UNL     1      43.829   3.625  10.648  0.00  0.00    +0.000 C 
ATOM     33  N   UNL     1      43.503   5.012  10.306  0.00  0.00    +0.000 NA
ATOM     34  C   UNL     1      44.289   5.934  11.130  0.00  0.00    +0.000 C 
ATOM     35  C   UNL     1      44.017   5.726  12.620  0.00  0.00    +0.000 C 
ATOM     36  H   UNL     1      42.511   5.174  10.475  0.00  0.00    +0.000 HD
ENDBRANCH  28  30
ENDBRANCH  27  28
ENDBRANCH  24  27
ENDBRANCH  20  21
ENDBRANCH   1  20
TORSDOF 9
ENDMDL
