MODEL 1
REMARK VINA RESULT:    -8.368      0.000      0.000
REMARK INTER + INTRA:         -10.969
REMARK INTER:                 -10.813
REMARK INTRA:                  -0.155
REMARK UNBOUND:                -0.155
REMARK  Name = 
REMARK  6 active torsions:
REMARK  status: ('A' for Active; 'I' for Inactive)
REMARK    1  A    between atoms: C_1  and  N_2
REMARK    2  A    between atoms: C_8  and  C_9
REMARK    3  A    between atoms: N_11  and  C_12
REMARK    4  A    between atoms: C_12  and  C_13
REMARK    5  A    between atoms: C_16  and  C_17
REMARK    6  A    between atoms: C_17  and  C_18
REMARK                            x       y       z     vdW  Elec       q    Type
REMARK                         _______ _______ _______ _____ _____    ______ ____
ROOT
ATOM      1  C   UNL     1      47.394   6.768  13.240  0.00  0.00    +0.000 C 
ATOM      2  O   UNL     1      47.777   6.873  12.077  0.00  0.00    +0.000 OA
ATOM      3  N   UNL     1      46.075   6.578  13.565  0.00  0.00    +0.000 N 
ATOM      4  H   UNL     1      45.788   6.723  14.526  0.00  0.00    +0.000 HD
ENDROOT
BRANCH   1  12
ATOM      5  C   UNL     1      47.334   2.914  17.437  0.00  0.00    +0.000 C 
ATOM      6  N   UNL     1      48.078   4.082  17.020  0.00  0.00    +0.000 N 
ATOM      7  C   UNL     1      49.163   4.528  17.746  0.00  0.00    +0.000 A 
ATOM      8  N   UNL     1      49.889   5.558  17.455  0.00  0.00    +0.000 NA
ATOM      9  C   UNL     1      49.505   6.219  16.328  0.00  0.00    +0.000 A 
ATOM     10  S   UNL     1      50.326   7.614  15.807  0.00  0.00    +0.000 S 
ATOM     11  C   UNL     1      49.285   7.793  14.466  0.00  0.00    +0.000 A 
ATOM     12  C   UNL     1      48.337   6.785  14.365  0.00  0.00    +0.000 A 
ATOM     13  C   UNL     1      48.462   5.886  15.491  0.00  0.00    +0.000 A 
ATOM     14  C   UNL     1      47.664   4.729  15.861  0.00  0.00    +0.000 A 
ATOM     15  O   UNL     1      46.712   4.343  15.191  0.00  0.00    +0.000 OA
ENDBRANCH   1  12
BRANCH   3  16
ATOM     16  C   UNL     1      45.033   6.679  12.576  0.00  0.00    +0.000 C 
BRANCH  16  17
ATOM     17  C   UNL     1      45.023   5.466  11.679  0.00  0.00    +0.000 A 
ATOM     18  C   UNL     1      45.087   5.614  10.287  0.00  0.00    +0.000 A 
ATOM     19  C   UNL     1      45.075   4.496   9.448  0.00  0.00    +0.000 A 
ATOM     20  C   UNL     1      44.997   3.203   9.985  0.00  0.00    +0.000 A 
ATOM     21  C   UNL     1      44.904   3.057  11.375  0.00  0.00    +0.000 A 
ATOM     22  C   UNL     1      44.903   4.177  12.213  0.00  0.00    +0.000 A 
BRANCH  20  23
ATOM     23  C   UNL     1      45.011   1.989   9.083  0.00  0.00    +0.000 C 
BRANCH  23  24
ATOM     24  C   UNL     1      45.959   2.061   7.910  0.00  0.00    +0.000 A 
ATOM     25  C   UNL     1      46.935   1.088   7.706  0.00  0.00    +0.000 A 
ATOM     26  N   UNL     1      47.867   1.165   6.723  0.00  0.00    +0.000 NA
ATOM     27  C   UNL     1      47.784   2.259   5.937  0.00  0.00    +0.000 A 
ATOM     28  C   UNL     1      46.817   3.230   6.122  0.00  0.00    +0.000 A 
ATOM     29  N   UNL     1      45.891   3.158   7.108  0.00  0.00    +0.000 NA
ENDBRANCH  23  24
ENDBRANCH  20  23
ENDBRANCH  16  17
ENDBRANCH   3  16
TORSDOF 5
ENDMDL
MODEL 2
REMARK VINA RESULT:    -8.338      1.947      2.558
REMARK INTER + INTRA:         -10.930
REMARK INTER:                 -10.328
REMARK INTRA:                  -0.603
REMARK UNBOUND:                -0.155
REMARK  Name = 
REMARK  6 active torsions:
REMARK  status: ('A' for Active; 'I' for Inactive)
REMARK    1  A    between atoms: C_1  and  N_2
REMARK    2  A    between atoms: C_8  and  C_9
REMARK    3  A    between atoms: N_11  and  C_12
REMARK    4  A    between atoms: C_12  and  C_13
REMARK    5  A    between atoms: C_16  and  C_17
REMARK    6  A    between atoms: C_17  and  C_18
REMARK                            x       y       z     vdW  Elec       q    Type
REMARK                         _______ _______ _______ _____ _____    ______ ____
ROOT
ATOM      1  C   UNL     1      47.693   5.502  14.794  0.00  0.00    +0.000 C 
ATOM      2  O   UNL     1      48.645   5.973  14.177  0.00  0.00    +0.000 OA
ATOM      3  N   UNL     1      46.412   5.538  14.307  0.00  0.00    +0.000 N 
ATOM      4  H   UNL     1      45.647   5.343  14.943  0.00  0.00    +0.000 HD
ENDROOT
BRANCH   1  12
ATOM      5  C   UNL     1      49.285   8.169  19.571  0.00  0.00    +0.000 C 
ATOM      6  N   UNL     1      48.928   6.846  19.111  0.00  0.00    +0.000 N 
ATOM      7  C   UNL     1      48.890   5.778  19.985  0.00  0.00    +0.000 A 
ATOM      8  N   UNL     1      48.583   4.561  19.670  0.00  0.00    +0.000 NA
ATOM      9  C   UNL     1      48.281   4.377  18.356  0.00  0.00    +0.000 A 
ATOM     10  S   UNL     1      47.882   2.838  17.755  0.00  0.00    +0.000 S 
ATOM     11  C   UNL     1      47.686   3.444  16.172  0.00  0.00    +0.000 A 
ATOM     12  C   UNL     1      47.872   4.816  16.080  0.00  0.00    +0.000 A 
ATOM     13  C   UNL     1      48.256   5.342  17.371  0.00  0.00    +0.000 A 
ATOM     14  C   UNL     1      48.618   6.693  17.764  0.00  0.00    +0.000 A 
ATOM     15  O   UNL     1      48.631   7.630  16.972  0.00  0.00    +0.000 OA
ENDBRANCH   1  12
BRANCH   3  16
ATOM     16  C   UNL     1      46.073   6.296  13.130  0.00  0.00    +0.000 C 
BRANCH  16  17
ATOM     17  C   UNL     1      45.701   5.381  11.990  0.00  0.00    +0.000 A 
ATOM     18  C   UNL     1      45.685   5.861  10.674  0.00  0.00    +0.000 A 
ATOM     19  C   UNL     1      45.339   5.022   9.611  0.00  0.00    +0.000 A 
ATOM     20  C   UNL     1      44.998   3.682   9.843  0.00  0.00    +0.000 A 
ATOM     21  C   UNL     1      44.986   3.210  11.162  0.00  0.00    +0.000 A 
ATOM     22  C   UNL     1      45.321   4.054  12.226  0.00  0.00    +0.000 A 
BRANCH  20  23
ATOM     23  C   UNL     1      44.648   2.762   8.694  0.00  0.00    +0.000 C 
BRANCH  23  24
ATOM     24  C   UNL     1      45.761   2.502   7.708  0.00  0.00    +0.000 A 
ATOM     25  C   UNL     1      46.619   1.413   7.853  0.00  0.00    +0.000 A 
ATOM     26  N   UNL     1      47.688   1.198   7.046  0.00  0.00    +0.000 NA
ATOM     27  C   UNL     1      47.869   2.116   6.073  0.00  0.00    +0.000 A 
ATOM     28  C   UNL     1      47.023   3.197   5.911  0.00  0.00    +0.000 A 
ATOM     29  N   UNL     1      45.960   3.418   6.721  0.00  0.00    +0.000 NA
ENDBRANCH  23  24
ENDBRANCH  20  23
ENDBRANCH  16  17
ENDBRANCH   3  16
TORSDOF 5
ENDMDL
MODEL 3
REMARK VINA RESULT:    -8.011      1.724      2.519
REMARK INTER + INTRA:         -10.508
REMARK INTER:                  -9.499
REMARK INTRA:                  -1.010
REMARK UNBOUND:                -0.155
REMARK  Name = 
REMARK  6 active torsions:
REMARK  status: ('A' for Active; 'I' for Inactive)
REMARK    1  A    between atoms: C_1  and  N_2
REMARK    2  A    between atoms: C_8  and  C_9
REMARK    3  A    between atoms: N_11  and  C_12
REMARK    4  A    between atoms: C_12  and  C_13
REMARK    5  A    between atoms: C_16  and  C_17
REMARK    6  A    between atoms: C_17  and  C_18
REMARK                            x       y       z     vdW  Elec       q    Type
REMARK                         _______ _______ _______ _____ _____    ______ ____
ROOT
ATOM      1  C   UNL     1      48.839   8.160  15.112  0.00  0.00    +0.000 C 
ATOM      2  O   UNL     1      49.793   8.446  14.393  0.00  0.00    +0.000 OA
ATOM      3  N   UNL     1      47.550   8.133  14.645  0.00  0.00    +0.000 N 
ATOM      4  H   UNL     1      46.792   8.114  15.318  0.00  0.00    +0.000 HD
ENDROOT
BRANCH   1  12
ATOM      5  C   UNL     1      47.901   2.886  17.057  0.00  0.00    +0.000 C 
ATOM      6  N   UNL     1      48.336   4.180  17.536  0.00  0.00    +0.000 N 
ATOM      7  C   UNL     1      48.699   4.361  18.855  0.00  0.00    +0.000 A 
ATOM      8  N   UNL     1      49.101   5.476  19.376  0.00  0.00    +0.000 NA
ATOM      9  C   UNL     1      49.150   6.520  18.505  0.00  0.00    +0.000 A 
ATOM     10  S   UNL     1      49.627   8.069  19.019  0.00  0.00    +0.000 S 
ATOM     11  C   UNL     1      49.411   8.717  17.456  0.00  0.00    +0.000 A 
ATOM     12  C   UNL     1      49.022   7.773  16.516  0.00  0.00    +0.000 A 
ATOM     13  C   UNL     1      48.841   6.492  17.161  0.00  0.00    +0.000 A 
ATOM     14  C   UNL     1      48.383   5.224  16.619  0.00  0.00    +0.000 A 
ATOM     15  O   UNL     1      48.080   5.083  15.439  0.00  0.00    +0.000 OA
ENDBRANCH   1  12
BRANCH   3  16
ATOM     16  C   UNL     1      47.212   8.621  13.333  0.00  0.00    +0.000 C 
BRANCH  16  17
ATOM     17  C   UNL     1      46.378   7.613  12.582  0.00  0.00    +0.000 A 
ATOM     18  C   UNL     1      45.188   8.004  11.956  0.00  0.00    +0.000 A 
ATOM     19  C   UNL     1      44.408   7.077  11.261  0.00  0.00    +0.000 A 
ATOM     20  C   UNL     1      44.801   5.733  11.179  0.00  0.00    +0.000 A 
ATOM     21  C   UNL     1      45.976   5.336  11.830  0.00  0.00    +0.000 A 
ATOM     22  C   UNL     1      46.750   6.264  12.536  0.00  0.00    +0.000 A 
BRANCH  20  23
ATOM     23  C   UNL     1      43.974   4.730  10.406  0.00  0.00    +0.000 C 
BRANCH  23  24
ATOM     24  C   UNL     1      44.737   3.888   9.412  0.00  0.00    +0.000 A 
ATOM     25  C   UNL     1      44.830   2.505   9.554  0.00  0.00    +0.000 A 
ATOM     26  N   UNL     1      45.583   1.724   8.739  0.00  0.00    +0.000 NA
ATOM     27  C   UNL     1      46.244   2.380   7.762  0.00  0.00    +0.000 A 
ATOM     28  C   UNL     1      46.156   3.751   7.603  0.00  0.00    +0.000 A 
ATOM     29  N   UNL     1      45.410   4.533   8.420  0.00  0.00    +0.000 NA
ENDBRANCH  23  24
ENDBRANCH  20  23
ENDBRANCH  16  17
ENDBRANCH   3  16
TORSDOF 5
ENDMDL
MODEL 4
REMARK VINA RESULT:    -7.991      2.721      3.502
REMARK INTER + INTRA:         -10.482
REMARK INTER:                  -9.711
REMARK INTRA:                  -0.772
REMARK UNBOUND:                -0.155
REMARK  Name = 
REMARK  6 active torsions:
REMARK  status: ('A' for Active; 'I' for Inactive)
REMARK    1  A    between atoms: C_1  and  N_2
REMARK    2  A    between atoms: C_8  and  C_9
REMARK    3  A    between atoms: N_11  and  C_12
REMARK    4  A    between atoms: C_12  and  C_13
REMARK    5  A    between atoms: C_16  and  C_17
REMARK    6  A    between atoms: C_17  and  C_18
REMARK                            x       y       z     vdW  Elec       q    Type
REMARK                         _______ _______ _______ _____ _____    ______ ____
ROOT
ATOM      1  C   UNL     1      49.007   6.318  15.953  0.00  0.00    +0.000 C 
ATOM      2  O   UNL     1      50.127   6.559  15.508  0.00  0.00    +0.000 OA
ATOM      3  N   UNL     1      47.870   6.474  15.203  0.00  0.00    +0.000 N 
ATOM      4  H   UNL     1      46.974   6.480  15.678  0.00  0.00    +0.000 HD
ENDROOT
BRANCH   1  12
ATOM      5  C   UNL     1      47.093   9.473  20.294  0.00  0.00    +0.000 C 
ATOM      6  N   UNL     1      47.512   8.117  20.014  0.00  0.00    +0.000 N 
ATOM      7  C   UNL     1      47.476   7.147  20.994  0.00  0.00    +0.000 A 
ATOM      8  N   UNL     1      47.828   5.912  20.841  0.00  0.00    +0.000 NA
ATOM      9  C   UNL     1      48.260   5.599  19.589  0.00  0.00    +0.000 A 
ATOM     10  S   UNL     1      48.790   4.029  19.210  0.00  0.00    +0.000 S 
ATOM     11  C   UNL     1      49.135   4.472  17.599  0.00  0.00    +0.000 A 
ATOM     12  C   UNL     1      48.815   5.791  17.309  0.00  0.00    +0.000 A 
ATOM     13  C   UNL     1      48.333   6.448  18.504  0.00  0.00    +0.000 A 
ATOM     14  C   UNL     1      47.940   7.829  18.722  0.00  0.00    +0.000 A 
ATOM     15  O   UNL     1      47.965   8.671  17.830  0.00  0.00    +0.000 OA
ENDBRANCH   1  12
BRANCH   3  16
ATOM     16  C   UNL     1      47.899   7.110  13.911  0.00  0.00    +0.000 C 
BRANCH  16  17
ATOM     17  C   UNL     1      46.991   6.397  12.940  0.00  0.00    +0.000 A 
ATOM     18  C   UNL     1      46.606   7.017  11.745  0.00  0.00    +0.000 A 
ATOM     19  C   UNL     1      45.762   6.366  10.841  0.00  0.00    +0.000 A 
ATOM     20  C   UNL     1      45.283   5.077  11.115  0.00  0.00    +0.000 A 
ATOM     21  C   UNL     1      45.645   4.468  12.324  0.00  0.00    +0.000 A 
ATOM     22  C   UNL     1      46.480   5.127  13.234  0.00  0.00    +0.000 A 
BRANCH  20  23
ATOM     23  C   UNL     1      44.391   4.356  10.128  0.00  0.00    +0.000 C 
BRANCH  23  24
ATOM     24  C   UNL     1      45.108   3.533   9.085  0.00  0.00    +0.000 A 
ATOM     25  C   UNL     1      45.279   2.158   9.238  0.00  0.00    +0.000 A 
ATOM     26  N   UNL     1      45.998   1.399   8.374  0.00  0.00    +0.000 NA
ATOM     27  C   UNL     1      46.544   2.069   7.336  0.00  0.00    +0.000 A 
ATOM     28  C   UNL     1      46.377   3.431   7.166  0.00  0.00    +0.000 A 
ATOM     29  N   UNL     1      45.665   4.191   8.032  0.00  0.00    +0.000 NA
ENDBRANCH  23  24
ENDBRANCH  20  23
ENDBRANCH  16  17
ENDBRANCH   3  16
TORSDOF 5
ENDMDL
MODEL 5
REMARK VINA RESULT:    -7.627      3.865      8.703
REMARK INTER + INTRA:         -10.012
REMARK INTER:                  -9.505
REMARK INTRA:                  -0.507
REMARK UNBOUND:                -0.155
REMARK  Name = 
REMARK  6 active torsions:
REMARK  status: ('A' for Active; 'I' for Inactive)
REMARK    1  A    between atoms: C_1  and  N_2
REMARK    2  A    between atoms: C_8  and  C_9
REMARK    3  A    between atoms: N_11  and  C_12
REMARK    4  A    between atoms: C_12  and  C_13
REMARK    5  A    between atoms: C_16  and  C_17
REMARK    6  A    between atoms: C_17  and  C_18
REMARK                            x       y       z     vdW  Elec       q    Type
REMARK                         _______ _______ _______ _____ _____    ______ ____
ROOT
ATOM      1  C   UNL     1      47.342   4.277  14.780  0.00  0.00    +0.000 C 
ATOM      2  O   UNL     1      47.481   3.158  14.293  0.00  0.00    +0.000 OA
ATOM      3  N   UNL     1      47.524   4.524  16.117  0.00  0.00    +0.000 N 
ATOM      4  H   UNL     1      47.182   5.399  16.499  0.00  0.00    +0.000 HD
ENDROOT
BRANCH   1  12
ATOM      5  C   UNL     1      42.646   4.640  11.573  0.00  0.00    +0.000 C 
ATOM      6  N   UNL     1      43.811   5.424  11.919  0.00  0.00    +0.000 N 
ATOM      7  C   UNL     1      43.983   6.697  11.416  0.00  0.00    +0.000 A 
ATOM      8  N   UNL     1      44.987   7.474  11.667  0.00  0.00    +0.000 NA
ATOM      9  C   UNL     1      45.919   6.939  12.502  0.00  0.00    +0.000 A 
ATOM     10  S   UNL     1      47.322   7.804  12.921  0.00  0.00    +0.000 S 
ATOM     11  C   UNL     1      47.893   6.521  13.890  0.00  0.00    +0.000 A 
ATOM     12  C   UNL     1      47.020   5.444  13.950  0.00  0.00    +0.000 A 
ATOM     13  C   UNL     1      45.879   5.696  13.099  0.00  0.00    +0.000 A 
ATOM     14  C   UNL     1      44.740   4.851  12.781  0.00  0.00    +0.000 A 
ATOM     15  O   UNL     1      44.601   3.728  13.253  0.00  0.00    +0.000 OA
ENDBRANCH   1  12
BRANCH   3  16
ATOM     16  C   UNL     1      47.706   3.454  17.064  0.00  0.00    +0.000 C 
BRANCH  16  17
ATOM     17  C   UNL     1      49.169   3.244  17.364  0.00  0.00    +0.000 A 
ATOM     18  C   UNL     1      49.915   4.250  17.991  0.00  0.00    +0.000 A 
ATOM     19  C   UNL     1      51.272   4.065  18.271  0.00  0.00    +0.000 A 
ATOM     20  C   UNL     1      51.914   2.868  17.925  0.00  0.00    +0.000 A 
ATOM     21  C   UNL     1      51.175   1.874  17.270  0.00  0.00    +0.000 A 
ATOM     22  C   UNL     1      49.820   2.065  16.981  0.00  0.00    +0.000 A 
BRANCH  20  23
ATOM     23  C   UNL     1      53.376   2.652  18.248  0.00  0.00    +0.000 C 
BRANCH  23  24
ATOM     24  C   UNL     1      53.916   1.279  17.927  0.00  0.00    +0.000 A 
ATOM     25  C   UNL     1      54.571   1.020  16.724  0.00  0.00    +0.000 A 
ATOM     26  N   UNL     1      54.986  -0.217  16.356  0.00  0.00    +0.000 NA
ATOM     27  C   UNL     1      54.725  -1.200  17.245  0.00  0.00    +0.000 A 
ATOM     28  C   UNL     1      54.084  -0.958  18.446  0.00  0.00    +0.000 A 
ATOM     29  N   UNL     1      53.663   0.276  18.811  0.00  0.00    +0.000 NA
ENDBRANCH  23  24
ENDBRANCH  20  23
ENDBRANCH  16  17
ENDBRANCH   3  16
TORSDOF 5
ENDMDL
MODEL 6
REMARK VINA RESULT:    -7.500      4.005      9.124
REMARK INTER + INTRA:          -9.848
REMARK INTER:                  -9.277
REMARK INTRA:                  -0.571
REMARK UNBOUND:                -0.155
REMARK  Name = 
REMARK  6 active torsions:
REMARK  status: ('A' for Active; 'I' for Inactive)
REMARK    1  A    between atoms: C_1  and  N_2
REMARK    2  A    between atoms: C_8  and  C_9
REMARK    3  A    between atoms: N_11  and  C_12
REMARK    4  A    between atoms: C_12  and  C_13
REMARK    5  A    between atoms: C_16  and  C_17
REMARK    6  A    between atoms: C_17  and  C_18
REMARK                            x       y       z     vdW  Elec       q    Type
REMARK                         _______ _______ _______ _____ _____    ______ ____
ROOT
ATOM      1  C   UNL     1      47.180   4.403  14.580  0.00  0.00    +0.000 C 
ATOM      2  O   UNL     1      47.292   3.255  14.160  0.00  0.00    +0.000 OA
ATOM      3  N   UNL     1      47.292   4.712  15.912  0.00  0.00    +0.000 N 
ATOM      4  H   UNL     1      46.972   5.621  16.226  0.00  0.00    +0.000 HD
ENDROOT
BRANCH   1  12
ATOM      5  C   UNL     1      42.295   5.324  11.795  0.00  0.00    +0.000 C 
ATOM      6  N   UNL     1      43.604   5.917  11.956  0.00  0.00    +0.000 N 
ATOM      7  C   UNL     1      43.931   7.096  11.318  0.00  0.00    +0.000 A 
ATOM      8  N   UNL     1      45.071   7.702  11.399  0.00  0.00    +0.000 NA
ATOM      9  C   UNL     1      45.985   7.082  12.194  0.00  0.00    +0.000 A 
ATOM     10  S   UNL     1      47.548   7.719  12.396  0.00  0.00    +0.000 S 
ATOM     11  C   UNL     1      47.998   6.438  13.429  0.00  0.00    +0.000 A 
ATOM     12  C   UNL     1      46.969   5.538  13.673  0.00  0.00    +0.000 A 
ATOM     13  C   UNL     1      45.802   5.917  12.909  0.00  0.00    +0.000 A 
ATOM     14  C   UNL     1      44.512   5.262  12.780  0.00  0.00    +0.000 A 
ATOM     15  O   UNL     1      44.238   4.221  13.370  0.00  0.00    +0.000 OA
ENDBRANCH   1  12
BRANCH   3  16
ATOM     16  C   UNL     1      47.360   3.687  16.921  0.00  0.00    +0.000 C 
BRANCH  16  17
ATOM     17  C   UNL     1      48.792   3.313  17.212  0.00  0.00    +0.000 A 
ATOM     18  C   UNL     1      49.637   4.209  17.879  0.00  0.00    +0.000 A 
ATOM     19  C   UNL     1      50.966   3.871  18.150  0.00  0.00    +0.000 A 
ATOM     20  C   UNL     1      51.481   2.628  17.755  0.00  0.00    +0.000 A 
ATOM     21  C   UNL     1      50.644   1.744  17.061  0.00  0.00    +0.000 A 
ATOM     22  C   UNL     1      49.317   2.088  16.780  0.00  0.00    +0.000 A 
BRANCH  20  23
ATOM     23  C   UNL     1      52.911   2.247  18.069  0.00  0.00    +0.000 C 
BRANCH  23  24
ATOM     24  C   UNL     1      53.738   3.322  18.733  0.00  0.00    +0.000 A 
ATOM     25  C   UNL     1      53.781   3.451  20.120  0.00  0.00    +0.000 A 
ATOM     26  N   UNL     1      54.433   4.458  20.752  0.00  0.00    +0.000 NA
ATOM     27  C   UNL     1      55.054   5.340  19.941  0.00  0.00    +0.000 A 
ATOM     28  C   UNL     1      55.028   5.222  18.563  0.00  0.00    +0.000 A 
ATOM     29  N   UNL     1      54.370   4.221  17.930  0.00  0.00    +0.000 NA
ENDBRANCH  23  24
ENDBRANCH  20  23
ENDBRANCH  16  17
ENDBRANCH   3  16
TORSDOF 5
ENDMDL
MODEL 7
REMARK VINA RESULT:    -7.385      3.138      4.540
REMARK INTER + INTRA:          -9.699
REMARK INTER:                  -8.546
REMARK INTRA:                  -1.153
REMARK UNBOUND:                -0.155
REMARK  Name = 
REMARK  6 active torsions:
REMARK  status: ('A' for Active; 'I' for Inactive)
REMARK    1  A    between atoms: C_1  and  N_2
REMARK    2  A    between atoms: C_8  and  C_9
REMARK    3  A    between atoms: N_11  and  C_12
REMARK    4  A    between atoms: C_12  and  C_13
REMARK    5  A    between atoms: C_16  and  C_17
REMARK    6  A    between atoms: C_17  and  C_18
REMARK                            x       y       z     vdW  Elec       q    Type
REMARK                         _______ _______ _______ _____ _____    ______ ____
ROOT
ATOM      1  C   UNL     1      50.809   7.839  15.365  0.00  0.00    +0.000 C 
ATOM      2  O   UNL     1      51.004   9.005  15.700  0.00  0.00    +0.000 OA
ATOM      3  N   UNL     1      50.258   7.504  14.155  0.00  0.00    +0.000 N 
ATOM      4  H   UNL     1      49.915   6.559  14.024  0.00  0.00    +0.000 HD
ENDROOT
BRANCH   1  12
ATOM      5  C   UNL     1      47.146   3.907  17.260  0.00  0.00    +0.000 C 
ATOM      6  N   UNL     1      48.553   4.231  17.330  0.00  0.00    +0.000 N 
ATOM      7  C   UNL     1      49.433   3.420  18.018  0.00  0.00    +0.000 A 
ATOM      8  N   UNL     1      50.706   3.625  18.137  0.00  0.00    +0.000 NA
ATOM      9  C   UNL     1      51.158   4.746  17.513  0.00  0.00    +0.000 A 
ATOM     10  S   UNL     1      52.797   5.191  17.586  0.00  0.00    +0.000 S 
ATOM     11  C   UNL     1      52.519   6.587  16.645  0.00  0.00    +0.000 A 
ATOM     12  C   UNL     1      51.203   6.716  16.224  0.00  0.00    +0.000 A 
ATOM     13  C   UNL     1      50.410   5.639  16.774  0.00  0.00    +0.000 A 
ATOM     14  C   UNL     1      48.984   5.379  16.675  0.00  0.00    +0.000 A 
ATOM     15  O   UNL     1      48.223   6.106  16.045  0.00  0.00    +0.000 OA
ENDBRANCH   1  12
BRANCH   3  16
ATOM     16  C   UNL     1      49.701   8.502  13.278  0.00  0.00    +0.000 C 
BRANCH  16  17
ATOM     17  C   UNL     1      48.312   8.114  12.836  0.00  0.00    +0.000 A 
ATOM     18  C   UNL     1      48.127   7.101  11.886  0.00  0.00    +0.000 A 
ATOM     19  C   UNL     1      46.844   6.738  11.469  0.00  0.00    +0.000 A 
ATOM     20  C   UNL     1      45.714   7.384  11.992  0.00  0.00    +0.000 A 
ATOM     21  C   UNL     1      45.900   8.417  12.919  0.00  0.00    +0.000 A 
ATOM     22  C   UNL     1      47.186   8.788  13.328  0.00  0.00    +0.000 A 
BRANCH  20  23
ATOM     23  C   UNL     1      44.322   6.977  11.563  0.00  0.00    +0.000 C 
BRANCH  23  24
ATOM     24  C   UNL     1      43.986   5.516  11.748  0.00  0.00    +0.000 A 
ATOM     25  C   UNL     1      43.849   4.958  13.017  0.00  0.00    +0.000 A 
ATOM     26  N   UNL     1      43.643   3.634  13.228  0.00  0.00    +0.000 NA
ATOM     27  C   UNL     1      43.573   2.878  12.112  0.00  0.00    +0.000 A 
ATOM     28  C   UNL     1      43.700   3.417  10.845  0.00  0.00    +0.000 A 
ATOM     29  N   UNL     1      43.913   4.738  10.634  0.00  0.00    +0.000 NA
ENDBRANCH  23  24
ENDBRANCH  20  23
ENDBRANCH  16  17
ENDBRANCH   3  16
TORSDOF 5
ENDMDL
MODEL 8
REMARK VINA RESULT:    -7.368      4.382      7.451
REMARK INTER + INTRA:          -9.677
REMARK INTER:                  -8.813
REMARK INTRA:                  -0.864
REMARK UNBOUND:                -0.155
REMARK  Name = 
REMARK  6 active torsions:
REMARK  status: ('A' for Active; 'I' for Inactive)
REMARK    1  A    between atoms: C_1  and  N_2
REMARK    2  A    between atoms: C_8  and  C_9
REMARK    3  A    between atoms: N_11  and  C_12
REMARK    4  A    between atoms: C_12  and  C_13
REMARK    5  A    between atoms: C_16  and  C_17
REMARK    6  A    between atoms: C_17  and  C_18
REMARK                            x       y       z     vdW  Elec       q    Type
REMARK                         _______ _______ _______ _____ _____    ______ ____
ROOT
ATOM      1  C   UNL     1      44.839   6.847  11.571  0.00  0.00    +0.000 C 
ATOM      2  O   UNL     1      44.165   7.745  11.073  0.00  0.00    +0.000 OA
ATOM      3  N   UNL     1      45.931   7.099  12.361  0.00  0.00    +0.000 N 
ATOM      4  H   UNL     1      46.573   6.339  12.556  0.00  0.00    +0.000 HD
ENDROOT
BRANCH   1  12
ATOM      5  C   UNL     1      46.539   3.722   7.120  0.00  0.00    +0.000 C 
ATOM      6  N   UNL     1      45.769   3.585   8.336  0.00  0.00    +0.000 N 
ATOM      7  C   UNL     1      45.219   2.372   8.693  0.00  0.00    +0.000 A 
ATOM      8  N   UNL     1      44.517   2.150   9.758  0.00  0.00    +0.000 NA
ATOM      9  C   UNL     1      44.340   3.239  10.554  0.00  0.00    +0.000 A 
ATOM     10  S   UNL     1      43.420   3.143  11.980  0.00  0.00    +0.000 S 
ATOM     11  C   UNL     1      43.672   4.796  12.322  0.00  0.00    +0.000 A 
ATOM     12  C   UNL     1      44.486   5.433  11.396  0.00  0.00    +0.000 A 
ATOM     13  C   UNL     1      44.841   4.507  10.344  0.00  0.00    +0.000 A 
ATOM     14  C   UNL     1      45.613   4.716   9.131  0.00  0.00    +0.000 A 
ATOM     15  O   UNL     1      46.106   5.801   8.842  0.00  0.00    +0.000 OA
ENDBRANCH   1  12
BRANCH   3  16
ATOM     16  C   UNL     1      46.469   8.427  12.503  0.00  0.00    +0.000 C 
BRANCH  16  17
ATOM     17  C   UNL     1      47.933   8.456  12.143  0.00  0.00    +0.000 A 
ATOM     18  C   UNL     1      48.551   9.661  11.785  0.00  0.00    +0.000 A 
ATOM     19  C   UNL     1      49.907   9.697  11.447  0.00  0.00    +0.000 A 
ATOM     20  C   UNL     1      50.675   8.524  11.459  0.00  0.00    +0.000 A 
ATOM     21  C   UNL     1      50.050   7.314  11.788  0.00  0.00    +0.000 A 
ATOM     22  C   UNL     1      48.690   7.278  12.115  0.00  0.00    +0.000 A 
BRANCH  20  23
ATOM     23  C   UNL     1      52.149   8.561  11.120  0.00  0.00    +0.000 C 
BRANCH  23  24
ATOM     24  C   UNL     1      52.492   8.257   9.681  0.00  0.00    +0.000 A 
ATOM     25  C   UNL     1      52.753   9.276   8.767  0.00  0.00    +0.000 A 
ATOM     26  N   UNL     1      52.971   9.051   7.447  0.00  0.00    +0.000 NA
ATOM     27  C   UNL     1      52.923   7.756   7.068  0.00  0.00    +0.000 A 
ATOM     28  C   UNL     1      52.673   6.733   7.964  0.00  0.00    +0.000 A 
ATOM     29  N   UNL     1      52.448   6.957   9.281  0.00  0.00    +0.000 NA
ENDBRANCH  23  24
ENDBRANCH  20  23
ENDBRANCH  16  17
ENDBRANCH   3  16
TORSDOF 5
ENDMDL
MODEL 9
REMARK VINA RESULT:    -7.363      4.314      8.556
REMARK INTER + INTRA:          -9.671
REMARK INTER:                  -8.815
REMARK INTRA:                  -0.855
REMARK UNBOUND:                -0.155
REMARK  Name = 
REMARK  6 active torsions:
REMARK  status: ('A' for Active; 'I' for Inactive)
REMARK    1  A    between atoms: C_1  and  N_2
REMARK    2  A    between atoms: C_8  and  C_9
REMARK    3  A    between atoms: N_11  and  C_12
REMARK    4  A    between atoms: C_12  and  C_13
REMARK    5  A    between atoms: C_16  and  C_17
REMARK    6  A    between atoms: C_17  and  C_18
REMARK                            x       y       z     vdW  Elec       q    Type
REMARK                         _______ _______ _______ _____ _____    ______ ____
ROOT
ATOM      1  C   UNL     1      47.082   4.058  14.780  0.00  0.00    +0.000 C 
ATOM      2  O   UNL     1      47.380   2.961  14.313  0.00  0.00    +0.000 OA
ATOM      3  N   UNL     1      47.185   4.340  16.118  0.00  0.00    +0.000 N 
ATOM      4  H   UNL     1      46.722   5.168  16.475  0.00  0.00    +0.000 HD
ENDROOT
BRANCH   1  12
ATOM      5  C   UNL     1      50.181   8.757  13.890  0.00  0.00    +0.000 C 
ATOM      6  N   UNL     1      48.917   8.175  13.495  0.00  0.00    +0.000 N 
ATOM      7  C   UNL     1      48.084   8.826  12.608  0.00  0.00    +0.000 A 
ATOM      8  N   UNL     1      46.938   8.389  12.196  0.00  0.00    +0.000 NA
ATOM      9  C   UNL     1      46.576   7.183  12.711  0.00  0.00    +0.000 A 
ATOM     10  S   UNL     1      45.089   6.466  12.304  0.00  0.00    +0.000 S 
ATOM     11  C   UNL     1      45.400   5.119  13.304  0.00  0.00    +0.000 A 
ATOM     12  C   UNL     1      46.642   5.165  13.922  0.00  0.00    +0.000 A 
ATOM     13  C   UNL     1      47.305   6.405  13.587  0.00  0.00    +0.000 A 
ATOM     14  C   UNL     1      48.580   6.939  14.034  0.00  0.00    +0.000 A 
ATOM     15  O   UNL     1      49.311   6.334  14.812  0.00  0.00    +0.000 OA
ENDBRANCH   1  12
BRANCH   3  16
ATOM     16  C   UNL     1      47.471   3.312  17.085  0.00  0.00    +0.000 C 
BRANCH  16  17
ATOM     17  C   UNL     1      48.954   3.203  17.333  0.00  0.00    +0.000 A 
ATOM     18  C   UNL     1      49.666   4.288  17.861  0.00  0.00    +0.000 A 
ATOM     19  C   UNL     1      51.041   4.197  18.092  0.00  0.00    +0.000 A 
ATOM     20  C   UNL     1      51.737   3.017  17.796  0.00  0.00    +0.000 A 
ATOM     21  C   UNL     1      51.031   1.942  17.240  0.00  0.00    +0.000 A 
ATOM     22  C   UNL     1      49.656   2.038  16.999  0.00  0.00    +0.000 A 
BRANCH  20  23
ATOM     23  C   UNL     1      53.221   2.903  18.067  0.00  0.00    +0.000 C 
BRANCH  23  24
ATOM     24  C   UNL     1      53.820   1.535  17.842  0.00  0.00    +0.000 A 
ATOM     25  C   UNL     1      54.599   1.260  16.720  0.00  0.00    +0.000 A 
ATOM     26  N   UNL     1      55.075   0.023  16.432  0.00  0.00    +0.000 NA
ATOM     27  C   UNL     1      54.746  -0.941  17.318  0.00  0.00    +0.000 A 
ATOM     28  C   UNL     1      53.980  -0.682  18.440  0.00  0.00    +0.000 A 
ATOM     29  N   UNL     1      53.498   0.551  18.725  0.00  0.00    +0.000 NA
ENDBRANCH  23  24
ENDBRANCH  20  23
ENDBRANCH  16  17
ENDBRANCH   3  16
TORSDOF 5
ENDMDL
