MODEL 1
REMARK VINA RESULT:    -8.660      0.000      0.000
REMARK INTER + INTRA:         -14.933
REMARK INTER:                 -13.469
REMARK INTRA:                  -1.464
REMARK UNBOUND:                -1.464
REMARK  Name = 
REMARK  10 active torsions:
REMARK  status: ('A' for Active; 'I' for Inactive)
REMARK    1  A    between atoms: N_1  and  C_2
REMARK    2  A    between atoms: C_2  and  C_3
REMARK    3  A    between atoms: C_2  and  C_32
REMARK    4  A    between atoms: C_3  and  N_4
REMARK    5  A    between atoms: C_7  and  C_8
REMARK    6  A    between atoms: C_8  and  O_9
REMARK    7  A    between atoms: O_9  and  C_10
REMARK    8  A    between atoms: C_13  and  C_14
REMARK    9  A    between atoms: C_14  and  N_15
REMARK   10  A    between atoms: C_16  and  C_18
REMARK                            x       y       z     vdW  Elec       q    Type
REMARK                         _______ _______ _______ _____ _____    ______ ____
ROOT
ATOM      1  C   UNL     1      47.325   4.259  15.665  0.00  0.00    +0.000 A 
ATOM      2  C   UNL     1      47.971   5.476  15.840  0.00  0.00    +0.000 A 
ATOM      3  C   UNL     1      48.727   5.693  16.992  0.00  0.00    +0.000 A 
ATOM      4  C   UNL     1      48.807   4.676  17.941  0.00  0.00    +0.000 A 
ATOM      5  N   UNL     1      48.232   3.463  17.763  0.00  0.00    +0.000 NA
ATOM      6  C   UNL     1      47.523   3.278  16.628  0.00  0.00    +0.000 A 
ENDROOT
BRANCH   1   7
ATOM      7  O   UNL     1      46.538   4.121  14.556  0.00  0.00    +0.000 OA
BRANCH   7   8
ATOM      8  C   UNL     1      46.880   5.013  13.488  0.00  0.00    +0.000 C 
BRANCH   8  12
ATOM      9  N   UNL     1      44.427   4.963  10.713  0.00  0.00    +0.000 NA
ATOM     10  C   UNL     1      44.267   4.229  11.972  0.00  0.00    +0.000 C 
ATOM     11  C   UNL     1      44.369   5.178  13.163  0.00  0.00    +0.000 C 
ATOM     12  C   UNL     1      45.700   5.939  13.171  0.00  0.00    +0.000 C 
ATOM     13  C   UNL     1      45.898   6.622  11.809  0.00  0.00    +0.000 C 
ATOM     14  C   UNL     1      45.716   5.657  10.630  0.00  0.00    +0.000 C 
BRANCH   9  15
ATOM     15  C   UNL     1      44.199   4.096   9.534  0.00  0.00    +0.000 C 
BRANCH  15  16
ATOM     16  C   UNL     1      44.860   2.685   9.618  0.00  0.00    +0.000 C 
BRANCH  16  17
ATOM     17  C   UNL     1      45.743   2.460   8.396  0.00  0.00    +0.000 A 
ATOM     18  C   UNL     1      45.899   3.484   7.463  0.00  0.00    +0.000 A 
ATOM     19  C   UNL     1      46.705   3.263   6.354  0.00  0.00    +0.000 A 
ATOM     20  C   UNL     1      47.326   2.030   6.199  0.00  0.00    +0.000 A 
ATOM     21  C   UNL     1      47.115   1.063   7.166  0.00  0.00    +0.000 A 
ATOM     22  N   UNL     1      46.337   1.244   8.256  0.00  0.00    +0.000 NA
ENDBRANCH  16  17
BRANCH  16  23
ATOM     23  N   UNL     1      43.858   1.608   9.785  0.00  0.00    +0.000 NA
ATOM     24  H   UNL     1      43.814   1.372  10.775  0.00  0.00    +0.000 HD
ATOM     25  H   UNL     1      44.256   0.779   9.342  0.00  0.00    +0.000 HD
ENDBRANCH  16  23
ENDBRANCH  15  16
ENDBRANCH   9  15
ENDBRANCH   8  12
ENDBRANCH   7   8
ENDBRANCH   1   7
BRANCH   4  26
ATOM     26  C   UNL     1      49.579   4.867  19.221  0.00  0.00    +0.000 C 
BRANCH  26  27
ATOM     27  N   UNL     1      50.753   4.030  19.267  0.00  0.00    +0.000 N 
ATOM     28  C   UNL     1      51.961   4.441  18.778  0.00  0.00    +0.000 C 
ATOM     29  O   UNL     1      52.117   5.551  18.274  0.00  0.00    +0.000 OA
ATOM     30  H   UNL     1      50.582   3.041  19.430  0.00  0.00    +0.000 HD
BRANCH  28  31
ATOM     31  C   UNL     1      53.086   3.518  18.963  0.00  0.00    +0.000 A 
ATOM     32  C   UNL     1      54.193   3.929  19.690  0.00  0.00    +0.000 A 
ATOM     33  S   UNL     1      55.389   2.725  19.854  0.00  0.00    +0.000 S 
ATOM     34  C   UNL     1      54.487   1.626  18.920  0.00  0.00    +0.000 A 
ATOM     35  N   UNL     1      54.967   0.382  18.648  0.00  0.00    +0.000 NA
ATOM     36  C   UNL     1      54.193  -0.338  17.903  0.00  0.00    +0.000 A 
ATOM     37  N   UNL     1      52.980   0.072  17.414  0.00  0.00    +0.000 N 
ATOM     38  C   UNL     1      52.432   1.297  17.711  0.00  0.00    +0.000 A 
ATOM     39  O   UNL     1      51.298   1.592  17.340  0.00  0.00    +0.000 OA
ATOM     40  C   UNL     1      53.277   2.159  18.512  0.00  0.00    +0.000 A 
ATOM     41  H   UNL     1      52.410  -0.547  16.857  0.00  0.00    +0.000 HD
ENDBRANCH  28  31
ENDBRANCH  26  27
ENDBRANCH   4  26
TORSDOF 10
ENDMDL
MODEL 2
REMARK VINA RESULT:    -7.703      5.608      7.197
REMARK INTER + INTRA:         -13.445
REMARK INTER:                 -13.402
REMARK INTRA:                  -0.044
REMARK UNBOUND:                -1.464
REMARK  Name = 
REMARK  10 active torsions:
REMARK  status: ('A' for Active; 'I' for Inactive)
REMARK    1  A    between atoms: N_1  and  C_2
REMARK    2  A    between atoms: C_2  and  C_3
REMARK    3  A    between atoms: C_2  and  C_32
REMARK    4  A    between atoms: C_3  and  N_4
REMARK    5  A    between atoms: C_7  and  C_8
REMARK    6  A    between atoms: C_8  and  O_9
REMARK    7  A    between atoms: O_9  and  C_10
REMARK    8  A    between atoms: C_13  and  C_14
REMARK    9  A    between atoms: C_14  and  N_15
REMARK   10  A    between atoms: C_16  and  C_18
REMARK                            x       y       z     vdW  Elec       q    Type
REMARK                         _______ _______ _______ _____ _____    ______ ____
ROOT
ATOM      1  C   UNL     1      47.143   6.285  13.216  0.00  0.00    +0.000 A 
ATOM      2  C   UNL     1      47.323   6.782  11.931  0.00  0.00    +0.000 A 
ATOM      3  C   UNL     1      48.522   7.412  11.600  0.00  0.00    +0.000 A 
ATOM      4  C   UNL     1      49.508   7.529  12.578  0.00  0.00    +0.000 A 
ATOM      5  N   UNL     1      49.375   7.002  13.818  0.00  0.00    +0.000 NA
ATOM      6  C   UNL     1      48.209   6.381  14.100  0.00  0.00    +0.000 A 
ENDROOT
BRANCH   1   7
ATOM      7  O   UNL     1      45.924   5.741  13.512  0.00  0.00    +0.000 OA
BRANCH   7   8
ATOM      8  C   UNL     1      44.826   6.391  12.861  0.00  0.00    +0.000 C 
BRANCH   8  12
ATOM      9  N   UNL     1      43.845   3.517  10.741  0.00  0.00    +0.000 NA
ATOM     10  C   UNL     1      44.669   3.411  11.950  0.00  0.00    +0.000 C 
ATOM     11  C   UNL     1      43.949   4.027  13.146  0.00  0.00    +0.000 C 
ATOM     12  C   UNL     1      43.583   5.494  12.894  0.00  0.00    +0.000 C 
ATOM     13  C   UNL     1      42.804   5.600  11.575  0.00  0.00    +0.000 C 
ATOM     14  C   UNL     1      43.519   4.906  10.407  0.00  0.00    +0.000 C 
BRANCH   9  15
ATOM     15  C   UNL     1      44.453   2.809   9.592  0.00  0.00    +0.000 C 
BRANCH  15  16
ATOM     16  C   UNL     1      44.972   3.737   8.449  0.00  0.00    +0.000 C 
BRANCH  16  17
ATOM     17  C   UNL     1      45.969   2.975   7.585  0.00  0.00    +0.000 A 
ATOM     18  C   UNL     1      46.408   3.535   6.385  0.00  0.00    +0.000 A 
ATOM     19  C   UNL     1      47.315   2.827   5.608  0.00  0.00    +0.000 A 
ATOM     20  C   UNL     1      47.757   1.583   6.040  0.00  0.00    +0.000 A 
ATOM     21  C   UNL     1      47.269   1.094   7.240  0.00  0.00    +0.000 A 
ATOM     22  N   UNL     1      46.385   1.755   8.019  0.00  0.00    +0.000 NA
ENDBRANCH  16  17
BRANCH  16  23
ATOM     23  N   UNL     1      45.540   5.000   8.971  0.00  0.00    +0.000 NA
ATOM     24  H   UNL     1      44.765   5.607   9.236  0.00  0.00    +0.000 HD
ATOM     25  H   UNL     1      45.970   5.470   8.173  0.00  0.00    +0.000 HD
ENDBRANCH  16  23
ENDBRANCH  15  16
ENDBRANCH   9  15
ENDBRANCH   8  12
ENDBRANCH   7   8
ENDBRANCH   1   7
BRANCH   4  26
ATOM     26  C   UNL     1      50.809   8.232  12.288  0.00  0.00    +0.000 C 
BRANCH  26  27
ATOM     27  N   UNL     1      51.202   8.084  10.908  0.00  0.00    +0.000 N 
ATOM     28  C   UNL     1      52.467   8.370  10.476  0.00  0.00    +0.000 C 
ATOM     29  O   UNL     1      53.343   8.766  11.240  0.00  0.00    +0.000 OA
ATOM     30  H   UNL     1      50.440   8.019  10.239  0.00  0.00    +0.000 HD
BRANCH  28  31
ATOM     31  C   UNL     1      52.747   8.098   9.062  0.00  0.00    +0.000 A 
ATOM     32  C   UNL     1      52.574   9.107   8.126  0.00  0.00    +0.000 A 
ATOM     33  S   UNL     1      52.989   8.645   6.538  0.00  0.00    +0.000 S 
ATOM     34  C   UNL     1      53.371   7.065   7.039  0.00  0.00    +0.000 A 
ATOM     35  N   UNL     1      53.780   6.127   6.143  0.00  0.00    +0.000 NA
ATOM     36  C   UNL     1      54.007   4.962   6.655  0.00  0.00    +0.000 A 
ATOM     37  N   UNL     1      53.871   4.655   7.984  0.00  0.00    +0.000 N 
ATOM     38  C   UNL     1      53.518   5.585   8.932  0.00  0.00    +0.000 A 
ATOM     39  O   UNL     1      53.505   5.300  10.127  0.00  0.00    +0.000 OA
ATOM     40  C   UNL     1      53.213   6.899   8.404  0.00  0.00    +0.000 A 
ATOM     41  H   UNL     1      54.089   3.731   8.327  0.00  0.00    +0.000 HD
ENDBRANCH  28  31
ENDBRANCH  26  27
ENDBRANCH   4  26
TORSDOF 10
ENDMDL
MODEL 3
REMARK VINA RESULT:    -7.585      1.897      2.568
REMARK INTER + INTRA:         -13.261
REMARK INTER:                 -13.617
REMARK INTRA:                   0.356
REMARK UNBOUND:                -1.464
REMARK  Name = 
REMARK  10 active torsions:
REMARK  status: ('A' for Active; 'I' for Inactive)
REMARK    1  A    between atoms: N_1  and  C_2
REMARK    2  A    between atoms: C_2  and  C_3
REMARK    3  A    between atoms: C_2  and  C_32
REMARK    4  A    between atoms: C_3  and  N_4
REMARK    5  A    between atoms: C_7  and  C_8
REMARK    6  A    between atoms: C_8  and  O_9
REMARK    7  A    between atoms: O_9  and  C_10
REMARK    8  A    between atoms: C_13  and  C_14
REMARK    9  A    between atoms: C_14  and  N_15
REMARK   10  A    between atoms: C_16  and  C_18
REMARK                            x       y       z     vdW  Elec       q    Type
REMARK                         _______ _______ _______ _____ _____    ______ ____
ROOT
ATOM      1  C   UNL     1      47.128   6.504  13.257  0.00  0.00    +0.000 A 
ATOM      2  C   UNL     1      47.362   7.866  13.401  0.00  0.00    +0.000 A 
ATOM      3  C   UNL     1      48.224   8.313  14.401  0.00  0.00    +0.000 A 
ATOM      4  C   UNL     1      48.824   7.374  15.236  0.00  0.00    +0.000 A 
ATOM      5  N   UNL     1      48.654   6.039  15.078  0.00  0.00    +0.000 NA
ATOM      6  C   UNL     1      47.829   5.638  14.087  0.00  0.00    +0.000 A 
ENDROOT
BRANCH   1   7
ATOM      7  O   UNL     1      46.220   6.121  12.310  0.00  0.00    +0.000 OA
BRANCH   7   8
ATOM      8  C   UNL     1      44.908   6.660  12.513  0.00  0.00    +0.000 C 
BRANCH   8  12
ATOM      9  N   UNL     1      43.902   3.500  10.862  0.00  0.00    +0.000 NA
ATOM     10  C   UNL     1      45.068   3.641  11.740  0.00  0.00    +0.000 C 
ATOM     11  C   UNL     1      44.653   4.204  13.096  0.00  0.00    +0.000 C 
ATOM     12  C   UNL     1      43.942   5.555  12.958  0.00  0.00    +0.000 C 
ATOM     13  C   UNL     1      42.783   5.415  11.960  0.00  0.00    +0.000 C 
ATOM     14  C   UNL     1      43.218   4.776  10.633  0.00  0.00    +0.000 C 
BRANCH   9  15
ATOM     15  C   UNL     1      44.246   2.831   9.587  0.00  0.00    +0.000 C 
BRANCH  15  16
ATOM     16  C   UNL     1      44.855   3.767   8.496  0.00  0.00    +0.000 C 
BRANCH  16  17
ATOM     17  C   UNL     1      45.886   2.998   7.680  0.00  0.00    +0.000 A 
ATOM     18  C   UNL     1      46.406   3.567   6.517  0.00  0.00    +0.000 A 
ATOM     19  C   UNL     1      47.343   2.852   5.783  0.00  0.00    +0.000 A 
ATOM     20  C   UNL     1      47.733   1.592   6.219  0.00  0.00    +0.000 A 
ATOM     21  C   UNL     1      47.166   1.096   7.381  0.00  0.00    +0.000 A 
ATOM     22  N   UNL     1      46.251   1.763   8.117  0.00  0.00    +0.000 NA
ENDBRANCH  16  17
BRANCH  16  23
ATOM     23  N   UNL     1      45.419   5.006   9.078  0.00  0.00    +0.000 NA
ATOM     24  H   UNL     1      45.287   5.758   8.404  0.00  0.00    +0.000 HD
ATOM     25  H   UNL     1      46.431   4.869   9.112  0.00  0.00    +0.000 HD
ENDBRANCH  16  23
ENDBRANCH  15  16
ENDBRANCH   9  15
ENDBRANCH   8  12
ENDBRANCH   7   8
ENDBRANCH   1   7
BRANCH   4  26
ATOM     26  C   UNL     1      49.736   7.800  16.358  0.00  0.00    +0.000 C 
BRANCH  26  27
ATOM     27  N   UNL     1      50.688   6.770  16.694  0.00  0.00    +0.000 N 
ATOM     28  C   UNL     1      50.685   6.143  17.908  0.00  0.00    +0.000 C 
ATOM     29  O   UNL     1      49.865   6.418  18.782  0.00  0.00    +0.000 OA
ATOM     30  H   UNL     1      51.513   6.724  16.102  0.00  0.00    +0.000 HD
BRANCH  28  31
ATOM     31  C   UNL     1      51.659   5.061  18.084  0.00  0.00    +0.000 A 
ATOM     32  C   UNL     1      52.916   5.351  18.595  0.00  0.00    +0.000 A 
ATOM     33  S   UNL     1      53.911   3.980  18.782  0.00  0.00    +0.000 S 
ATOM     34  C   UNL     1      52.712   2.955  18.145  0.00  0.00    +0.000 A 
ATOM     35  N   UNL     1      52.937   1.621  18.003  0.00  0.00    +0.000 NA
ATOM     36  C   UNL     1      51.953   0.967  17.477  0.00  0.00    +0.000 A 
ATOM     37  N   UNL     1      50.762   1.526  17.091  0.00  0.00    +0.000 N 
ATOM     38  C   UNL     1      50.472   2.857  17.271  0.00  0.00    +0.000 A 
ATOM     39  O   UNL     1      49.358   3.305  17.008  0.00  0.00    +0.000 OA
ATOM     40  C   UNL     1      51.557   3.644  17.820  0.00  0.00    +0.000 A 
ATOM     41  H   UNL     1      50.022   0.956  16.711  0.00  0.00    +0.000 HD
ENDBRANCH  28  31
ENDBRANCH  26  27
ENDBRANCH   4  26
TORSDOF 10
ENDMDL
MODEL 4
REMARK VINA RESULT:    -7.006      4.071     10.095
REMARK INTER + INTRA:         -12.360
REMARK INTER:                 -10.687
REMARK INTRA:                  -1.673
REMARK UNBOUND:                -1.464
REMARK  Name = 
REMARK  10 active torsions:
REMARK  status: ('A' for Active; 'I' for Inactive)
REMARK    1  A    between atoms: N_1  and  C_2
REMARK    2  A    between atoms: C_2  and  C_3
REMARK    3  A    between atoms: C_2  and  C_32
REMARK    4  A    between atoms: C_3  and  N_4
REMARK    5  A    between atoms: C_7  and  C_8
REMARK    6  A    between atoms: C_8  and  O_9
REMARK    7  A    between atoms: O_9  and  C_10
REMARK    8  A    between atoms: C_13  and  C_14
REMARK    9  A    between atoms: C_14  and  N_15
REMARK   10  A    between atoms: C_16  and  C_18
REMARK                            x       y       z     vdW  Elec       q    Type
REMARK                         _______ _______ _______ _____ _____    ______ ____
ROOT
ATOM      1  C   UNL     1      50.693   8.097  14.417  0.00  0.00    +0.000 A 
ATOM      2  C   UNL     1      49.704   7.196  14.792  0.00  0.00    +0.000 A 
ATOM      3  C   UNL     1      48.478   7.207  14.129  0.00  0.00    +0.000 A 
ATOM      4  C   UNL     1      48.279   8.132  13.105  0.00  0.00    +0.000 A 
ATOM      5  N   UNL     1      49.248   8.980  12.687  0.00  0.00    +0.000 NA
ATOM      6  C   UNL     1      50.431   8.930  13.337  0.00  0.00    +0.000 A 
ENDROOT
BRANCH   1   7
ATOM      7  O   UNL     1      51.850   8.096  15.145  0.00  0.00    +0.000 OA
BRANCH   7   8
ATOM      8  C   UNL     1      51.882   7.108  16.182  0.00  0.00    +0.000 C 
BRANCH   8  12
ATOM      9  N   UNL     1      50.088   6.803  19.409  0.00  0.00    +0.000 NA
ATOM     10  C   UNL     1      51.179   5.921  18.981  0.00  0.00    +0.000 C 
ATOM     11  C   UNL     1      52.422   6.736  18.633  0.00  0.00    +0.000 C 
ATOM     12  C   UNL     1      52.135   7.772  17.541  0.00  0.00    +0.000 C 
ATOM     13  C   UNL     1      50.927   8.624  17.960  0.00  0.00    +0.000 C 
ATOM     14  C   UNL     1      49.718   7.775  18.376  0.00  0.00    +0.000 C 
BRANCH   9  15
ATOM     15  C   UNL     1      48.912   6.039  19.884  0.00  0.00    +0.000 C 
BRANCH  15  16
ATOM     16  C   UNL     1      49.040   4.488  19.753  0.00  0.00    +0.000 C 
BRANCH  16  17
ATOM     17  C   UNL     1      48.569   4.051  18.371  0.00  0.00    +0.000 A 
ATOM     18  C   UNL     1      49.137   2.926  17.775  0.00  0.00    +0.000 A 
ATOM     19  C   UNL     1      48.699   2.542  16.515  0.00  0.00    +0.000 A 
ATOM     20  C   UNL     1      47.714   3.287  15.880  0.00  0.00    +0.000 A 
ATOM     21  C   UNL     1      47.205   4.395  16.536  0.00  0.00    +0.000 A 
ATOM     22  N   UNL     1      47.610   4.798  17.760  0.00  0.00    +0.000 NA
ENDBRANCH  16  17
BRANCH  16  23
ATOM     23  N   UNL     1      48.322   3.777  20.835  0.00  0.00    +0.000 NA
ATOM     24  H   UNL     1      48.362   2.779  20.634  0.00  0.00    +0.000 HD
ATOM     25  H   UNL     1      47.336   4.020  20.730  0.00  0.00    +0.000 HD
ENDBRANCH  16  23
ENDBRANCH  15  16
ENDBRANCH   9  15
ENDBRANCH   8  12
ENDBRANCH   7   8
ENDBRANCH   1   7
BRANCH   4  26
ATOM     26  C   UNL     1      46.962   8.214  12.378  0.00  0.00    +0.000 C 
BRANCH  26  27
ATOM     27  N   UNL     1      46.340   6.919  12.248  0.00  0.00    +0.000 N 
ATOM     28  C   UNL     1      45.135   6.748  11.626  0.00  0.00    +0.000 C 
ATOM     29  O   UNL     1      44.514   7.688  11.138  0.00  0.00    +0.000 OA
ATOM     30  H   UNL     1      46.700   6.195  12.864  0.00  0.00    +0.000 HD
BRANCH  28  31
ATOM     31  C   UNL     1      44.661   5.366  11.498  0.00  0.00    +0.000 A 
ATOM     32  C   UNL     1      43.947   4.790  12.540  0.00  0.00    +0.000 A 
ATOM     33  S   UNL     1      43.426   3.199  12.214  0.00  0.00    +0.000 S 
ATOM     34  C   UNL     1      44.175   3.209  10.687  0.00  0.00    +0.000 A 
ATOM     35  N   UNL     1      44.131   2.114   9.881  0.00  0.00    +0.000 NA
ATOM     36  C   UNL     1      44.767   2.248   8.763  0.00  0.00    +0.000 A 
ATOM     37  N   UNL     1      45.434   3.381   8.376  0.00  0.00    +0.000 N 
ATOM     38  C   UNL     1      45.455   4.528   9.133  0.00  0.00    +0.000 A 
ATOM     39  O   UNL     1      45.976   5.558   8.711  0.00  0.00    +0.000 OA
ATOM     40  C   UNL     1      44.790   4.419  10.415  0.00  0.00    +0.000 A 
ATOM     41  H   UNL     1      45.891   3.432   7.478  0.00  0.00    +0.000 HD
ENDBRANCH  28  31
ENDBRANCH  26  27
ENDBRANCH   4  26
TORSDOF 10
ENDMDL
MODEL 5
REMARK VINA RESULT:    -6.480      4.217     10.159
REMARK INTER + INTRA:         -11.542
REMARK INTER:                  -9.957
REMARK INTRA:                  -1.585
REMARK UNBOUND:                -1.464
REMARK  Name = 
REMARK  10 active torsions:
REMARK  status: ('A' for Active; 'I' for Inactive)
REMARK    1  A    between atoms: N_1  and  C_2
REMARK    2  A    between atoms: C_2  and  C_3
REMARK    3  A    between atoms: C_2  and  C_32
REMARK    4  A    between atoms: C_3  and  N_4
REMARK    5  A    between atoms: C_7  and  C_8
REMARK    6  A    between atoms: C_8  and  O_9
REMARK    7  A    between atoms: O_9  and  C_10
REMARK    8  A    between atoms: C_13  and  C_14
REMARK    9  A    between atoms: C_14  and  N_15
REMARK   10  A    between atoms: C_16  and  C_18
REMARK                            x       y       z     vdW  Elec       q    Type
REMARK                         _______ _______ _______ _____ _____    ______ ____
ROOT
ATOM      1  C   UNL     1      46.600   7.611  12.755  0.00  0.00    +0.000 A 
ATOM      2  C   UNL     1      45.412   7.904  12.097  0.00  0.00    +0.000 A 
ATOM      3  C   UNL     1      44.515   6.876  11.808  0.00  0.00    +0.000 A 
ATOM      4  C   UNL     1      44.843   5.575  12.187  0.00  0.00    +0.000 A 
ATOM      5  N   UNL     1      45.969   5.277  12.879  0.00  0.00    +0.000 NA
ATOM      6  C   UNL     1      46.807   6.298  13.160  0.00  0.00    +0.000 A 
ENDROOT
BRANCH   1   7
ATOM      7  O   UNL     1      47.478   8.639  12.950  0.00  0.00    +0.000 OA
BRANCH   7   8
ATOM      8  C   UNL     1      48.837   8.218  13.123  0.00  0.00    +0.000 C 
BRANCH   8  12
ATOM      9  N   UNL     1      50.154   8.177  16.585  0.00  0.00    +0.000 NA
ATOM     10  C   UNL     1      50.879   7.666  15.417  0.00  0.00    +0.000 C 
ATOM     11  C   UNL     1      50.997   8.744  14.344  0.00  0.00    +0.000 C 
ATOM     12  C   UNL     1      49.624   9.270  13.912  0.00  0.00    +0.000 C 
ATOM     13  C   UNL     1      48.839   9.712  15.157  0.00  0.00    +0.000 C 
ATOM     14  C   UNL     1      48.802   8.632  16.248  0.00  0.00    +0.000 C 
BRANCH   9  15
ATOM     15  C   UNL     1      50.138   7.202  17.698  0.00  0.00    +0.000 C 
BRANCH  15  16
ATOM     16  C   UNL     1      50.703   5.790  17.343  0.00  0.00    +0.000 C 
BRANCH  16  17
ATOM     17  C   UNL     1      49.565   4.776  17.318  0.00  0.00    +0.000 A 
ATOM     18  C   UNL     1      48.266   5.194  17.603  0.00  0.00    +0.000 A 
ATOM     19  C   UNL     1      47.241   4.257  17.579  0.00  0.00    +0.000 A 
ATOM     20  C   UNL     1      47.535   2.933  17.279  0.00  0.00    +0.000 A 
ATOM     21  C   UNL     1      48.851   2.598  17.013  0.00  0.00    +0.000 A 
ATOM     22  N   UNL     1      49.872   3.483  17.031  0.00  0.00    +0.000 NA
ENDBRANCH  16  17
BRANCH  16  23
ATOM     23  N   UNL     1      51.793   5.380  18.257  0.00  0.00    +0.000 NA
ATOM     24  H   UNL     1      52.141   4.475  17.942  0.00  0.00    +0.000 HD
ATOM     25  H   UNL     1      51.351   5.184  19.156  0.00  0.00    +0.000 HD
ENDBRANCH  16  23
ENDBRANCH  15  16
ENDBRANCH   9  15
ENDBRANCH   8  12
ENDBRANCH   7   8
ENDBRANCH   1   7
BRANCH   4  26
ATOM     26  C   UNL     1      43.930   4.420  11.870  0.00  0.00    +0.000 C 
BRANCH  26  27
ATOM     27  N   UNL     1      44.563   3.461  10.998  0.00  0.00    +0.000 N 
ATOM     28  C   UNL     1      44.454   3.530   9.637  0.00  0.00    +0.000 C 
ATOM     29  O   UNL     1      43.812   4.416   9.079  0.00  0.00    +0.000 OA
ATOM     30  H   UNL     1      44.863   2.596  11.439  0.00  0.00    +0.000 HD
BRANCH  28  31
ATOM     31  C   UNL     1      45.214   2.536   8.873  0.00  0.00    +0.000 A 
ATOM     32  C   UNL     1      44.903   1.190   9.003  0.00  0.00    +0.000 A 
ATOM     33  S   UNL     1      45.845   0.172   8.013  0.00  0.00    +0.000 S 
ATOM     34  C   UNL     1      46.733   1.490   7.407  0.00  0.00    +0.000 A 
ATOM     35  N   UNL     1      47.740   1.302   6.512  0.00  0.00    +0.000 NA
ATOM     36  C   UNL     1      48.350   2.387   6.160  0.00  0.00    +0.000 A 
ATOM     37  N   UNL     1      48.037   3.641   6.615  0.00  0.00    +0.000 N 
ATOM     38  C   UNL     1      46.991   3.882   7.474  0.00  0.00    +0.000 A 
ATOM     39  O   UNL     1      46.675   5.029   7.781  0.00  0.00    +0.000 OA
ATOM     40  C   UNL     1      46.298   2.695   7.931  0.00  0.00    +0.000 A 
ATOM     41  H   UNL     1      48.535   4.452   6.282  0.00  0.00    +0.000 HD
ENDBRANCH  28  31
ENDBRANCH  26  27
ENDBRANCH   4  26
TORSDOF 10
ENDMDL
MODEL 6
REMARK VINA RESULT:    -6.059      3.676      6.013
REMARK INTER + INTRA:         -10.887
REMARK INTER:                  -9.878
REMARK INTRA:                  -1.010
REMARK UNBOUND:                -1.464
REMARK  Name = 
REMARK  10 active torsions:
REMARK  status: ('A' for Active; 'I' for Inactive)
REMARK    1  A    between atoms: N_1  and  C_2
REMARK    2  A    between atoms: C_2  and  C_3
REMARK    3  A    between atoms: C_2  and  C_32
REMARK    4  A    between atoms: C_3  and  N_4
REMARK    5  A    between atoms: C_7  and  C_8
REMARK    6  A    between atoms: C_8  and  O_9
REMARK    7  A    between atoms: O_9  and  C_10
REMARK    8  A    between atoms: C_13  and  C_14
REMARK    9  A    between atoms: C_14  and  N_15
REMARK   10  A    between atoms: C_16  and  C_18
REMARK                            x       y       z     vdW  Elec       q    Type
REMARK                         _______ _______ _______ _____ _____    ______ ____
ROOT
ATOM      1  C   UNL     1      51.654   3.020  17.767  0.00  0.00    +0.000 A 
ATOM      2  C   UNL     1      51.275   1.748  17.356  0.00  0.00    +0.000 A 
ATOM      3  C   UNL     1      52.115   0.664  17.612  0.00  0.00    +0.000 A 
ATOM      4  C   UNL     1      53.319   0.893  18.274  0.00  0.00    +0.000 A 
ATOM      5  N   UNL     1      53.681   2.115  18.733  0.00  0.00    +0.000 NA
ATOM      6  C   UNL     1      52.837   3.140  18.486  0.00  0.00    +0.000 A 
ENDROOT
BRANCH   1   7
ATOM      7  O   UNL     1      50.833   4.058  17.428  0.00  0.00    +0.000 OA
BRANCH   7   8
ATOM      8  C   UNL     1      49.562   3.647  16.909  0.00  0.00    +0.000 C 
BRANCH   8  12
ATOM      9  N   UNL     1      47.088   5.399  14.781  0.00  0.00    +0.000 NA
ATOM     10  C   UNL     1      46.864   4.092  15.407  0.00  0.00    +0.000 C 
ATOM     11  C   UNL     1      47.080   4.175  16.915  0.00  0.00    +0.000 C 
ATOM     12  C   UNL     1      48.485   4.681  17.260  0.00  0.00    +0.000 C 
ATOM     13  C   UNL     1      48.741   6.002  16.520  0.00  0.00    +0.000 C 
ATOM     14  C   UNL     1      48.443   5.907  15.017  0.00  0.00    +0.000 C 
BRANCH   9  15
ATOM     15  C   UNL     1      46.755   5.388  13.338  0.00  0.00    +0.000 C 
BRANCH  15  16
ATOM     16  C   UNL     1      45.262   5.069  13.012  0.00  0.00    +0.000 C 
BRANCH  16  17
ATOM     17  C   UNL     1      45.143   4.603  11.566  0.00  0.00    +0.000 A 
ATOM     18  C   UNL     1      45.588   5.432  10.537  0.00  0.00    +0.000 A 
ATOM     19  C   UNL     1      45.471   4.994   9.225  0.00  0.00    +0.000 A 
ATOM     20  C   UNL     1      44.910   3.749   8.970  0.00  0.00    +0.000 A 
ATOM     21  C   UNL     1      44.487   2.988  10.046  0.00  0.00    +0.000 A 
ATOM     22  N   UNL     1      44.584   3.384  11.334  0.00  0.00    +0.000 NA
ENDBRANCH  16  17
BRANCH  16  23
ATOM     23  N   UNL     1      44.371   6.216  13.301  0.00  0.00    +0.000 NA
ATOM     24  H   UNL     1      43.492   5.847  13.663  0.00  0.00    +0.000 HD
ATOM     25  H   UNL     1      44.124   6.619  12.395  0.00  0.00    +0.000 HD
ENDBRANCH  16  23
ENDBRANCH  15  16
ENDBRANCH   9  15
ENDBRANCH   8  12
ENDBRANCH   7   8
ENDBRANCH   1   7
BRANCH   4  26
ATOM     26  C   UNL     1      54.283  -0.233  18.547  0.00  0.00    +0.000 C 
BRANCH  26  27
ATOM     27  N   UNL     1      53.595  -1.460  18.865  0.00  0.00    +0.000 N 
ATOM     28  C   UNL     1      54.190  -2.684  18.736  0.00  0.00    +0.000 C 
ATOM     29  O   UNL     1      55.348  -2.808  18.345  0.00  0.00    +0.000 OA
ATOM     30  H   UNL     1      52.583  -1.393  18.929  0.00  0.00    +0.000 HD
BRANCH  28  31
ATOM     31  C   UNL     1      53.399  -3.840  19.170  0.00  0.00    +0.000 A 
ATOM     32  C   UNL     1      52.999  -3.934  20.496  0.00  0.00    +0.000 A 
ATOM     33  S   UNL     1      52.047  -5.310  20.826  0.00  0.00    +0.000 S 
ATOM     34  C   UNL     1      52.173  -5.851  19.219  0.00  0.00    +0.000 A 
ATOM     35  N   UNL     1      51.592  -7.016  18.827  0.00  0.00    +0.000 NA
ATOM     36  C   UNL     1      51.793  -7.323  17.586  0.00  0.00    +0.000 A 
ATOM     37  N   UNL     1      52.516  -6.563  16.703  0.00  0.00    +0.000 N 
ATOM     38  C   UNL     1      53.070  -5.352  17.042  0.00  0.00    +0.000 A 
ATOM     39  O   UNL     1      53.624  -4.650  16.199  0.00  0.00    +0.000 OA
ATOM     40  C   UNL     1      52.908  -4.980  18.432  0.00  0.00    +0.000 A 
ATOM     41  H   UNL     1      52.615  -6.844  15.739  0.00  0.00    +0.000 HD
ENDBRANCH  28  31
ENDBRANCH  26  27
ENDBRANCH   4  26
TORSDOF 10
ENDMDL
