MODEL 1
REMARK VINA RESULT:    -9.295      0.000      0.000
REMARK INTER + INTRA:         -12.713
REMARK INTER:                 -12.011
REMARK INTRA:                  -0.702
REMARK UNBOUND:                -0.702
REMARK  Name = 
REMARK  5 active torsions:
REMARK  status: ('A' for Active; 'I' for Inactive)
REMARK    1  A    between atoms: C_2  and  C_4
REMARK    2  A    between atoms: N_8  and  C_9
REMARK    3  A    between atoms: C_9  and  C_10
REMARK    4  A    between atoms: C_10  and  C_11
REMARK    5  A    between atoms: C_15  and  C_16
REMARK                            x       y       z     vdW  Elec       q    Type
REMARK                         _______ _______ _______ _____ _____    ______ ____
ROOT
ATOM      1  C   UNL     1      43.357   4.442  11.223  0.00  0.00    +0.000 C 
ENDROOT
BRANCH   1   6
ATOM      2  C   UNL     1      46.473   2.522   7.711  0.00  0.00    +0.000 A 
ATOM      3  C   UNL     1      45.661   1.867   8.630  0.00  0.00    +0.000 A 
ATOM      4  C   UNL     1      44.743   2.607   9.374  0.00  0.00    +0.000 A 
ATOM      5  C   UNL     1      44.665   3.987   9.207  0.00  0.00    +0.000 A 
ATOM      6  N   UNL     1      43.721   4.774   9.853  0.00  0.00    +0.000 N 
ATOM      7  N   UNL     1      45.472   4.638   8.345  0.00  0.00    +0.000 NA
ATOM      8  C   UNL     1      46.358   3.900   7.621  0.00  0.00    +0.000 A 
ATOM      9  H   UNL     1      43.980   5.742   9.675  0.00  0.00    +0.000 HD
BRANCH   2  11
ATOM     10  N   UNL     1      48.513   2.522   6.393  0.00  0.00    +0.000 N 
ATOM     11  C   UNL     1      47.434   1.809   6.845  0.00  0.00    +0.000 C 
ATOM     12  O   UNL     1      47.293   0.626   6.569  0.00  0.00    +0.000 OA
ATOM     13  H   UNL     1      49.219   2.001   5.890  0.00  0.00    +0.000 HD
ATOM     14  H   UNL     1      48.787   3.407   6.795  0.00  0.00    +0.000 HD
ENDBRANCH   2  11
ENDBRANCH   1   6
BRANCH   1  15
ATOM     15  C   UNL     1      43.647   5.619  12.161  0.00  0.00    +0.000 C 
BRANCH  15  16
ATOM     16  C   UNL     1      45.107   5.679  12.524  0.00  0.00    +0.000 A 
ATOM     17  C   UNL     1      46.002   6.443  11.783  0.00  0.00    +0.000 A 
ATOM     18  N   UNL     1      47.306   6.580  12.088  0.00  0.00    +0.000 NA
ATOM     19  C   UNL     1      47.748   5.923  13.191  0.00  0.00    +0.000 A 
ATOM     20  C   UNL     1      46.960   5.116  14.014  0.00  0.00    +0.000 A 
ATOM     21  C   UNL     1      45.607   5.015  13.653  0.00  0.00    +0.000 A 
BRANCH  20  22
ATOM     22  C   UNL     1      47.533   4.435  15.188  0.00  0.00    +0.000 A 
ATOM     23  C   UNL     1      47.914   5.112  16.348  0.00  0.00    +0.000 A 
ATOM     24  C   UNL     1      48.454   4.394  17.414  0.00  0.00    +0.000 A 
ATOM     25  C   UNL     1      48.601   3.019  17.304  0.00  0.00    +0.000 A 
ATOM     26  C   UNL     1      48.193   2.416  16.129  0.00  0.00    +0.000 A 
ATOM     27  N   UNL     1      47.665   3.088  15.082  0.00  0.00    +0.000 NA
ENDBRANCH  20  22
ENDBRANCH  15  16
ENDBRANCH   1  15
TORSDOF 5
ENDMDL
MODEL 2
REMARK VINA RESULT:    -9.061      1.672      3.092
REMARK INTER + INTRA:         -12.411
REMARK INTER:                 -11.576
REMARK INTRA:                  -0.836
REMARK UNBOUND:                -0.702
REMARK  Name = 
REMARK  5 active torsions:
REMARK  status: ('A' for Active; 'I' for Inactive)
REMARK    1  A    between atoms: C_2  and  C_4
REMARK    2  A    between atoms: N_8  and  C_9
REMARK    3  A    between atoms: C_9  and  C_10
REMARK    4  A    between atoms: C_10  and  C_11
REMARK    5  A    between atoms: C_15  and  C_16
REMARK                            x       y       z     vdW  Elec       q    Type
REMARK                         _______ _______ _______ _____ _____    ______ ____
ROOT
ATOM      1  C   UNL     1      43.278   4.673  11.032  0.00  0.00    +0.000 C 
ENDROOT
BRANCH   1   6
ATOM      2  C   UNL     1      46.421   2.350   7.798  0.00  0.00    +0.000 A 
ATOM      3  C   UNL     1      45.532   1.805   8.717  0.00  0.00    +0.000 A 
ATOM      4  C   UNL     1      44.629   2.644   9.368  0.00  0.00    +0.000 A 
ATOM      5  C   UNL     1      44.643   4.012   9.112  0.00  0.00    +0.000 A 
ATOM      6  N   UNL     1      43.721   4.893   9.661  0.00  0.00    +0.000 N 
ATOM      7  N   UNL     1      45.525   4.557   8.250  0.00  0.00    +0.000 NA
ATOM      8  C   UNL     1      46.395   3.723   7.616  0.00  0.00    +0.000 A 
ATOM      9  H   UNL     1      44.047   5.831   9.436  0.00  0.00    +0.000 HD
BRANCH   2  11
ATOM     10  N   UNL     1      48.472   2.163   6.511  0.00  0.00    +0.000 N 
ATOM     11  C   UNL     1      47.373   1.527   7.025  0.00  0.00    +0.000 C 
ATOM     12  O   UNL     1      47.208   0.325   6.876  0.00  0.00    +0.000 OA
ATOM     13  H   UNL     1      49.172   1.576   6.076  0.00  0.00    +0.000 HD
ATOM     14  H   UNL     1      48.763   3.080   6.820  0.00  0.00    +0.000 HD
ENDBRANCH   2  11
ENDBRANCH   1   6
BRANCH   1  15
ATOM     15  C   UNL     1      43.715   5.832  11.935  0.00  0.00    +0.000 C 
BRANCH  15  16
ATOM     16  C   UNL     1      45.023   5.527  12.617  0.00  0.00    +0.000 A 
ATOM     17  C   UNL     1      45.181   4.383  13.391  0.00  0.00    +0.000 A 
ATOM     18  N   UNL     1      46.339   4.027  13.979  0.00  0.00    +0.000 NA
ATOM     19  C   UNL     1      47.400   4.853  13.789  0.00  0.00    +0.000 A 
ATOM     20  C   UNL     1      47.374   6.036  13.048  0.00  0.00    +0.000 A 
ATOM     21  C   UNL     1      46.143   6.352  12.450  0.00  0.00    +0.000 A 
BRANCH  20  22
ATOM     22  C   UNL     1      48.577   6.873  12.904  0.00  0.00    +0.000 A 
ATOM     23  C   UNL     1      48.881   7.572  11.735  0.00  0.00    +0.000 A 
ATOM     24  C   UNL     1      50.045   8.338  11.678  0.00  0.00    +0.000 A 
ATOM     25  C   UNL     1      50.879   8.393  12.785  0.00  0.00    +0.000 A 
ATOM     26  C   UNL     1      50.509   7.681  13.911  0.00  0.00    +0.000 A 
ATOM     27  N   UNL     1      49.386   6.933  13.993  0.00  0.00    +0.000 NA
ENDBRANCH  20  22
ENDBRANCH  15  16
ENDBRANCH   1  15
TORSDOF 5
ENDMDL
MODEL 3
REMARK VINA RESULT:    -8.185      2.231      4.117
REMARK INTER + INTRA:         -11.279
REMARK INTER:                 -10.543
REMARK INTRA:                  -0.737
REMARK UNBOUND:                -0.702
REMARK  Name = 
REMARK  5 active torsions:
REMARK  status: ('A' for Active; 'I' for Inactive)
REMARK    1  A    between atoms: C_2  and  C_4
REMARK    2  A    between atoms: N_8  and  C_9
REMARK    3  A    between atoms: C_9  and  C_10
REMARK    4  A    between atoms: C_10  and  C_11
REMARK    5  A    between atoms: C_15  and  C_16
REMARK                            x       y       z     vdW  Elec       q    Type
REMARK                         _______ _______ _______ _____ _____    ______ ____
ROOT
ATOM      1  C   UNL     1      43.095   4.576  11.076  0.00  0.00    +0.000 C 
ENDROOT
BRANCH   1   6
ATOM      2  C   UNL     1      46.348   2.750   7.638  0.00  0.00    +0.000 A 
ATOM      3  C   UNL     1      46.103   4.065   8.017  0.00  0.00    +0.000 A 
ATOM      4  C   UNL     1      45.293   4.312   9.124  0.00  0.00    +0.000 A 
ATOM      5  C   UNL     1      44.724   3.250   9.821  0.00  0.00    +0.000 A 
ATOM      6  N   UNL     1      43.976   3.420  10.978  0.00  0.00    +0.000 N 
ATOM      7  N   UNL     1      44.925   1.972   9.442  0.00  0.00    +0.000 NA
ATOM      8  C   UNL     1      45.724   1.746   8.362  0.00  0.00    +0.000 A 
ATOM      9  H   UNL     1      43.560   2.515  11.190  0.00  0.00    +0.000 HD
BRANCH   2  11
ATOM     10  N   UNL     1      47.196   3.208   5.409  0.00  0.00    +0.000 N 
ATOM     11  C   UNL     1      47.236   2.396   6.512  0.00  0.00    +0.000 C 
ATOM     12  O   UNL     1      47.998   1.443   6.571  0.00  0.00    +0.000 OA
ATOM     13  H   UNL     1      47.880   3.023   4.687  0.00  0.00    +0.000 HD
ATOM     14  H   UNL     1      46.774   4.126   5.425  0.00  0.00    +0.000 HD
ENDBRANCH   2  11
ENDBRANCH   1   6
BRANCH   1  15
ATOM     15  C   UNL     1      43.148   5.181  12.483  0.00  0.00    +0.000 C 
BRANCH  15  16
ATOM     16  C   UNL     1      44.547   5.607  12.840  0.00  0.00    +0.000 A 
ATOM     17  C   UNL     1      45.386   4.780  13.579  0.00  0.00    +0.000 A 
ATOM     18  N   UNL     1      46.663   5.081  13.881  0.00  0.00    +0.000 NA
ATOM     19  C   UNL     1      47.135   6.269  13.425  0.00  0.00    +0.000 A 
ATOM     20  C   UNL     1      46.398   7.195  12.685  0.00  0.00    +0.000 A 
ATOM     21  C   UNL     1      45.076   6.826  12.391  0.00  0.00    +0.000 A 
BRANCH  20  22
ATOM     22  C   UNL     1      46.997   8.465  12.239  0.00  0.00    +0.000 A 
ATOM     23  C   UNL     1      46.262   9.644  12.098  0.00  0.00    +0.000 A 
ATOM     24  C   UNL     1      46.903  10.803  11.665  0.00  0.00    +0.000 A 
ATOM     25  C   UNL     1      48.261  10.766  11.382  0.00  0.00    +0.000 A 
ATOM     26  C   UNL     1      48.925   9.565  11.553  0.00  0.00    +0.000 A 
ATOM     27  N   UNL     1      48.327   8.428  11.973  0.00  0.00    +0.000 NA
ENDBRANCH  20  22
ENDBRANCH  15  16
ENDBRANCH   1  15
TORSDOF 5
ENDMDL
MODEL 4
REMARK VINA RESULT:    -7.866      3.029      8.074
REMARK INTER + INTRA:         -10.867
REMARK INTER:                 -10.327
REMARK INTRA:                  -0.540
REMARK UNBOUND:                -0.702
REMARK  Name = 
REMARK  5 active torsions:
REMARK  status: ('A' for Active; 'I' for Inactive)
REMARK    1  A    between atoms: C_2  and  C_4
REMARK    2  A    between atoms: N_8  and  C_9
REMARK    3  A    between atoms: C_9  and  C_10
REMARK    4  A    between atoms: C_10  and  C_11
REMARK    5  A    between atoms: C_15  and  C_16
REMARK                            x       y       z     vdW  Elec       q    Type
REMARK                         _______ _______ _______ _____ _____    ______ ____
ROOT
ATOM      1  C   UNL     1      46.254   5.742  13.303  0.00  0.00    +0.000 C 
ENDROOT
BRANCH   1   6
ATOM      2  C   UNL     1      49.109   4.081  17.154  0.00  0.00    +0.000 A 
ATOM      3  C   UNL     1      48.851   5.382  16.737  0.00  0.00    +0.000 A 
ATOM      4  C   UNL     1      47.878   5.603  15.763  0.00  0.00    +0.000 A 
ATOM      5  C   UNL     1      47.195   4.526  15.206  0.00  0.00    +0.000 A 
ATOM      6  N   UNL     1      46.160   4.678  14.294  0.00  0.00    +0.000 N 
ATOM      7  N   UNL     1      47.462   3.257  15.575  0.00  0.00    +0.000 NA
ATOM      8  C   UNL     1      48.410   3.058  16.533  0.00  0.00    +0.000 A 
ATOM      9  H   UNL     1      45.946   3.748  13.940  0.00  0.00    +0.000 HD
BRANCH   2  11
ATOM     10  N   UNL     1      49.748   4.119  19.496  0.00  0.00    +0.000 N 
ATOM     11  C   UNL     1      50.083   3.763  18.217  0.00  0.00    +0.000 C 
ATOM     12  O   UNL     1      51.128   3.177  17.974  0.00  0.00    +0.000 OA
ATOM     13  H   UNL     1      50.369   3.803  20.230  0.00  0.00    +0.000 HD
ATOM     14  H   UNL     1      48.807   4.371  19.761  0.00  0.00    +0.000 HD
ENDBRANCH   2  11
ENDBRANCH   1   6
BRANCH   1  15
ATOM     15  C   UNL     1      44.939   5.878  12.528  0.00  0.00    +0.000 C 
BRANCH  15  16
ATOM     16  C   UNL     1      44.628   4.622  11.757  0.00  0.00    +0.000 A 
ATOM     17  C   UNL     1      43.590   3.780  12.140  0.00  0.00    +0.000 A 
ATOM     18  N   UNL     1      43.229   2.675  11.462  0.00  0.00    +0.000 NA
ATOM     19  C   UNL     1      43.938   2.388  10.340  0.00  0.00    +0.000 A 
ATOM     20  C   UNL     1      45.008   3.140   9.851  0.00  0.00    +0.000 A 
ATOM     21  C   UNL     1      45.335   4.287  10.594  0.00  0.00    +0.000 A 
BRANCH  20  22
ATOM     22  C   UNL     1      45.722   2.744   8.626  0.00  0.00    +0.000 A 
ATOM     23  C   UNL     1      46.005   3.636   7.589  0.00  0.00    +0.000 A 
ATOM     24  C   UNL     1      46.680   3.179   6.458  0.00  0.00    +0.000 A 
ATOM     25  C   UNL     1      47.062   1.847   6.384  0.00  0.00    +0.000 A 
ATOM     26  C   UNL     1      46.755   1.025   7.453  0.00  0.00    +0.000 A 
ATOM     27  N   UNL     1      46.103   1.443   8.560  0.00  0.00    +0.000 NA
ENDBRANCH  20  22
ENDBRANCH  15  16
ENDBRANCH   1  15
TORSDOF 5
ENDMDL
MODEL 5
REMARK VINA RESULT:    -7.776      2.777      7.833
REMARK INTER + INTRA:         -10.751
REMARK INTER:                 -10.236
REMARK INTRA:                  -0.515
REMARK UNBOUND:                -0.702
REMARK  Name = 
REMARK  5 active torsions:
REMARK  status: ('A' for Active; 'I' for Inactive)
REMARK    1  A    between atoms: C_2  and  C_4
REMARK    2  A    between atoms: N_8  and  C_9
REMARK    3  A    between atoms: C_9  and  C_10
REMARK    4  A    between atoms: C_10  and  C_11
REMARK    5  A    between atoms: C_15  and  C_16
REMARK                            x       y       z     vdW  Elec       q    Type
REMARK                         _______ _______ _______ _____ _____    ______ ____
ROOT
ATOM      1  C   UNL     1      47.013   6.731  12.895  0.00  0.00    +0.000 C 
ENDROOT
BRANCH   1   6
ATOM      2  C   UNL     1      48.476   3.953  16.879  0.00  0.00    +0.000 A 
ATOM      3  C   UNL     1      48.709   5.294  16.600  0.00  0.00    +0.000 A 
ATOM      4  C   UNL     1      48.044   5.890  15.530  0.00  0.00    +0.000 A 
ATOM      5  C   UNL     1      47.177   5.137  14.744  0.00  0.00    +0.000 A 
ATOM      6  N   UNL     1      46.421   5.684  13.716  0.00  0.00    +0.000 N 
ATOM      7  N   UNL     1      46.971   3.826  14.982  0.00  0.00    +0.000 NA
ATOM      8  C   UNL     1      47.623   3.260  16.036  0.00  0.00    +0.000 A 
ATOM      9  H   UNL     1      46.001   4.902  13.217  0.00  0.00    +0.000 HD
BRANCH   2  11
ATOM     10  N   UNL     1      48.488   3.398  19.244  0.00  0.00    +0.000 N 
ATOM     11  C   UNL     1      49.097   3.257  18.025  0.00  0.00    +0.000 C 
ATOM     12  O   UNL     1      50.091   2.558  17.889  0.00  0.00    +0.000 OA
ATOM     13  H   UNL     1      48.856   2.835  20.000  0.00  0.00    +0.000 HD
ATOM     14  H   UNL     1      47.548   3.752  19.344  0.00  0.00    +0.000 HD
ENDBRANCH   2  11
ENDBRANCH   1   6
BRANCH   1  15
ATOM     15  C   UNL     1      45.968   7.338  11.952  0.00  0.00    +0.000 C 
BRANCH  15  16
ATOM     16  C   UNL     1      45.203   6.264  11.225  0.00  0.00    +0.000 A 
ATOM     17  C   UNL     1      43.836   6.099  11.416  0.00  0.00    +0.000 A 
ATOM     18  N   UNL     1      43.087   5.195  10.755  0.00  0.00    +0.000 NA
ATOM     19  C   UNL     1      43.732   4.410   9.854  0.00  0.00    +0.000 A 
ATOM     20  C   UNL     1      45.099   4.464   9.575  0.00  0.00    +0.000 A 
ATOM     21  C   UNL     1      45.828   5.430  10.287  0.00  0.00    +0.000 A 
BRANCH  20  22
ATOM     22  C   UNL     1      45.711   3.563   8.583  0.00  0.00    +0.000 A 
ATOM     23  C   UNL     1      45.790   2.180   8.759  0.00  0.00    +0.000 A 
ATOM     24  C   UNL     1      46.391   1.398   7.773  0.00  0.00    +0.000 A 
ATOM     25  C   UNL     1      46.898   2.008   6.635  0.00  0.00    +0.000 A 
ATOM     26  C   UNL     1      46.775   3.381   6.526  0.00  0.00    +0.000 A 
ATOM     27  N   UNL     1      46.196   4.161   7.465  0.00  0.00    +0.000 NA
ENDBRANCH  20  22
ENDBRANCH  15  16
ENDBRANCH   1  15
TORSDOF 5
ENDMDL
MODEL 6
REMARK VINA RESULT:    -7.773      4.084      7.165
REMARK INTER + INTRA:         -10.747
REMARK INTER:                  -9.983
REMARK INTRA:                  -0.764
REMARK UNBOUND:                -0.702
REMARK  Name = 
REMARK  5 active torsions:
REMARK  status: ('A' for Active; 'I' for Inactive)
REMARK    1  A    between atoms: C_2  and  C_4
REMARK    2  A    between atoms: N_8  and  C_9
REMARK    3  A    between atoms: C_9  and  C_10
REMARK    4  A    between atoms: C_10  and  C_11
REMARK    5  A    between atoms: C_15  and  C_16
REMARK                            x       y       z     vdW  Elec       q    Type
REMARK                         _______ _______ _______ _____ _____    ______ ____
ROOT
ATOM      1  C   UNL     1      44.426   6.686  12.542  0.00  0.00    +0.000 C 
ENDROOT
BRANCH   1   6
ATOM      2  C   UNL     1      49.100   8.586  12.024  0.00  0.00    +0.000 A 
ATOM      3  C   UNL     1      48.580   7.376  11.579  0.00  0.00    +0.000 A 
ATOM      4  C   UNL     1      47.208   7.151  11.675  0.00  0.00    +0.000 A 
ATOM      5  C   UNL     1      46.381   8.123  12.232  0.00  0.00    +0.000 A 
ATOM      6  N   UNL     1      44.999   8.000  12.284  0.00  0.00    +0.000 N 
ATOM      7  N   UNL     1      46.879   9.284  12.701  0.00  0.00    +0.000 NA
ATOM      8  C   UNL     1      48.221   9.493  12.594  0.00  0.00    +0.000 A 
ATOM      9  H   UNL     1      44.662   8.763  12.867  0.00  0.00    +0.000 HD
BRANCH   2  11
ATOM     10  N   UNL     1      51.416   8.153  12.615  0.00  0.00    +0.000 N 
ATOM     11  C   UNL     1      50.533   8.928  11.911  0.00  0.00    +0.000 C 
ATOM     12  O   UNL     1      50.920   9.841  11.195  0.00  0.00    +0.000 OA
ATOM     13  H   UNL     1      52.399   8.325  12.450  0.00  0.00    +0.000 HD
ATOM     14  H   UNL     1      51.161   7.258  13.007  0.00  0.00    +0.000 HD
ENDBRANCH   2  11
ENDBRANCH   1   6
BRANCH   1  15
ATOM     15  C   UNL     1      43.517   6.254  11.386  0.00  0.00    +0.000 C 
BRANCH  15  16
ATOM     16  C   UNL     1      43.761   4.817  11.009  0.00  0.00    +0.000 A 
ATOM     17  C   UNL     1      43.123   3.779  11.680  0.00  0.00    +0.000 A 
ATOM     18  N   UNL     1      43.257   2.479  11.355  0.00  0.00    +0.000 NA
ATOM     19  C   UNL     1      44.069   2.192  10.305  0.00  0.00    +0.000 A 
ATOM     20  C   UNL     1      44.776   3.135   9.556  0.00  0.00    +0.000 A 
ATOM     21  C   UNL     1      44.592   4.475   9.933  0.00  0.00    +0.000 A 
BRANCH  20  22
ATOM     22  C   UNL     1      45.641   2.726   8.436  0.00  0.00    +0.000 A 
ATOM     23  C   UNL     1      45.995   3.586   7.395  0.00  0.00    +0.000 A 
ATOM     24  C   UNL     1      46.813   3.118   6.368  0.00  0.00    +0.000 A 
ATOM     25  C   UNL     1      47.264   1.807   6.400  0.00  0.00    +0.000 A 
ATOM     26  C   UNL     1      46.881   1.016   7.467  0.00  0.00    +0.000 A 
ATOM     27  N   UNL     1      46.089   1.445   8.475  0.00  0.00    +0.000 NA
ENDBRANCH  20  22
ENDBRANCH  15  16
ENDBRANCH   1  15
TORSDOF 5
ENDMDL
MODEL 7
REMARK VINA RESULT:    -7.732      3.173      4.214
REMARK INTER + INTRA:         -10.694
REMARK INTER:                 -10.026
REMARK INTRA:                  -0.668
REMARK UNBOUND:                -0.702
REMARK  Name = 
REMARK  5 active torsions:
REMARK  status: ('A' for Active; 'I' for Inactive)
REMARK    1  A    between atoms: C_2  and  C_4
REMARK    2  A    between atoms: N_8  and  C_9
REMARK    3  A    between atoms: C_9  and  C_10
REMARK    4  A    between atoms: C_10  and  C_11
REMARK    5  A    between atoms: C_15  and  C_16
REMARK                            x       y       z     vdW  Elec       q    Type
REMARK                         _______ _______ _______ _____ _____    ______ ____
ROOT
ATOM      1  C   UNL     1      43.924   5.173  11.205  0.00  0.00    +0.000 C 
ENDROOT
BRANCH   1   6
ATOM      2  C   UNL     1      46.347   2.147   7.933  0.00  0.00    +0.000 A 
ATOM      3  C   UNL     1      45.538   1.817   9.014  0.00  0.00    +0.000 A 
ATOM      4  C   UNL     1      44.823   2.825   9.659  0.00  0.00    +0.000 A 
ATOM      5  C   UNL     1      44.943   4.145   9.233  0.00  0.00    +0.000 A 
ATOM      6  N   UNL     1      44.199   5.185   9.775  0.00  0.00    +0.000 N 
ATOM      7  N   UNL     1      45.752   4.482   8.209  0.00  0.00    +0.000 NA
ATOM      8  C   UNL     1      46.439   3.485   7.585  0.00  0.00    +0.000 A 
ATOM      9  H   UNL     1      44.586   6.046   9.395  0.00  0.00    +0.000 HD
BRANCH   2  11
ATOM     10  N   UNL     1      46.869  -0.179   7.470  0.00  0.00    +0.000 N 
ATOM     11  C   UNL     1      47.097   1.136   7.160  0.00  0.00    +0.000 C 
ATOM     12  O   UNL     1      47.861   1.454   6.260  0.00  0.00    +0.000 OA
ATOM     13  H   UNL     1      47.303  -0.866   6.867  0.00  0.00    +0.000 HD
ATOM     14  H   UNL     1      46.078  -0.479   8.021  0.00  0.00    +0.000 HD
ENDBRANCH   2  11
ENDBRANCH   1   6
BRANCH   1  15
ATOM     15  C   UNL     1      45.228   5.229  12.008  0.00  0.00    +0.000 C 
BRANCH  15  16
ATOM     16  C   UNL     1      45.770   6.633  12.069  0.00  0.00    +0.000 A 
ATOM     17  C   UNL     1      44.955   7.705  12.415  0.00  0.00    +0.000 A 
ATOM     18  N   UNL     1      45.392   8.973  12.540  0.00  0.00    +0.000 NA
ATOM     19  C   UNL     1      46.712   9.189  12.309  0.00  0.00    +0.000 A 
ATOM     20  C   UNL     1      47.635   8.207  11.944  0.00  0.00    +0.000 A 
ATOM     21  C   UNL     1      47.126   6.903  11.837  0.00  0.00    +0.000 A 
BRANCH  20  22
ATOM     22  C   UNL     1      49.050   8.540  11.707  0.00  0.00    +0.000 A 
ATOM     23  C   UNL     1      50.000   7.592  11.324  0.00  0.00    +0.000 A 
ATOM     24  C   UNL     1      51.322   7.989  11.126  0.00  0.00    +0.000 A 
ATOM     25  C   UNL     1      51.669   9.320  11.310  0.00  0.00    +0.000 A 
ATOM     26  C   UNL     1      50.673  10.203  11.681  0.00  0.00    +0.000 A 
ATOM     27  N   UNL     1      49.384   9.845  11.878  0.00  0.00    +0.000 NA
ENDBRANCH  20  22
ENDBRANCH  15  16
ENDBRANCH   1  15
TORSDOF 5
ENDMDL
MODEL 8
REMARK VINA RESULT:    -7.582      3.609      7.430
REMARK INTER + INTRA:         -10.500
REMARK INTER:                  -9.842
REMARK INTRA:                  -0.657
REMARK UNBOUND:                -0.702
REMARK  Name = 
REMARK  5 active torsions:
REMARK  status: ('A' for Active; 'I' for Inactive)
REMARK    1  A    between atoms: C_2  and  C_4
REMARK    2  A    between atoms: N_8  and  C_9
REMARK    3  A    between atoms: C_9  and  C_10
REMARK    4  A    between atoms: C_10  and  C_11
REMARK    5  A    between atoms: C_15  and  C_16
REMARK                            x       y       z     vdW  Elec       q    Type
REMARK                         _______ _______ _______ _____ _____    ______ ____
ROOT
ATOM      1  C   UNL     1      44.850   7.071  11.392  0.00  0.00    +0.000 C 
ENDROOT
BRANCH   1   6
ATOM      2  C   UNL     1      49.450   8.167  13.229  0.00  0.00    +0.000 A 
ATOM      3  C   UNL     1      48.635   8.906  12.379  0.00  0.00    +0.000 A 
ATOM      4  C   UNL     1      47.324   8.485  12.160  0.00  0.00    +0.000 A 
ATOM      5  C   UNL     1      46.855   7.326  12.771  0.00  0.00    +0.000 A 
ATOM      6  N   UNL     1      45.540   6.894  12.663  0.00  0.00    +0.000 N 
ATOM      7  N   UNL     1      47.646   6.581  13.568  0.00  0.00    +0.000 NA
ATOM      8  C   UNL     1      48.923   7.009  13.778  0.00  0.00    +0.000 A 
ATOM      9  H   UNL     1      45.507   5.961  13.070  0.00  0.00    +0.000 HD
BRANCH   2  11
ATOM     10  N   UNL     1      51.589   7.675  14.268  0.00  0.00    +0.000 N 
ATOM     11  C   UNL     1      50.832   8.570  13.559  0.00  0.00    +0.000 C 
ATOM     12  O   UNL     1      51.294   9.639  13.187  0.00  0.00    +0.000 OA
ATOM     13  H   UNL     1      52.565   7.912  14.397  0.00  0.00    +0.000 HD
ATOM     14  H   UNL     1      51.329   6.704  14.371  0.00  0.00    +0.000 HD
ENDBRANCH   2  11
ENDBRANCH   1   6
BRANCH   1  15
ATOM     15  C   UNL     1      43.542   6.272  11.369  0.00  0.00    +0.000 C 
BRANCH  15  16
ATOM     16  C   UNL     1      43.791   4.831  11.009  0.00  0.00    +0.000 A 
ATOM     17  C   UNL     1      43.169   3.798  11.702  0.00  0.00    +0.000 A 
ATOM     18  N   UNL     1      43.308   2.495  11.393  0.00  0.00    +0.000 NA
ATOM     19  C   UNL     1      44.108   2.200  10.337  0.00  0.00    +0.000 A 
ATOM     20  C   UNL     1      44.799   3.136   9.566  0.00  0.00    +0.000 A 
ATOM     21  C   UNL     1      44.611   4.480   9.927  0.00  0.00    +0.000 A 
BRANCH  20  22
ATOM     22  C   UNL     1      45.652   2.718   8.440  0.00  0.00    +0.000 A 
ATOM     23  C   UNL     1      46.021   3.579   7.405  0.00  0.00    +0.000 A 
ATOM     24  C   UNL     1      46.828   3.102   6.373  0.00  0.00    +0.000 A 
ATOM     25  C   UNL     1      47.251   1.781   6.394  0.00  0.00    +0.000 A 
ATOM     26  C   UNL     1      46.853   0.990   7.455  0.00  0.00    +0.000 A 
ATOM     27  N   UNL     1      46.073   1.427   8.469  0.00  0.00    +0.000 NA
ENDBRANCH  20  22
ENDBRANCH  15  16
ENDBRANCH   1  15
TORSDOF 5
ENDMDL
MODEL 9
REMARK VINA RESULT:    -7.292      2.721      7.520
REMARK INTER + INTRA:         -10.125
REMARK INTER:                  -9.681
REMARK INTRA:                  -0.443
REMARK UNBOUND:                -0.702
REMARK  Name = 
REMARK  5 active torsions:
REMARK  status: ('A' for Active; 'I' for Inactive)
REMARK    1  A    between atoms: C_2  and  C_4
REMARK    2  A    between atoms: N_8  and  C_9
REMARK    3  A    between atoms: C_9  and  C_10
REMARK    4  A    between atoms: C_10  and  C_11
REMARK    5  A    between atoms: C_15  and  C_16
REMARK                            x       y       z     vdW  Elec       q    Type
REMARK                         _______ _______ _______ _____ _____    ______ ____
ROOT
ATOM      1  C   UNL     1      47.772   7.403  12.026  0.00  0.00    +0.000 C 
ENDROOT
BRANCH   1   6
ATOM      2  C   UNL     1      47.540   4.661  16.287  0.00  0.00    +0.000 A 
ATOM      3  C   UNL     1      47.191   4.312  14.988  0.00  0.00    +0.000 A 
ATOM      4  C   UNL     1      47.522   5.172  13.942  0.00  0.00    +0.000 A 
ATOM      5  C   UNL     1      48.172   6.374  14.209  0.00  0.00    +0.000 A 
ATOM      6  N   UNL     1      48.603   7.238  13.212  0.00  0.00    +0.000 N 
ATOM      7  N   UNL     1      48.483   6.740  15.469  0.00  0.00    +0.000 NA
ATOM      8  C   UNL     1      48.160   5.885  16.479  0.00  0.00    +0.000 A 
ATOM      9  H   UNL     1      48.901   8.093  13.678  0.00  0.00    +0.000 HD
BRANCH   2  11
ATOM     10  N   UNL     1      47.968   4.051  18.599  0.00  0.00    +0.000 N 
ATOM     11  C   UNL     1      47.277   3.784  17.447  0.00  0.00    +0.000 C 
ATOM     12  O   UNL     1      46.455   2.880  17.393  0.00  0.00    +0.000 OA
ATOM     13  H   UNL     1      47.705   3.516  19.417  0.00  0.00    +0.000 HD
ATOM     14  H   UNL     1      48.455   4.923  18.751  0.00  0.00    +0.000 HD
ENDBRANCH   2  11
ENDBRANCH   1   6
BRANCH   1  15
ATOM     15  C   UNL     1      46.306   7.622  12.417  0.00  0.00    +0.000 C 
BRANCH  15  16
ATOM     16  C   UNL     1      45.410   6.609  11.755  0.00  0.00    +0.000 A 
ATOM     17  C   UNL     1      44.050   6.558  12.038  0.00  0.00    +0.000 A 
ATOM     18  N   UNL     1      43.188   5.714  11.439  0.00  0.00    +0.000 NA
ATOM     19  C   UNL     1      43.705   4.874  10.506  0.00  0.00    +0.000 A 
ATOM     20  C   UNL     1      45.050   4.814  10.136  0.00  0.00    +0.000 A 
ATOM     21  C   UNL     1      45.901   5.722  10.786  0.00  0.00    +0.000 A 
BRANCH  20  22
ATOM     22  C   UNL     1      45.519   3.861   9.116  0.00  0.00    +0.000 A 
ATOM     23  C   UNL     1      45.380   2.478   9.246  0.00  0.00    +0.000 A 
ATOM     24  C   UNL     1      45.857   1.644   8.236  0.00  0.00    +0.000 A 
ATOM     25  C   UNL     1      46.460   2.203   7.118  0.00  0.00    +0.000 A 
ATOM     26  C   UNL     1      46.554   3.580   7.055  0.00  0.00    +0.000 A 
ATOM     27  N   UNL     1      46.099   4.411   8.018  0.00  0.00    +0.000 NA
ENDBRANCH  20  22
ENDBRANCH  15  16
ENDBRANCH   1  15
TORSDOF 5
ENDMDL
