MODEL 1
REMARK VINA RESULT:    -8.131      0.000      0.000
REMARK INTER + INTRA:         -13.435
REMARK INTER:                 -11.933
REMARK INTRA:                  -1.502
REMARK UNBOUND:                -1.502
REMARK  Name = 
REMARK  10 active torsions:
REMARK  status: ('A' for Active; 'I' for Inactive)
REMARK    1  A    between atoms: C_1  and  O_2
REMARK    2  A    between atoms: O_2  and  C_3
REMARK    3  A    between atoms: C_10  and  C_11
REMARK    4  A    between atoms: N_13  and  C_14
REMARK    5  A    between atoms: C_14  and  C_15
REMARK    6  A    between atoms: C_18  and  C_19
REMARK    7  A    between atoms: C_19  and  N_20
REMARK    8  A    between atoms: N_20  and  C_21
REMARK    9  A    between atoms: N_20  and  C_22
REMARK   10  A    between atoms: C_22  and  C_23
REMARK                            x       y       z     vdW  Elec       q    Type
REMARK                         _______ _______ _______ _____ _____    ______ ____
ROOT
ATOM      1  C   UNL     1      47.481   8.363  13.723  0.00  0.00    +0.000 C 
ENDROOT
BRANCH   1   2
ATOM      2  C   UNL     1      46.651   7.602  12.723  0.00  0.00    +0.000 A 
ATOM      3  C   UNL     1      45.254   7.588  12.826  0.00  0.00    +0.000 A 
ATOM      4  C   UNL     1      44.484   6.841  11.931  0.00  0.00    +0.000 A 
ATOM      5  C   UNL     1      45.094   6.092  10.916  0.00  0.00    +0.000 A 
ATOM      6  C   UNL     1      46.492   6.103  10.817  0.00  0.00    +0.000 A 
ATOM      7  C   UNL     1      47.264   6.848  11.714  0.00  0.00    +0.000 A 
BRANCH   5   8
ATOM      8  C   UNL     1      44.264   5.248   9.968  0.00  0.00    +0.000 C 
BRANCH   8   9
ATOM      9  N   UNL     1      44.729   3.852   9.828  0.00  0.00    +0.000 NA
ATOM     10  C   UNL     1      43.969   2.955  10.708  0.00  0.00    +0.000 C 
BRANCH   9  11
ATOM     11  C   UNL     1      44.585   3.382   8.435  0.00  0.00    +0.000 C 
BRANCH  11  12
ATOM     12  C   UNL     1      45.815   2.686   7.899  0.00  0.00    +0.000 A 
ATOM     13  C   UNL     1      46.761   3.385   7.144  0.00  0.00    +0.000 A 
ATOM     14  C   UNL     1      47.847   2.691   6.633  0.00  0.00    +0.000 A 
ATOM     15  N   UNL     1      48.056   1.371   6.827  0.00  0.00    +0.000 NA
ATOM     16  C   UNL     1      47.139   0.718   7.570  0.00  0.00    +0.000 A 
ATOM     17  C   UNL     1      46.021   1.321   8.124  0.00  0.00    +0.000 A 
ENDBRANCH  11  12
ENDBRANCH   9  11
ENDBRANCH   8   9
ENDBRANCH   5   8
ENDBRANCH   1   2
BRANCH   1  20
ATOM     18  C   UNL     1      48.964   6.919  15.037  0.00  0.00    +0.000 C 
ATOM     19  O   UNL     1      49.843   7.011  14.182  0.00  0.00    +0.000 OA
ATOM     20  N   UNL     1      47.763   7.552  14.882  0.00  0.00    +0.000 N 
ATOM     21  H   UNL     1      47.053   7.489  15.600  0.00  0.00    +0.000 HD
BRANCH  18  29
ATOM     22  C   UNL     1      47.364   4.186  16.411  0.00  0.00    +0.000 A 
ATOM     23  N   UNL     1      46.919   3.169  17.178  0.00  0.00    +0.000 NA
ATOM     24  C   UNL     1      47.562   2.913  18.320  0.00  0.00    +0.000 A 
ATOM     25  N   UNL     1      48.621   3.556  18.803  0.00  0.00    +0.000 NA
ATOM     26  C   UNL     1      49.024   4.569  18.016  0.00  0.00    +0.000 A 
ATOM     27  S   UNL     1      50.368   5.497  18.476  0.00  0.00    +0.000 S 
ATOM     28  C   UNL     1      50.227   6.474  17.096  0.00  0.00    +0.000 A 
ATOM     29  C   UNL     1      49.172   6.124  16.260  0.00  0.00    +0.000 A 
ATOM     30  C   UNL     1      48.459   4.974  16.810  0.00  0.00    +0.000 A 
BRANCH  22  32
ATOM     31  C   UNL     1      47.147   3.638  14.152  0.00  0.00    +0.000 C 
ATOM     32  O   UNL     1      46.694   4.450  15.235  0.00  0.00    +0.000 OA
ENDBRANCH  22  32
ENDBRANCH  18  29
ENDBRANCH   1  20
TORSDOF 8
ENDMDL
MODEL 2
REMARK VINA RESULT:    -7.572      2.512      3.317
REMARK INTER + INTRA:         -12.615
REMARK INTER:                 -11.358
REMARK INTRA:                  -1.257
REMARK UNBOUND:                -1.502
REMARK  Name = 
REMARK  10 active torsions:
REMARK  status: ('A' for Active; 'I' for Inactive)
REMARK    1  A    between atoms: C_1  and  O_2
REMARK    2  A    between atoms: O_2  and  C_3
REMARK    3  A    between atoms: C_10  and  C_11
REMARK    4  A    between atoms: N_13  and  C_14
REMARK    5  A    between atoms: C_14  and  C_15
REMARK    6  A    between atoms: C_18  and  C_19
REMARK    7  A    between atoms: C_19  and  N_20
REMARK    8  A    between atoms: N_20  and  C_21
REMARK    9  A    between atoms: N_20  and  C_22
REMARK   10  A    between atoms: C_22  and  C_23
REMARK                            x       y       z     vdW  Elec       q    Type
REMARK                         _______ _______ _______ _____ _____    ______ ____
ROOT
ATOM      1  C   UNL     1      48.885   7.038  14.137  0.00  0.00    +0.000 C 
ENDROOT
BRANCH   1   2
ATOM      2  C   UNL     1      47.811   6.472  13.246  0.00  0.00    +0.000 A 
ATOM      3  C   UNL     1      47.517   7.078  12.018  0.00  0.00    +0.000 A 
ATOM      4  C   UNL     1      46.487   6.586  11.212  0.00  0.00    +0.000 A 
ATOM      5  C   UNL     1      45.729   5.479  11.619  0.00  0.00    +0.000 A 
ATOM      6  C   UNL     1      46.021   4.878  12.851  0.00  0.00    +0.000 A 
ATOM      7  C   UNL     1      47.050   5.371  13.658  0.00  0.00    +0.000 A 
BRANCH   5   8
ATOM      8  C   UNL     1      44.584   4.967  10.767  0.00  0.00    +0.000 C 
BRANCH   8   9
ATOM      9  N   UNL     1      44.756   3.582  10.282  0.00  0.00    +0.000 NA
ATOM     10  C   UNL     1      43.752   2.689  10.875  0.00  0.00    +0.000 C 
BRANCH   9  11
ATOM     11  C   UNL     1      44.636   3.517   8.810  0.00  0.00    +0.000 C 
BRANCH  11  12
ATOM     12  C   UNL     1      45.767   2.767   8.143  0.00  0.00    +0.000 A 
ATOM     13  C   UNL     1      46.678   3.433   7.319  0.00  0.00    +0.000 A 
ATOM     14  C   UNL     1      47.668   2.695   6.690  0.00  0.00    +0.000 A 
ATOM     15  N   UNL     1      47.814   1.360   6.830  0.00  0.00    +0.000 NA
ATOM     16  C   UNL     1      46.933   0.738   7.640  0.00  0.00    +0.000 A 
ATOM     17  C   UNL     1      45.910   1.387   8.313  0.00  0.00    +0.000 A 
ENDBRANCH  11  12
ENDBRANCH   9  11
ENDBRANCH   8   9
ENDBRANCH   5   8
ENDBRANCH   1   2
BRANCH   1  20
ATOM     18  C   UNL     1      49.068   6.533  16.529  0.00  0.00    +0.000 C 
ATOM     19  O   UNL     1      50.067   5.846  16.327  0.00  0.00    +0.000 OA
ATOM     20  N   UNL     1      48.419   7.152  15.497  0.00  0.00    +0.000 N 
ATOM     21  H   UNL     1      47.611   7.733  15.673  0.00  0.00    +0.000 HD
BRANCH  18  29
ATOM     22  C   UNL     1      47.834   9.249  18.266  0.00  0.00    +0.000 A 
ATOM     23  N   UNL     1      47.349  10.123  19.174  0.00  0.00    +0.000 NA
ATOM     24  C   UNL     1      47.033   9.660  20.386  0.00  0.00    +0.000 A 
ATOM     25  N   UNL     1      47.137   8.406  20.816  0.00  0.00    +0.000 NA
ATOM     26  C   UNL     1      47.636   7.572  19.887  0.00  0.00    +0.000 A 
ATOM     27  S   UNL     1      47.833   5.929  20.262  0.00  0.00    +0.000 S 
ATOM     28  C   UNL     1      48.459   5.602  18.719  0.00  0.00    +0.000 A 
ATOM     29  C   UNL     1      48.531   6.716  17.889  0.00  0.00    +0.000 A 
ATOM     30  C   UNL     1      48.026   7.895  18.590  0.00  0.00    +0.000 A 
BRANCH  22  32
ATOM     31  C   UNL     1      49.451  10.349  16.991  0.00  0.00    +0.000 C 
ATOM     32  O   UNL     1      48.164   9.732  17.017  0.00  0.00    +0.000 OA
ENDBRANCH  22  32
ENDBRANCH  18  29
ENDBRANCH   1  20
TORSDOF 8
ENDMDL
MODEL 3
REMARK VINA RESULT:    -7.415      1.787      2.083
REMARK INTER + INTRA:         -12.385
REMARK INTER:                 -11.346
REMARK INTRA:                  -1.039
REMARK UNBOUND:                -1.502
REMARK  Name = 
REMARK  10 active torsions:
REMARK  status: ('A' for Active; 'I' for Inactive)
REMARK    1  A    between atoms: C_1  and  O_2
REMARK    2  A    between atoms: O_2  and  C_3
REMARK    3  A    between atoms: C_10  and  C_11
REMARK    4  A    between atoms: N_13  and  C_14
REMARK    5  A    between atoms: C_14  and  C_15
REMARK    6  A    between atoms: C_18  and  C_19
REMARK    7  A    between atoms: C_19  and  N_20
REMARK    8  A    between atoms: N_20  and  C_21
REMARK    9  A    between atoms: N_20  and  C_22
REMARK   10  A    between atoms: C_22  and  C_23
REMARK                            x       y       z     vdW  Elec       q    Type
REMARK                         _______ _______ _______ _____ _____    ______ ____
ROOT
ATOM      1  C   UNL     1      48.657   7.276  13.808  0.00  0.00    +0.000 C 
ENDROOT
BRANCH   1   2
ATOM      2  C   UNL     1      47.524   6.678  13.016  0.00  0.00    +0.000 A 
ATOM      3  C   UNL     1      46.846   5.548  13.492  0.00  0.00    +0.000 A 
ATOM      4  C   UNL     1      45.829   4.960  12.736  0.00  0.00    +0.000 A 
ATOM      5  C   UNL     1      45.469   5.489  11.489  0.00  0.00    +0.000 A 
ATOM      6  C   UNL     1      46.153   6.616  11.012  0.00  0.00    +0.000 A 
ATOM      7  C   UNL     1      47.172   7.203  11.766  0.00  0.00    +0.000 A 
BRANCH   5   8
ATOM      8  C   UNL     1      44.394   4.830  10.647  0.00  0.00    +0.000 C 
BRANCH   8   9
ATOM      9  N   UNL     1      44.697   3.439  10.251  0.00  0.00    +0.000 NA
ATOM     10  C   UNL     1      43.811   2.491  10.940  0.00  0.00    +0.000 C 
BRANCH   9  11
ATOM     11  C   UNL     1      44.542   3.256   8.793  0.00  0.00    +0.000 C 
BRANCH  11  12
ATOM     12  C   UNL     1      45.747   2.630   8.128  0.00  0.00    +0.000 A 
ATOM     13  C   UNL     1      46.645   3.409   7.394  0.00  0.00    +0.000 A 
ATOM     14  C   UNL     1      47.706   2.782   6.761  0.00  0.00    +0.000 A 
ATOM     15  N   UNL     1      47.936   1.452   6.817  0.00  0.00    +0.000 NA
ATOM     16  C   UNL     1      47.066   0.719   7.542  0.00  0.00    +0.000 A 
ATOM     17  C   UNL     1      45.975   1.253   8.211  0.00  0.00    +0.000 A 
ENDBRANCH  11  12
ENDBRANCH   9  11
ENDBRANCH   8   9
ENDBRANCH   5   8
ENDBRANCH   1   2
BRANCH   1  20
ATOM     18  C   UNL     1      49.129   6.853  16.176  0.00  0.00    +0.000 C 
ATOM     19  O   UNL     1      50.177   6.280  15.885  0.00  0.00    +0.000 OA
ATOM     20  N   UNL     1      48.315   7.368  15.206  0.00  0.00    +0.000 N 
ATOM     21  H   UNL     1      47.465   7.857  15.455  0.00  0.00    +0.000 HD
BRANCH  18  29
ATOM     22  C   UNL     1      48.937   4.693  18.862  0.00  0.00    +0.000 A 
ATOM     23  N   UNL     1      48.729   4.078  20.046  0.00  0.00    +0.000 NA
ATOM     24  C   UNL     1      48.250   4.805  21.058  0.00  0.00    +0.000 A 
ATOM     25  N   UNL     1      47.948   6.100  21.040  0.00  0.00    +0.000 NA
ATOM     26  C   UNL     1      48.156   6.671  19.840  0.00  0.00    +0.000 A 
ATOM     27  S   UNL     1      47.829   8.323  19.636  0.00  0.00    +0.000 S 
ATOM     28  C   UNL     1      48.296   8.264  18.006  0.00  0.00    +0.000 A 
ATOM     29  C   UNL     1      48.709   7.006  17.581  0.00  0.00    +0.000 A 
ATOM     30  C   UNL     1      48.634   6.055  18.687  0.00  0.00    +0.000 A 
BRANCH  22  32
ATOM     31  C   UNL     1      48.394   3.270  17.093  0.00  0.00    +0.000 C 
ATOM     32  O   UNL     1      49.427   3.937  17.818  0.00  0.00    +0.000 OA
ENDBRANCH  22  32
ENDBRANCH  18  29
ENDBRANCH   1  20
TORSDOF 8
ENDMDL
MODEL 4
REMARK VINA RESULT:    -6.861      3.287      7.721
REMARK INTER + INTRA:         -11.572
REMARK INTER:                  -9.817
REMARK INTRA:                  -1.755
REMARK UNBOUND:                -1.502
REMARK  Name = 
REMARK  10 active torsions:
REMARK  status: ('A' for Active; 'I' for Inactive)
REMARK    1  A    between atoms: C_1  and  O_2
REMARK    2  A    between atoms: O_2  and  C_3
REMARK    3  A    between atoms: C_10  and  C_11
REMARK    4  A    between atoms: N_13  and  C_14
REMARK    5  A    between atoms: C_14  and  C_15
REMARK    6  A    between atoms: C_18  and  C_19
REMARK    7  A    between atoms: C_19  and  N_20
REMARK    8  A    between atoms: N_20  and  C_21
REMARK    9  A    between atoms: N_20  and  C_22
REMARK   10  A    between atoms: C_22  and  C_23
REMARK                            x       y       z     vdW  Elec       q    Type
REMARK                         _______ _______ _______ _____ _____    ______ ____
ROOT
ATOM      1  C   UNL     1      48.425   8.078  11.886  0.00  0.00    +0.000 C 
ENDROOT
BRANCH   1   2
ATOM      2  C   UNL     1      48.593   7.955  13.378  0.00  0.00    +0.000 A 
ATOM      3  C   UNL     1      49.128   6.788  13.937  0.00  0.00    +0.000 A 
ATOM      4  C   UNL     1      49.238   6.651  15.323  0.00  0.00    +0.000 A 
ATOM      5  C   UNL     1      48.814   7.678  16.178  0.00  0.00    +0.000 A 
ATOM      6  C   UNL     1      48.274   8.843  15.617  0.00  0.00    +0.000 A 
ATOM      7  C   UNL     1      48.161   8.980  14.230  0.00  0.00    +0.000 A 
BRANCH   5   8
ATOM      8  C   UNL     1      48.894   7.516  17.683  0.00  0.00    +0.000 C 
BRANCH   8   9
ATOM      9  N   UNL     1      49.814   6.452  18.135  0.00  0.00    +0.000 NA
ATOM     10  C   UNL     1      50.727   6.952  19.172  0.00  0.00    +0.000 C 
BRANCH   9  11
ATOM     11  C   UNL     1      49.066   5.299  18.679  0.00  0.00    +0.000 C 
BRANCH  11  12
ATOM     12  C   UNL     1      49.191   4.046  17.842  0.00  0.00    +0.000 A 
ATOM     13  C   UNL     1      50.403   3.355  17.766  0.00  0.00    +0.000 A 
ATOM     14  C   UNL     1      50.482   2.241  16.946  0.00  0.00    +0.000 A 
ATOM     15  N   UNL     1      49.448   1.770  16.215  0.00  0.00    +0.000 NA
ATOM     16  C   UNL     1      48.283   2.443  16.313  0.00  0.00    +0.000 A 
ATOM     17  C   UNL     1      48.104   3.567  17.105  0.00  0.00    +0.000 A 
ENDBRANCH  11  12
ENDBRANCH   9  11
ENDBRANCH   8   9
ENDBRANCH   5   8
ENDBRANCH   1   2
BRANCH   1  20
ATOM     18  C   UNL     1      46.338   6.922  11.319  0.00  0.00    +0.000 C 
ATOM     19  O   UNL     1      45.677   7.863  11.753  0.00  0.00    +0.000 OA
ATOM     20  N   UNL     1      47.704   6.946  11.355  0.00  0.00    +0.000 N 
ATOM     21  H   UNL     1      48.242   6.178  10.976  0.00  0.00    +0.000 HD
BRANCH  18  29
ATOM     22  C   UNL     1      44.468   4.344  12.652  0.00  0.00    +0.000 A 
ATOM     23  N   UNL     1      43.757   3.224  12.899  0.00  0.00    +0.000 NA
ATOM     24  C   UNL     1      43.459   2.427  11.870  0.00  0.00    +0.000 A 
ATOM     25  N   UNL     1      43.785   2.613  10.594  0.00  0.00    +0.000 NA
ATOM     26  C   UNL     1      44.504   3.731  10.393  0.00  0.00    +0.000 A 
ATOM     27  S   UNL     1      45.002   4.129   8.821  0.00  0.00    +0.000 S 
ATOM     28  C   UNL     1      45.784   5.531   9.372  0.00  0.00    +0.000 A 
ATOM     29  C   UNL     1      45.685   5.732  10.745  0.00  0.00    +0.000 A 
ATOM     30  C   UNL     1      44.907   4.655  11.353  0.00  0.00    +0.000 A 
BRANCH  22  32
ATOM     31  C   UNL     1      46.061   4.876  14.273  0.00  0.00    +0.000 C 
ATOM     32  O   UNL     1      44.778   5.162  13.718  0.00  0.00    +0.000 OA
ENDBRANCH  22  32
ENDBRANCH  18  29
ENDBRANCH   1  20
TORSDOF 8
ENDMDL
MODEL 5
REMARK VINA RESULT:    -6.805      2.567      3.885
REMARK INTER + INTRA:         -11.489
REMARK INTER:                 -10.253
REMARK INTRA:                  -1.236
REMARK UNBOUND:                -1.502
REMARK  Name = 
REMARK  10 active torsions:
REMARK  status: ('A' for Active; 'I' for Inactive)
REMARK    1  A    between atoms: C_1  and  O_2
REMARK    2  A    between atoms: O_2  and  C_3
REMARK    3  A    between atoms: C_10  and  C_11
REMARK    4  A    between atoms: N_13  and  C_14
REMARK    5  A    between atoms: C_14  and  C_15
REMARK    6  A    between atoms: C_18  and  C_19
REMARK    7  A    between atoms: C_19  and  N_20
REMARK    8  A    between atoms: N_20  and  C_21
REMARK    9  A    between atoms: N_20  and  C_22
REMARK   10  A    between atoms: C_22  and  C_23
REMARK                            x       y       z     vdW  Elec       q    Type
REMARK                         _______ _______ _______ _____ _____    ______ ____
ROOT
ATOM      1  C   UNL     1      47.715   4.297  15.959  0.00  0.00    +0.000 C 
ENDROOT
BRANCH   1   2
ATOM      2  C   UNL     1      47.136   4.593  14.601  0.00  0.00    +0.000 A 
ATOM      3  C   UNL     1      46.585   3.564  13.826  0.00  0.00    +0.000 A 
ATOM      4  C   UNL     1      46.092   3.826  12.545  0.00  0.00    +0.000 A 
ATOM      5  C   UNL     1      46.141   5.121  12.012  0.00  0.00    +0.000 A 
ATOM      6  C   UNL     1      46.698   6.148  12.786  0.00  0.00    +0.000 A 
ATOM      7  C   UNL     1      47.194   5.886  14.067  0.00  0.00    +0.000 A 
BRANCH   5   8
ATOM      8  C   UNL     1      45.646   5.401  10.607  0.00  0.00    +0.000 C 
BRANCH   8   9
ATOM      9  N   UNL     1      44.954   4.263   9.965  0.00  0.00    +0.000 NA
ATOM     10  C   UNL     1      43.524   4.263  10.298  0.00  0.00    +0.000 C 
BRANCH   9  11
ATOM     11  C   UNL     1      45.098   4.315   8.495  0.00  0.00    +0.000 C 
BRANCH  11  12
ATOM     12  C   UNL     1      45.900   3.168   7.924  0.00  0.00    +0.000 A 
ATOM     13  C   UNL     1      45.778   1.878   8.449  0.00  0.00    +0.000 A 
ATOM     14  C   UNL     1      46.571   0.870   7.926  0.00  0.00    +0.000 A 
ATOM     15  N   UNL     1      47.457   1.053   6.923  0.00  0.00    +0.000 NA
ATOM     16  C   UNL     1      47.550   2.302   6.421  0.00  0.00    +0.000 A 
ATOM     17  C   UNL     1      46.802   3.376   6.875  0.00  0.00    +0.000 A 
ENDBRANCH  11  12
ENDBRANCH   9  11
ENDBRANCH   8   9
ENDBRANCH   5   8
ENDBRANCH   1   2
BRANCH   1  20
ATOM     18  C   UNL     1      48.268   5.551  17.991  0.00  0.00    +0.000 C 
ATOM     19  O   UNL     1      49.121   4.720  18.296  0.00  0.00    +0.000 OA
ATOM     20  N   UNL     1      47.523   5.412  16.854  0.00  0.00    +0.000 N 
ATOM     21  H   UNL     1      46.839   6.111  16.599  0.00  0.00    +0.000 HD
BRANCH  18  29
ATOM     22  C   UNL     1      48.110   8.946  17.382  0.00  0.00    +0.000 A 
ATOM     23  N   UNL     1      48.029  10.292  17.439  0.00  0.00    +0.000 NA
ATOM     24  C   UNL     1      47.785  10.859  18.624  0.00  0.00    +0.000 A 
ATOM     25  N   UNL     1      47.603  10.237  19.786  0.00  0.00    +0.000 NA
ATOM     26  C   UNL     1      47.705   8.900  19.688  0.00  0.00    +0.000 A 
ATOM     27  S   UNL     1      47.496   7.944  21.074  0.00  0.00    +0.000 S 
ATOM     28  C   UNL     1      47.765   6.520  20.192  0.00  0.00    +0.000 A 
ATOM     29  C   UNL     1      48.015   6.730  18.840  0.00  0.00    +0.000 A 
ATOM     30  C   UNL     1      47.968   8.159  18.539  0.00  0.00    +0.000 A 
BRANCH  22  32
ATOM     31  C   UNL     1      49.763   8.287  15.871  0.00  0.00    +0.000 C 
ATOM     32  O   UNL     1      48.367   8.365  16.158  0.00  0.00    +0.000 OA
ENDBRANCH  22  32
ENDBRANCH  18  29
ENDBRANCH   1  20
TORSDOF 8
ENDMDL
MODEL 6
REMARK VINA RESULT:    -6.766      3.182      5.561
REMARK INTER + INTRA:         -11.433
REMARK INTER:                 -10.008
REMARK INTRA:                  -1.425
REMARK UNBOUND:                -1.502
REMARK  Name = 
REMARK  10 active torsions:
REMARK  status: ('A' for Active; 'I' for Inactive)
REMARK    1  A    between atoms: C_1  and  O_2
REMARK    2  A    between atoms: O_2  and  C_3
REMARK    3  A    between atoms: C_10  and  C_11
REMARK    4  A    between atoms: N_13  and  C_14
REMARK    5  A    between atoms: C_14  and  C_15
REMARK    6  A    between atoms: C_18  and  C_19
REMARK    7  A    between atoms: C_19  and  N_20
REMARK    8  A    between atoms: N_20  and  C_21
REMARK    9  A    between atoms: N_20  and  C_22
REMARK   10  A    between atoms: C_22  and  C_23
REMARK                            x       y       z     vdW  Elec       q    Type
REMARK                         _______ _______ _______ _____ _____    ______ ____
ROOT
ATOM      1  C   UNL     1      48.085   3.334  17.796  0.00  0.00    +0.000 C 
ENDROOT
BRANCH   1   2
ATOM      2  C   UNL     1      47.871   4.200  16.582  0.00  0.00    +0.000 A 
ATOM      3  C   UNL     1      47.138   3.719  15.489  0.00  0.00    +0.000 A 
ATOM      4  C   UNL     1      46.981   4.500  14.341  0.00  0.00    +0.000 A 
ATOM      5  C   UNL     1      47.554   5.777  14.263  0.00  0.00    +0.000 A 
ATOM      6  C   UNL     1      48.292   6.254  15.355  0.00  0.00    +0.000 A 
ATOM      7  C   UNL     1      48.452   5.472  16.502  0.00  0.00    +0.000 A 
BRANCH   5   8
ATOM      8  C   UNL     1      47.420   6.611  13.003  0.00  0.00    +0.000 C 
BRANCH   8   9
ATOM      9  N   UNL     1      46.029   6.951  12.641  0.00  0.00    +0.000 NA
ATOM     10  C   UNL     1      45.803   8.400  12.724  0.00  0.00    +0.000 C 
BRANCH   9  11
ATOM     11  C   UNL     1      45.712   6.500  11.270  0.00  0.00    +0.000 C 
BRANCH  11  12
ATOM     12  C   UNL     1      44.864   5.249  11.223  0.00  0.00    +0.000 A 
ATOM     13  C   UNL     1      44.044   4.901  12.299  0.00  0.00    +0.000 A 
ATOM     14  C   UNL     1      43.324   3.719  12.231  0.00  0.00    +0.000 A 
ATOM     15  N   UNL     1      43.359   2.876  11.175  0.00  0.00    +0.000 NA
ATOM     16  C   UNL     1      44.146   3.238  10.141  0.00  0.00    +0.000 A 
ATOM     17  C   UNL     1      44.903   4.398  10.114  0.00  0.00    +0.000 A 
ENDBRANCH  11  12
ENDBRANCH   9  11
ENDBRANCH   8   9
ENDBRANCH   5   8
ENDBRANCH   1   2
BRANCH   1  20
ATOM     18  C   UNL     1      50.219   2.280  17.210  0.00  0.00    +0.000 C 
ATOM     19  O   UNL     1      49.694   1.696  16.265  0.00  0.00    +0.000 OA
ATOM     20  N   UNL     1      49.491   3.104  18.022  0.00  0.00    +0.000 N 
ATOM     21  H   UNL     1      49.935   3.598  18.784  0.00  0.00    +0.000 HD
BRANCH  18  29
ATOM     22  C   UNL     1      52.824   4.487  17.724  0.00  0.00    +0.000 A 
ATOM     23  N   UNL     1      54.007   5.104  17.924  0.00  0.00    +0.000 NA
ATOM     24  C   UNL     1      55.087   4.345  18.129  0.00  0.00    +0.000 A 
ATOM     25  N   UNL     1      55.135   3.016  18.165  0.00  0.00    +0.000 NA
ATOM     26  C   UNL     1      53.939   2.441  17.948  0.00  0.00    +0.000 A 
ATOM     27  S   UNL     1      53.813   0.749  17.964  0.00  0.00    +0.000 S 
ATOM     28  C   UNL     1      52.150   0.821  17.632  0.00  0.00    +0.000 A 
ATOM     29  C   UNL     1      51.654   2.114  17.505  0.00  0.00    +0.000 A 
ATOM     30  C   UNL     1      52.728   3.084  17.706  0.00  0.00    +0.000 A 
BRANCH  22  32
ATOM     31  C   UNL     1      51.966   6.339  16.592  0.00  0.00    +0.000 C 
ATOM     32  O   UNL     1      51.712   5.275  17.508  0.00  0.00    +0.000 OA
ENDBRANCH  22  32
ENDBRANCH  18  29
ENDBRANCH   1  20
TORSDOF 8
ENDMDL
MODEL 7
REMARK VINA RESULT:    -6.742      3.311      4.984
REMARK INTER + INTRA:         -11.397
REMARK INTER:                 -10.242
REMARK INTRA:                  -1.155
REMARK UNBOUND:                -1.502
REMARK  Name = 
REMARK  10 active torsions:
REMARK  status: ('A' for Active; 'I' for Inactive)
REMARK    1  A    between atoms: C_1  and  O_2
REMARK    2  A    between atoms: O_2  and  C_3
REMARK    3  A    between atoms: C_10  and  C_11
REMARK    4  A    between atoms: N_13  and  C_14
REMARK    5  A    between atoms: C_14  and  C_15
REMARK    6  A    between atoms: C_18  and  C_19
REMARK    7  A    between atoms: C_19  and  N_20
REMARK    8  A    between atoms: N_20  and  C_21
REMARK    9  A    between atoms: N_20  and  C_22
REMARK   10  A    between atoms: C_22  and  C_23
REMARK                            x       y       z     vdW  Elec       q    Type
REMARK                         _______ _______ _______ _____ _____    ______ ____
ROOT
ATOM      1  C   UNL     1      48.542   6.633  14.786  0.00  0.00    +0.000 C 
ENDROOT
BRANCH   1   2
ATOM      2  C   UNL     1      47.580   6.192  13.714  0.00  0.00    +0.000 A 
ATOM      3  C   UNL     1      47.531   6.863  12.486  0.00  0.00    +0.000 A 
ATOM      4  C   UNL     1      46.605   6.489  11.509  0.00  0.00    +0.000 A 
ATOM      5  C   UNL     1      45.709   5.436  11.741  0.00  0.00    +0.000 A 
ATOM      6  C   UNL     1      45.756   4.769  12.973  0.00  0.00    +0.000 A 
ATOM      7  C   UNL     1      46.680   5.145  13.951  0.00  0.00    +0.000 A 
BRANCH   5   8
ATOM      8  C   UNL     1      44.675   5.054  10.700  0.00  0.00    +0.000 C 
BRANCH   8   9
ATOM      9  N   UNL     1      44.785   3.664  10.212  0.00  0.00    +0.000 NA
ATOM     10  C   UNL     1      43.726   2.821  10.782  0.00  0.00    +0.000 C 
BRANCH   9  11
ATOM     11  C   UNL     1      44.691   3.609   8.738  0.00  0.00    +0.000 C 
BRANCH  11  12
ATOM     12  C   UNL     1      45.816   2.837   8.087  0.00  0.00    +0.000 A 
ATOM     13  C   UNL     1      46.736   3.480   7.253  0.00  0.00    +0.000 A 
ATOM     14  C   UNL     1      47.719   2.721   6.639  0.00  0.00    +0.000 A 
ATOM     15  N   UNL     1      47.852   1.387   6.803  0.00  0.00    +0.000 NA
ATOM     16  C   UNL     1      46.964   0.788   7.622  0.00  0.00    +0.000 A 
ATOM     17  C   UNL     1      45.946   1.459   8.282  0.00  0.00    +0.000 A 
ENDBRANCH  11  12
ENDBRANCH   9  11
ENDBRANCH   8   9
ENDBRANCH   5   8
ENDBRANCH   1   2
BRANCH   1  20
ATOM     18  C   UNL     1      50.560   8.026  14.759  0.00  0.00    +0.000 C 
ATOM     19  O   UNL     1      50.176   8.635  15.755  0.00  0.00    +0.000 OA
ATOM     20  N   UNL     1      49.807   7.025  14.212  0.00  0.00    +0.000 N 
ATOM     21  H   UNL     1      50.140   6.513  13.406  0.00  0.00    +0.000 HD
BRANCH  18  29
ATOM     22  C   UNL     1      51.472   8.929  11.554  0.00  0.00    +0.000 A 
ATOM     23  N   UNL     1      52.103   9.254  10.407  0.00  0.00    +0.000 NA
ATOM     24  C   UNL     1      53.431   9.396  10.437  0.00  0.00    +0.000 A 
ATOM     25  N   UNL     1      54.226   9.255  11.494  0.00  0.00    +0.000 NA
ATOM     26  C   UNL     1      53.560   8.918  12.612  0.00  0.00    +0.000 A 
ATOM     27  S   UNL     1      54.417   8.702  14.060  0.00  0.00    +0.000 S 
ATOM     28  C   UNL     1      52.994   8.320  14.902  0.00  0.00    +0.000 A 
ATOM     29  C   UNL     1      51.847   8.349  14.117  0.00  0.00    +0.000 A 
ATOM     30  C   UNL     1      52.188   8.719  12.745  0.00  0.00    +0.000 A 
BRANCH  22  32
ATOM     31  C   UNL     1      49.416  10.024  11.392  0.00  0.00    +0.000 C 
ATOM     32  O   UNL     1      50.101   8.778  11.517  0.00  0.00    +0.000 OA
ENDBRANCH  22  32
ENDBRANCH  18  29
ENDBRANCH   1  20
TORSDOF 8
ENDMDL
MODEL 8
REMARK VINA RESULT:    -6.698      2.688      3.645
REMARK INTER + INTRA:         -11.333
REMARK INTER:                 -10.480
REMARK INTRA:                  -0.853
REMARK UNBOUND:                -1.502
REMARK  Name = 
REMARK  10 active torsions:
REMARK  status: ('A' for Active; 'I' for Inactive)
REMARK    1  A    between atoms: C_1  and  O_2
REMARK    2  A    between atoms: O_2  and  C_3
REMARK    3  A    between atoms: C_10  and  C_11
REMARK    4  A    between atoms: N_13  and  C_14
REMARK    5  A    between atoms: C_14  and  C_15
REMARK    6  A    between atoms: C_18  and  C_19
REMARK    7  A    between atoms: C_19  and  N_20
REMARK    8  A    between atoms: N_20  and  C_21
REMARK    9  A    between atoms: N_20  and  C_22
REMARK   10  A    between atoms: C_22  and  C_23
REMARK                            x       y       z     vdW  Elec       q    Type
REMARK                         _______ _______ _______ _____ _____    ______ ____
ROOT
ATOM      1  C   UNL     1      47.838   4.711  15.747  0.00  0.00    +0.000 C 
ENDROOT
BRANCH   1   2
ATOM      2  C   UNL     1      47.131   4.842  14.424  0.00  0.00    +0.000 A 
ATOM      3  C   UNL     1      46.474   3.740  13.860  0.00  0.00    +0.000 A 
ATOM      4  C   UNL     1      45.861   3.844  12.609  0.00  0.00    +0.000 A 
ATOM      5  C   UNL     1      45.892   5.050  11.897  0.00  0.00    +0.000 A 
ATOM      6  C   UNL     1      46.554   6.150  12.460  0.00  0.00    +0.000 A 
ATOM      7  C   UNL     1      47.170   6.046  13.710  0.00  0.00    +0.000 A 
BRANCH   5   8
ATOM      8  C   UNL     1      45.263   5.155  10.521  0.00  0.00    +0.000 C 
BRANCH   8   9
ATOM      9  N   UNL     1      44.991   3.855   9.873  0.00  0.00    +0.000 NA
ATOM     10  C   UNL     1      43.684   3.326  10.285  0.00  0.00    +0.000 C 
BRANCH   9  11
ATOM     11  C   UNL     1      45.008   3.981   8.401  0.00  0.00    +0.000 C 
BRANCH  11  12
ATOM     12  C   UNL     1      45.956   3.019   7.721  0.00  0.00    +0.000 A 
ATOM     13  C   UNL     1      46.111   1.714   8.194  0.00  0.00    +0.000 A 
ATOM     14  C   UNL     1      47.029   0.885   7.568  0.00  0.00    +0.000 A 
ATOM     15  N   UNL     1      47.785   1.260   6.514  0.00  0.00    +0.000 NA
ATOM     16  C   UNL     1      47.610   2.519   6.064  0.00  0.00    +0.000 A 
ATOM     17  C   UNL     1      46.719   3.423   6.620  0.00  0.00    +0.000 A 
ENDBRANCH  11  12
ENDBRANCH   9  11
ENDBRANCH   8   9
ENDBRANCH   5   8
ENDBRANCH   1   2
BRANCH   1  20
ATOM     18  C   UNL     1      49.064   6.691  16.516  0.00  0.00    +0.000 C 
ATOM     19  O   UNL     1      50.106   6.258  16.030  0.00  0.00    +0.000 OA
ATOM     20  N   UNL     1      47.898   5.983  16.426  0.00  0.00    +0.000 N 
ATOM     21  H   UNL     1      47.039   6.356  16.809  0.00  0.00    +0.000 HD
BRANCH  18  29
ATOM     22  C   UNL     1      47.835   7.731  19.570  0.00  0.00    +0.000 A 
ATOM     23  N   UNL     1      47.424   8.408  20.663  0.00  0.00    +0.000 NA
ATOM     24  C   UNL     1      47.675   9.718  20.724  0.00  0.00    +0.000 A 
ATOM     25  N   UNL     1      48.302  10.455  19.812  0.00  0.00    +0.000 NA
ATOM     26  C   UNL     1      48.682   9.747  18.734  0.00  0.00    +0.000 A 
ATOM     27  S   UNL     1      49.503  10.528  17.471  0.00  0.00    +0.000 S 
ATOM     28  C   UNL     1      49.605   9.086  16.582  0.00  0.00    +0.000 A 
ATOM     29  C   UNL     1      49.029   7.989  17.214  0.00  0.00    +0.000 A 
ATOM     30  C   UNL     1      48.486   8.387  18.510  0.00  0.00    +0.000 A 
BRANCH  22  32
ATOM     31  C   UNL     1      48.577   5.593  20.143  0.00  0.00    +0.000 C 
ATOM     32  O   UNL     1      47.569   6.379  19.509  0.00  0.00    +0.000 OA
ENDBRANCH  22  32
ENDBRANCH  18  29
ENDBRANCH   1  20
TORSDOF 8
ENDMDL
MODEL 9
REMARK VINA RESULT:    -6.399      4.720      6.521
REMARK INTER + INTRA:         -10.893
REMARK INTER:                  -9.743
REMARK INTRA:                  -1.150
REMARK UNBOUND:                -1.502
REMARK  Name = 
REMARK  10 active torsions:
REMARK  status: ('A' for Active; 'I' for Inactive)
REMARK    1  A    between atoms: C_1  and  O_2
REMARK    2  A    between atoms: O_2  and  C_3
REMARK    3  A    between atoms: C_10  and  C_11
REMARK    4  A    between atoms: N_13  and  C_14
REMARK    5  A    between atoms: C_14  and  C_15
REMARK    6  A    between atoms: C_18  and  C_19
REMARK    7  A    between atoms: C_19  and  N_20
REMARK    8  A    between atoms: N_20  and  C_21
REMARK    9  A    between atoms: N_20  and  C_22
REMARK   10  A    between atoms: C_22  and  C_23
REMARK                            x       y       z     vdW  Elec       q    Type
REMARK                         _______ _______ _______ _____ _____    ______ ____
ROOT
ATOM      1  C   UNL     1      49.457   7.273  13.152  0.00  0.00    +0.000 C 
ENDROOT
BRANCH   1   2
ATOM      2  C   UNL     1      48.086   6.730  12.846  0.00  0.00    +0.000 A 
ATOM      3  C   UNL     1      47.474   5.818  13.715  0.00  0.00    +0.000 A 
ATOM      4  C   UNL     1      46.225   5.274  13.408  0.00  0.00    +0.000 A 
ATOM      5  C   UNL     1      45.562   5.631  12.226  0.00  0.00    +0.000 A 
ATOM      6  C   UNL     1      46.178   6.539  11.354  0.00  0.00    +0.000 A 
ATOM      7  C   UNL     1      47.429   7.081  11.659  0.00  0.00    +0.000 A 
BRANCH   5   8
ATOM      8  C   UNL     1      44.224   5.011  11.870  0.00  0.00    +0.000 C 
BRANCH   8   9
ATOM      9  N   UNL     1      44.319   3.691  11.212  0.00  0.00    +0.000 NA
ATOM     10  C   UNL     1      43.413   2.723  11.844  0.00  0.00    +0.000 C 
BRANCH   9  11
ATOM     11  C   UNL     1      43.981   3.788   9.777  0.00  0.00    +0.000 C 
BRANCH  11  12
ATOM     12  C   UNL     1      45.066   3.267   8.862  0.00  0.00    +0.000 A 
ATOM     13  C   UNL     1      45.390   1.907   8.838  0.00  0.00    +0.000 A 
ATOM     14  C   UNL     1      46.426   1.486   8.020  0.00  0.00    +0.000 A 
ATOM     15  N   UNL     1      47.145   2.312   7.230  0.00  0.00    +0.000 NA
ATOM     16  C   UNL     1      46.808   3.618   7.258  0.00  0.00    +0.000 A 
ATOM     17  C   UNL     1      45.789   4.137   8.040  0.00  0.00    +0.000 A 
ENDBRANCH  11  12
ENDBRANCH   9  11
ENDBRANCH   8   9
ENDBRANCH   5   8
ENDBRANCH   1   2
BRANCH   1  20
ATOM     18  C   UNL     1      51.261   8.491  12.024  0.00  0.00    +0.000 C 
ATOM     19  O   UNL     1      52.005   8.320  12.987  0.00  0.00    +0.000 OA
ATOM     20  N   UNL     1      49.981   8.011  12.029  0.00  0.00    +0.000 N 
ATOM     21  H   UNL     1      49.382   8.136  11.224  0.00  0.00    +0.000 HD
BRANCH  18  29
ATOM     22  C   UNL     1      53.334   7.688   9.382  0.00  0.00    +0.000 A 
ATOM     23  N   UNL     1      54.111   7.660   8.279  0.00  0.00    +0.000 NA
ATOM     24  C   UNL     1      54.156   8.753   7.513  0.00  0.00    +0.000 A 
ATOM     25  N   UNL     1      53.506   9.896   7.711  0.00  0.00    +0.000 NA
ATOM     26  C   UNL     1      52.755   9.887   8.826  0.00  0.00    +0.000 A 
ATOM     27  S   UNL     1      51.850  11.264   9.233  0.00  0.00    +0.000 S 
ATOM     28  C   UNL     1      51.255  10.517  10.636  0.00  0.00    +0.000 A 
ATOM     29  C   UNL     1      51.719   9.221  10.827  0.00  0.00    +0.000 A 
ATOM     30  C   UNL     1      52.611   8.842   9.734  0.00  0.00    +0.000 A 
BRANCH  22  32
ATOM     31  C   UNL     1      54.124   5.511   9.675  0.00  0.00    +0.000 C 
ATOM     32  O   UNL     1      53.294   6.559  10.174  0.00  0.00    +0.000 OA
ENDBRANCH  22  32
ENDBRANCH  18  29
ENDBRANCH   1  20
TORSDOF 8
ENDMDL
