MODEL 1
REMARK VINA RESULT:    -6.508      0.000      0.000
REMARK INTER + INTRA:         -10.437
REMARK INTER:                  -9.551
REMARK INTRA:                  -0.886
REMARK UNBOUND:                -0.886
REMARK  Name = 
REMARK  11 active torsions:
REMARK  status: ('A' for Active; 'I' for Inactive)
REMARK    1  A    between atoms: C_1  and  C_2
REMARK    2  A    between atoms: C_2  and  C_3
REMARK    3  A    between atoms: C_3  and  N_4
REMARK    4  A    between atoms: C_5  and  C_7
REMARK    5  A    between atoms: C_10  and  O_11
REMARK    6  A    between atoms: O_11  and  C_12
REMARK    7  A    between atoms: C_12  and  C_13
REMARK    8  A    between atoms: C_13  and  C_14
REMARK    9  A    between atoms: C_13  and  C_15
REMARK   10  A    between atoms: C_13  and  C_16
REMARK   11  A    between atoms: C_20  and  C_21
REMARK                            x       y       z     vdW  Elec       q    Type
REMARK                         _______ _______ _______ _____ _____    ______ ____
ROOT
ATOM      1  C   UNL     1      48.358   7.223  13.125  0.00  0.00    +0.000 A 
ATOM      2  C   UNL     1      47.397   7.473  12.151  0.00  0.00    +0.000 A 
ATOM      3  C   UNL     1      46.251   6.679  12.109  0.00  0.00    +0.000 A 
ATOM      4  C   UNL     1      46.093   5.655  13.036  0.00  0.00    +0.000 A 
ATOM      5  C   UNL     1      47.113   5.479  13.973  0.00  0.00    +0.000 A 
ATOM      6  N   UNL     1      48.246   6.232  14.050  0.00  0.00    +0.000 NA
ENDROOT
BRANCH   1   8
ATOM      7  N   UNL     1      50.669   7.651  12.434  0.00  0.00    +0.000 N 
ATOM      8  C   UNL     1      49.582   8.094  13.161  0.00  0.00    +0.000 C 
ATOM      9  O   UNL     1      49.590   9.136  13.809  0.00  0.00    +0.000 OA
ATOM     10  H   UNL     1      50.576   6.756  11.960  0.00  0.00    +0.000 HD
BRANCH   7  11
ATOM     11  C   UNL     1      51.926   8.372  12.414  0.00  0.00    +0.000 C 
BRANCH  11  13
ATOM     12  C   UNL     1      53.274   9.683  10.715  0.00  0.00    +0.000 C 
ATOM     13  C   UNL     1      52.603   8.358  11.044  0.00  0.00    +0.000 C 
ENDBRANCH  11  13
ENDBRANCH   7  11
ENDBRANCH   1   8
BRANCH   4  14
ATOM     14  O   UNL     1      45.026   4.803  13.111  0.00  0.00    +0.000 OA
BRANCH  14  15
ATOM     15  C   UNL     1      45.164   3.545  12.428  0.00  0.00    +0.000 C 
BRANCH  15  16
ATOM     16  C   UNL     1      44.170   3.439  11.235  0.00  0.00    +0.000 C 
ATOM     17  C   UNL     1      43.305   2.175  11.424  0.00  0.00    +0.000 C 
ATOM     18  C   UNL     1      43.253   4.679  11.233  0.00  0.00    +0.000 C 
BRANCH  16  19
ATOM     19  C   UNL     1      44.941   3.353   9.908  0.00  0.00    +0.000 A 
ATOM     20  C   UNL     1      45.222   4.500   9.162  0.00  0.00    +0.000 A 
ATOM     21  C   UNL     1      45.905   4.387   7.953  0.00  0.00    +0.000 A 
ATOM     22  C   UNL     1      46.306   3.135   7.508  0.00  0.00    +0.000 A 
ATOM     23  C   UNL     1      46.008   2.035   8.301  0.00  0.00    +0.000 A 
ATOM     24  N   UNL     1      45.336   2.126   9.479  0.00  0.00    +0.000 NA
BRANCH  23  25
ATOM     25  C   UNL     1      46.415   0.714   7.903  0.00  0.00    +0.000 C 
ATOM     26  N   UNL     1      46.708  -0.367   7.596  0.00  0.00    +0.000 NA
ENDBRANCH  23  25
ENDBRANCH  16  19
ENDBRANCH  15  16
ENDBRANCH  14  15
ENDBRANCH   4  14
TORSDOF 8
ENDMDL
MODEL 2
REMARK VINA RESULT:    -6.375      3.348      7.736
REMARK INTER + INTRA:         -10.243
REMARK INTER:                  -9.391
REMARK INTRA:                  -0.851
REMARK UNBOUND:                -0.886
REMARK  Name = 
REMARK  11 active torsions:
REMARK  status: ('A' for Active; 'I' for Inactive)
REMARK    1  A    between atoms: C_1  and  C_2
REMARK    2  A    between atoms: C_2  and  C_3
REMARK    3  A    between atoms: C_3  and  N_4
REMARK    4  A    between atoms: C_5  and  C_7
REMARK    5  A    between atoms: C_10  and  O_11
REMARK    6  A    between atoms: O_11  and  C_12
REMARK    7  A    between atoms: C_12  and  C_13
REMARK    8  A    between atoms: C_13  and  C_14
REMARK    9  A    between atoms: C_13  and  C_15
REMARK   10  A    between atoms: C_13  and  C_16
REMARK   11  A    between atoms: C_20  and  C_21
REMARK                            x       y       z     vdW  Elec       q    Type
REMARK                         _______ _______ _______ _____ _____    ______ ____
ROOT
ATOM      1  C   UNL     1      46.030   5.605  11.886  0.00  0.00    +0.000 A 
ATOM      2  C   UNL     1      46.866   6.651  11.506  0.00  0.00    +0.000 A 
ATOM      3  C   UNL     1      47.920   7.015  12.345  0.00  0.00    +0.000 A 
ATOM      4  C   UNL     1      48.111   6.332  13.540  0.00  0.00    +0.000 A 
ATOM      5  C   UNL     1      47.218   5.301  13.837  0.00  0.00    +0.000 A 
ATOM      6  N   UNL     1      46.179   4.911  13.046  0.00  0.00    +0.000 NA
ENDROOT
BRANCH   1   8
ATOM      7  N   UNL     1      45.251   4.465   9.863  0.00  0.00    +0.000 N 
ATOM      8  C   UNL     1      44.907   5.221  10.966  0.00  0.00    +0.000 C 
ATOM      9  O   UNL     1      43.756   5.574  11.203  0.00  0.00    +0.000 OA
ATOM     10  H   UNL     1      46.238   4.256   9.734  0.00  0.00    +0.000 HD
BRANCH   7  11
ATOM     11  C   UNL     1      44.274   4.061   8.872  0.00  0.00    +0.000 C 
BRANCH  11  13
ATOM     12  C   UNL     1      46.406   3.718   7.547  0.00  0.00    +0.000 C 
ATOM     13  C   UNL     1      44.906   3.474   7.611  0.00  0.00    +0.000 C 
ENDBRANCH  11  13
ENDBRANCH   7  11
ENDBRANCH   1   8
BRANCH   4  14
ATOM     14  O   UNL     1      49.098   6.581  14.455  0.00  0.00    +0.000 OA
BRANCH  14  15
ATOM     15  C   UNL     1      48.699   7.269  15.653  0.00  0.00    +0.000 C 
BRANCH  15  16
ATOM     16  C   UNL     1      49.378   6.652  16.910  0.00  0.00    +0.000 C 
ATOM     17  C   UNL     1      50.909   6.702  16.719  0.00  0.00    +0.000 C 
ATOM     18  C   UNL     1      49.000   7.489  18.149  0.00  0.00    +0.000 C 
BRANCH  16  19
ATOM     19  C   UNL     1      48.921   5.196  17.100  0.00  0.00    +0.000 A 
ATOM     20  C   UNL     1      47.574   4.884  17.302  0.00  0.00    +0.000 A 
ATOM     21  C   UNL     1      47.194   3.557  17.491  0.00  0.00    +0.000 A 
ATOM     22  C   UNL     1      48.158   2.560  17.468  0.00  0.00    +0.000 A 
ATOM     23  C   UNL     1      49.477   2.933  17.250  0.00  0.00    +0.000 A 
ATOM     24  N   UNL     1      49.867   4.222  17.071  0.00  0.00    +0.000 NA
BRANCH  23  25
ATOM     25  C   UNL     1      50.518   1.941  17.196  0.00  0.00    +0.000 C 
ATOM     26  N   UNL     1      51.364   1.145  17.192  0.00  0.00    +0.000 NA
ENDBRANCH  23  25
ENDBRANCH  16  19
ENDBRANCH  15  16
ENDBRANCH  14  15
ENDBRANCH   4  14
TORSDOF 8
ENDMDL
MODEL 3
REMARK VINA RESULT:    -6.308      2.204      2.709
REMARK INTER + INTRA:         -10.144
REMARK INTER:                  -9.390
REMARK INTRA:                  -0.753
REMARK UNBOUND:                -0.886
REMARK  Name = 
REMARK  11 active torsions:
REMARK  status: ('A' for Active; 'I' for Inactive)
REMARK    1  A    between atoms: C_1  and  C_2
REMARK    2  A    between atoms: C_2  and  C_3
REMARK    3  A    between atoms: C_3  and  N_4
REMARK    4  A    between atoms: C_5  and  C_7
REMARK    5  A    between atoms: C_10  and  O_11
REMARK    6  A    between atoms: O_11  and  C_12
REMARK    7  A    between atoms: C_12  and  C_13
REMARK    8  A    between atoms: C_13  and  C_14
REMARK    9  A    between atoms: C_13  and  C_15
REMARK   10  A    between atoms: C_13  and  C_16
REMARK   11  A    between atoms: C_20  and  C_21
REMARK                            x       y       z     vdW  Elec       q    Type
REMARK                         _______ _______ _______ _____ _____    ______ ____
ROOT
ATOM      1  C   UNL     1      48.414   6.592  14.590  0.00  0.00    +0.000 A 
ATOM      2  C   UNL     1      47.832   7.383  13.604  0.00  0.00    +0.000 A 
ATOM      3  C   UNL     1      46.667   6.938  12.977  0.00  0.00    +0.000 A 
ATOM      4  C   UNL     1      46.116   5.716  13.345  0.00  0.00    +0.000 A 
ATOM      5  C   UNL     1      46.773   4.992  14.340  0.00  0.00    +0.000 A 
ATOM      6  N   UNL     1      47.910   5.390  14.979  0.00  0.00    +0.000 NA
ENDROOT
BRANCH   1   8
ATOM      7  N   UNL     1      50.215   6.261  16.216  0.00  0.00    +0.000 N 
ATOM      8  C   UNL     1      49.662   7.091  15.260  0.00  0.00    +0.000 C 
ATOM      9  O   UNL     1      50.142   8.179  14.959  0.00  0.00    +0.000 OA
ATOM     10  H   UNL     1      49.722   5.397  16.421  0.00  0.00    +0.000 HD
BRANCH   7  11
ATOM     11  C   UNL     1      51.395   6.637  16.970  0.00  0.00    +0.000 C 
BRANCH  11  13
ATOM     12  C   UNL     1      52.841   5.316  18.578  0.00  0.00    +0.000 C 
ATOM     13  C   UNL     1      52.391   5.490  17.135  0.00  0.00    +0.000 C 
ENDBRANCH  11  13
ENDBRANCH   7  11
ENDBRANCH   1   8
BRANCH   4  14
ATOM     14  O   UNL     1      44.983   5.159  12.816  0.00  0.00    +0.000 OA
BRANCH  14  15
ATOM     15  C   UNL     1      45.105   3.814  12.322  0.00  0.00    +0.000 C 
BRANCH  15  16
ATOM     16  C   UNL     1      44.157   3.571  11.112  0.00  0.00    +0.000 C 
ATOM     17  C   UNL     1      43.358   2.274  11.363  0.00  0.00    +0.000 C 
ATOM     18  C   UNL     1      43.171   4.752  10.998  0.00  0.00    +0.000 C 
BRANCH  16  19
ATOM     19  C   UNL     1      44.973   3.441   9.816  0.00  0.00    +0.000 A 
ATOM     20  C   UNL     1      45.314   4.566   9.062  0.00  0.00    +0.000 A 
ATOM     21  C   UNL     1      46.037   4.414   7.881  0.00  0.00    +0.000 A 
ATOM     22  C   UNL     1      46.418   3.144   7.471  0.00  0.00    +0.000 A 
ATOM     23  C   UNL     1      46.060   2.067   8.270  0.00  0.00    +0.000 A 
ATOM     24  N   UNL     1      45.348   2.196   9.421  0.00  0.00    +0.000 NA
BRANCH  23  25
ATOM     25  C   UNL     1      46.443   0.728   7.908  0.00  0.00    +0.000 C 
ATOM     26  N   UNL     1      46.715  -0.365   7.626  0.00  0.00    +0.000 NA
ENDBRANCH  23  25
ENDBRANCH  16  19
ENDBRANCH  15  16
ENDBRANCH  14  15
ENDBRANCH   4  14
TORSDOF 8
ENDMDL
MODEL 4
REMARK VINA RESULT:    -6.285      2.770      3.972
REMARK INTER + INTRA:         -10.110
REMARK INTER:                  -9.390
REMARK INTRA:                  -0.720
REMARK UNBOUND:                -0.886
REMARK  Name = 
REMARK  11 active torsions:
REMARK  status: ('A' for Active; 'I' for Inactive)
REMARK    1  A    between atoms: C_1  and  C_2
REMARK    2  A    between atoms: C_2  and  C_3
REMARK    3  A    between atoms: C_3  and  N_4
REMARK    4  A    between atoms: C_5  and  C_7
REMARK    5  A    between atoms: C_10  and  O_11
REMARK    6  A    between atoms: O_11  and  C_12
REMARK    7  A    between atoms: C_12  and  C_13
REMARK    8  A    between atoms: C_13  and  C_14
REMARK    9  A    between atoms: C_13  and  C_15
REMARK   10  A    between atoms: C_13  and  C_16
REMARK   11  A    between atoms: C_20  and  C_21
REMARK                            x       y       z     vdW  Elec       q    Type
REMARK                         _______ _______ _______ _____ _____    ______ ____
ROOT
ATOM      1  C   UNL     1      48.280   5.527  15.815  0.00  0.00    +0.000 A 
ATOM      2  C   UNL     1      47.518   4.363  15.783  0.00  0.00    +0.000 A 
ATOM      3  C   UNL     1      46.755   4.083  14.649  0.00  0.00    +0.000 A 
ATOM      4  C   UNL     1      46.768   4.970  13.579  0.00  0.00    +0.000 A 
ATOM      5  C   UNL     1      47.560   6.113  13.705  0.00  0.00    +0.000 A 
ATOM      6  N   UNL     1      48.322   6.423  14.792  0.00  0.00    +0.000 NA
ENDROOT
BRANCH   1   8
ATOM      7  N   UNL     1      48.447   6.420  18.089  0.00  0.00    +0.000 N 
ATOM      8  C   UNL     1      49.103   5.807  17.040  0.00  0.00    +0.000 C 
ATOM      9  O   UNL     1      50.290   5.499  17.081  0.00  0.00    +0.000 OA
ATOM     10  H   UNL     1      47.472   6.669  17.944  0.00  0.00    +0.000 HD
BRANCH   7  11
ATOM     11  C   UNL     1      49.130   6.786  19.314  0.00  0.00    +0.000 C 
BRANCH  11  13
ATOM     12  C   UNL     1      47.592   8.751  19.759  0.00  0.00    +0.000 C 
ATOM     13  C   UNL     1      49.033   8.277  19.633  0.00  0.00    +0.000 C 
ENDBRANCH  11  13
ENDBRANCH   7  11
ENDBRANCH   1   8
BRANCH   4  14
ATOM     14  O   UNL     1      46.071   4.824  12.410  0.00  0.00    +0.000 OA
BRANCH  14  15
ATOM     15  C   UNL     1      45.378   3.577  12.233  0.00  0.00    +0.000 C 
BRANCH  15  16
ATOM     16  C   UNL     1      44.381   3.651  11.040  0.00  0.00    +0.000 C 
ATOM     17  C   UNL     1      43.313   2.551  11.220  0.00  0.00    +0.000 C 
ATOM     18  C   UNL     1      43.688   5.028  11.048  0.00  0.00    +0.000 C 
BRANCH  16  19
ATOM     19  C   UNL     1      45.127   3.445   9.711  0.00  0.00    +0.000 A 
ATOM     20  C   UNL     1      45.435   4.527   8.882  0.00  0.00    +0.000 A 
ATOM     21  C   UNL     1      46.094   4.306   7.675  0.00  0.00    +0.000 A 
ATOM     22  C   UNL     1      46.444   3.012   7.314  0.00  0.00    +0.000 A 
ATOM     23  C   UNL     1      46.121   1.982   8.186  0.00  0.00    +0.000 A 
ATOM     24  N   UNL     1      45.472   2.178   9.364  0.00  0.00    +0.000 NA
BRANCH  23  25
ATOM     25  C   UNL     1      46.476   0.623   7.875  0.00  0.00    +0.000 C 
ATOM     26  N   UNL     1      46.722  -0.485   7.628  0.00  0.00    +0.000 NA
ENDBRANCH  23  25
ENDBRANCH  16  19
ENDBRANCH  15  16
ENDBRANCH  14  15
ENDBRANCH   4  14
TORSDOF 8
ENDMDL
MODEL 5
REMARK VINA RESULT:    -6.218      2.872      7.887
REMARK INTER + INTRA:         -10.012
REMARK INTER:                  -9.158
REMARK INTRA:                  -0.853
REMARK UNBOUND:                -0.886
REMARK  Name = 
REMARK  11 active torsions:
REMARK  status: ('A' for Active; 'I' for Inactive)
REMARK    1  A    between atoms: C_1  and  C_2
REMARK    2  A    between atoms: C_2  and  C_3
REMARK    3  A    between atoms: C_3  and  N_4
REMARK    4  A    between atoms: C_5  and  C_7
REMARK    5  A    between atoms: C_10  and  O_11
REMARK    6  A    between atoms: O_11  and  C_12
REMARK    7  A    between atoms: C_12  and  C_13
REMARK    8  A    between atoms: C_13  and  C_14
REMARK    9  A    between atoms: C_13  and  C_15
REMARK   10  A    between atoms: C_13  and  C_16
REMARK   11  A    between atoms: C_20  and  C_21
REMARK                            x       y       z     vdW  Elec       q    Type
REMARK                         _______ _______ _______ _____ _____    ______ ____
ROOT
ATOM      1  C   UNL     1      45.281   4.842  11.580  0.00  0.00    +0.000 A 
ATOM      2  C   UNL     1      45.536   6.099  11.042  0.00  0.00    +0.000 A 
ATOM      3  C   UNL     1      46.244   7.031  11.801  0.00  0.00    +0.000 A 
ATOM      4  C   UNL     1      46.676   6.688  13.078  0.00  0.00    +0.000 A 
ATOM      5  C   UNL     1      46.368   5.405  13.533  0.00  0.00    +0.000 A 
ATOM      6  N   UNL     1      45.682   4.464  12.824  0.00  0.00    +0.000 NA
ENDROOT
BRANCH   1   8
ATOM      7  N   UNL     1      45.266   3.144   9.815  0.00  0.00    +0.000 N 
ATOM      8  C   UNL     1      44.526   3.848  10.744  0.00  0.00    +0.000 C 
ATOM      9  O   UNL     1      43.319   3.691  10.897  0.00  0.00    +0.000 OA
ATOM     10  H   UNL     1      46.253   3.373   9.739  0.00  0.00    +0.000 HD
BRANCH   7  11
ATOM     11  C   UNL     1      44.657   2.184   8.915  0.00  0.00    +0.000 C 
BRANCH  11  13
ATOM     12  C   UNL     1      46.763   1.782   7.563  0.00  0.00    +0.000 C 
ATOM     13  C   UNL     1      45.648   1.150   8.383  0.00  0.00    +0.000 C 
ENDBRANCH  11  13
ENDBRANCH   7  11
ENDBRANCH   1   8
BRANCH   4  14
ATOM     14  O   UNL     1      47.375   7.499  13.930  0.00  0.00    +0.000 OA
BRANCH  14  15
ATOM     15  C   UNL     1      48.733   7.115  14.205  0.00  0.00    +0.000 C 
BRANCH  15  16
ATOM     16  C   UNL     1      49.151   7.515  15.649  0.00  0.00    +0.000 C 
ATOM     17  C   UNL     1      50.668   7.799  15.665  0.00  0.00    +0.000 C 
ATOM     18  C   UNL     1      48.397   8.798  16.054  0.00  0.00    +0.000 C 
BRANCH  16  19
ATOM     19  C   UNL     1      48.820   6.379  16.631  0.00  0.00    +0.000 A 
ATOM     20  C   UNL     1      48.312   6.651  17.904  0.00  0.00    +0.000 A 
ATOM     21  C   UNL     1      48.041   5.601  18.778  0.00  0.00    +0.000 A 
ATOM     22  C   UNL     1      48.272   4.295  18.370  0.00  0.00    +0.000 A 
ATOM     23  C   UNL     1      48.765   4.089  17.090  0.00  0.00    +0.000 A 
ATOM     24  N   UNL     1      49.043   5.102  16.226  0.00  0.00    +0.000 NA
BRANCH  23  25
ATOM     25  C   UNL     1      49.006   2.757  16.604  0.00  0.00    +0.000 C 
ATOM     26  N   UNL     1      49.240   1.690  16.207  0.00  0.00    +0.000 NA
ENDBRANCH  23  25
ENDBRANCH  16  19
ENDBRANCH  15  16
ENDBRANCH  14  15
ENDBRANCH   4  14
TORSDOF 8
ENDMDL
MODEL 6
REMARK VINA RESULT:    -5.803      3.220      4.711
REMARK INTER + INTRA:          -9.403
REMARK INTER:                  -8.681
REMARK INTRA:                  -0.722
REMARK UNBOUND:                -0.886
REMARK  Name = 
REMARK  11 active torsions:
REMARK  status: ('A' for Active; 'I' for Inactive)
REMARK    1  A    between atoms: C_1  and  C_2
REMARK    2  A    between atoms: C_2  and  C_3
REMARK    3  A    between atoms: C_3  and  N_4
REMARK    4  A    between atoms: C_5  and  C_7
REMARK    5  A    between atoms: C_10  and  O_11
REMARK    6  A    between atoms: O_11  and  C_12
REMARK    7  A    between atoms: C_12  and  C_13
REMARK    8  A    between atoms: C_13  and  C_14
REMARK    9  A    between atoms: C_13  and  C_15
REMARK   10  A    between atoms: C_13  and  C_16
REMARK   11  A    between atoms: C_20  and  C_21
REMARK                            x       y       z     vdW  Elec       q    Type
REMARK                         _______ _______ _______ _____ _____    ______ ____
ROOT
ATOM      1  C   UNL     1      48.576   5.441  16.134  0.00  0.00    +0.000 A 
ATOM      2  C   UNL     1      47.791   4.300  16.267  0.00  0.00    +0.000 A 
ATOM      3  C   UNL     1      46.924   3.949  15.232  0.00  0.00    +0.000 A 
ATOM      4  C   UNL     1      46.858   4.744  14.094  0.00  0.00    +0.000 A 
ATOM      5  C   UNL     1      47.681   5.871  14.053  0.00  0.00    +0.000 A 
ATOM      6  N   UNL     1      48.543   6.248  15.040  0.00  0.00    +0.000 NA
ENDROOT
BRANCH   1   8
ATOM      7  N   UNL     1      48.922   6.224  18.428  0.00  0.00    +0.000 N 
ATOM      8  C   UNL     1      49.511   5.798  17.254  0.00  0.00    +0.000 C 
ATOM      9  O   UNL     1      50.725   5.710  17.107  0.00  0.00    +0.000 OA
ATOM     10  H   UNL     1      47.908   6.299  18.438  0.00  0.00    +0.000 HD
BRANCH   7  11
ATOM     11  C   UNL     1      49.706   6.639  19.575  0.00  0.00    +0.000 C 
BRANCH  11  13
ATOM     12  C   UNL     1      48.899   4.600  20.845  0.00  0.00    +0.000 C 
ATOM     13  C   UNL     1      50.090   5.478  20.491  0.00  0.00    +0.000 C 
ENDBRANCH  11  13
ENDBRANCH   7  11
ENDBRANCH   1   8
BRANCH   4  14
ATOM     14  O   UNL     1      46.057   4.521  13.007  0.00  0.00    +0.000 OA
BRANCH  14  15
ATOM     15  C   UNL     1      44.766   5.156  13.025  0.00  0.00    +0.000 C 
BRANCH  15  16
ATOM     16  C   UNL     1      44.307   5.540  11.589  0.00  0.00    +0.000 C 
ATOM     17  C   UNL     1      42.823   5.962  11.641  0.00  0.00    +0.000 C 
ATOM     18  C   UNL     1      45.149   6.732  11.093  0.00  0.00    +0.000 C 
BRANCH  16  19
ATOM     19  C   UNL     1      44.479   4.343  10.639  0.00  0.00    +0.000 A 
ATOM     20  C   UNL     1      43.929   3.096  10.944  0.00  0.00    +0.000 A 
ATOM     21  C   UNL     1      44.120   2.025  10.073  0.00  0.00    +0.000 A 
ATOM     22  C   UNL     1      44.847   2.214   8.907  0.00  0.00    +0.000 A 
ATOM     23  C   UNL     1      45.356   3.480   8.654  0.00  0.00    +0.000 A 
ATOM     24  N   UNL     1      45.187   4.534   9.496  0.00  0.00    +0.000 NA
BRANCH  23  25
ATOM     25  C   UNL     1      46.102   3.742   7.452  0.00  0.00    +0.000 C 
ATOM     26  N   UNL     1      46.689   3.992   6.481  0.00  0.00    +0.000 NA
ENDBRANCH  23  25
ENDBRANCH  16  19
ENDBRANCH  15  16
ENDBRANCH  14  15
ENDBRANCH   4  14
TORSDOF 8
ENDMDL
MODEL 7
REMARK VINA RESULT:    -5.803      3.062      7.999
REMARK INTER + INTRA:          -9.402
REMARK INTER:                  -8.364
REMARK INTRA:                  -1.038
REMARK UNBOUND:                -0.886
REMARK  Name = 
REMARK  11 active torsions:
REMARK  status: ('A' for Active; 'I' for Inactive)
REMARK    1  A    between atoms: C_1  and  C_2
REMARK    2  A    between atoms: C_2  and  C_3
REMARK    3  A    between atoms: C_3  and  N_4
REMARK    4  A    between atoms: C_5  and  C_7
REMARK    5  A    between atoms: C_10  and  O_11
REMARK    6  A    between atoms: O_11  and  C_12
REMARK    7  A    between atoms: C_12  and  C_13
REMARK    8  A    between atoms: C_13  and  C_14
REMARK    9  A    between atoms: C_13  and  C_15
REMARK   10  A    between atoms: C_13  and  C_16
REMARK   11  A    between atoms: C_20  and  C_21
REMARK                            x       y       z     vdW  Elec       q    Type
REMARK                         _______ _______ _______ _____ _____    ______ ____
ROOT
ATOM      1  C   UNL     1      45.724   6.168  12.328  0.00  0.00    +0.000 A 
ATOM      2  C   UNL     1      46.847   5.448  12.724  0.00  0.00    +0.000 A 
ATOM      3  C   UNL     1      47.881   6.112  13.385  0.00  0.00    +0.000 A 
ATOM      4  C   UNL     1      47.772   7.476  13.630  0.00  0.00    +0.000 A 
ATOM      5  C   UNL     1      46.610   8.113  13.191  0.00  0.00    +0.000 A 
ATOM      6  N   UNL     1      45.576   7.503  12.546  0.00  0.00    +0.000 NA
ENDROOT
BRANCH   1   8
ATOM      7  N   UNL     1      44.868   4.116  11.301  0.00  0.00    +0.000 N 
ATOM      8  C   UNL     1      44.617   5.435  11.626  0.00  0.00    +0.000 C 
ATOM      9  O   UNL     1      43.559   5.999  11.366  0.00  0.00    +0.000 OA
ATOM     10  H   UNL     1      45.790   3.751  11.525  0.00  0.00    +0.000 HD
BRANCH   7  11
ATOM     11  C   UNL     1      43.904   3.304  10.585  0.00  0.00    +0.000 C 
BRANCH  11  13
ATOM     12  C   UNL     1      44.815   3.681   8.251  0.00  0.00    +0.000 C 
ATOM     13  C   UNL     1      44.480   2.658   9.326  0.00  0.00    +0.000 C 
ENDBRANCH  11  13
ENDBRANCH   7  11
ENDBRANCH   1   8
BRANCH   4  14
ATOM     14  O   UNL     1      48.704   8.251  14.264  0.00  0.00    +0.000 OA
BRANCH  14  15
ATOM     15  C   UNL     1      48.530   8.428  15.681  0.00  0.00    +0.000 C 
BRANCH  15  16
ATOM     16  C   UNL     1      49.630   7.673  16.482  0.00  0.00    +0.000 C 
ATOM     17  C   UNL     1      50.743   7.239  15.505  0.00  0.00    +0.000 C 
ATOM     18  C   UNL     1      50.231   8.626  17.535  0.00  0.00    +0.000 C 
BRANCH  16  19
ATOM     19  C   UNL     1      49.029   6.438  17.173  0.00  0.00    +0.000 A 
ATOM     20  C   UNL     1      48.239   6.565  18.318  0.00  0.00    +0.000 A 
ATOM     21  C   UNL     1      47.726   5.425  18.933  0.00  0.00    +0.000 A 
ATOM     22  C   UNL     1      47.999   4.176  18.395  0.00  0.00    +0.000 A 
ATOM     23  C   UNL     1      48.779   4.116  17.248  0.00  0.00    +0.000 A 
ATOM     24  N   UNL     1      49.295   5.217  16.640  0.00  0.00    +0.000 NA
BRANCH  23  25
ATOM     25  C   UNL     1      49.079   2.851  16.633  0.00  0.00    +0.000 C 
ATOM     26  N   UNL     1      49.362   1.840  16.136  0.00  0.00    +0.000 NA
ENDBRANCH  23  25
ENDBRANCH  16  19
ENDBRANCH  15  16
ENDBRANCH  14  15
ENDBRANCH   4  14
TORSDOF 8
ENDMDL
MODEL 8
REMARK VINA RESULT:    -5.753      4.177      8.448
REMARK INTER + INTRA:          -9.330
REMARK INTER:                  -8.531
REMARK INTRA:                  -0.798
REMARK UNBOUND:                -0.886
REMARK  Name = 
REMARK  11 active torsions:
REMARK  status: ('A' for Active; 'I' for Inactive)
REMARK    1  A    between atoms: C_1  and  C_2
REMARK    2  A    between atoms: C_2  and  C_3
REMARK    3  A    between atoms: C_3  and  N_4
REMARK    4  A    between atoms: C_5  and  C_7
REMARK    5  A    between atoms: C_10  and  O_11
REMARK    6  A    between atoms: O_11  and  C_12
REMARK    7  A    between atoms: C_12  and  C_13
REMARK    8  A    between atoms: C_13  and  C_14
REMARK    9  A    between atoms: C_13  and  C_15
REMARK   10  A    between atoms: C_13  and  C_16
REMARK   11  A    between atoms: C_20  and  C_21
REMARK                            x       y       z     vdW  Elec       q    Type
REMARK                         _______ _______ _______ _____ _____    ______ ____
ROOT
ATOM      1  C   UNL     1      45.871   4.759  12.434  0.00  0.00    +0.000 A 
ATOM      2  C   UNL     1      46.539   5.973  12.310  0.00  0.00    +0.000 A 
ATOM      3  C   UNL     1      47.374   6.397  13.344  0.00  0.00    +0.000 A 
ATOM      4  C   UNL     1      47.520   5.602  14.475  0.00  0.00    +0.000 A 
ATOM      5  C   UNL     1      46.807   4.403  14.510  0.00  0.00    +0.000 A 
ATOM      6  N   UNL     1      45.983   3.951  13.523  0.00  0.00    +0.000 NA
ENDROOT
BRANCH   1   8
ATOM      7  N   UNL     1      45.072   2.983  10.948  0.00  0.00    +0.000 N 
ATOM      8  C   UNL     1      44.983   4.314  11.307  0.00  0.00    +0.000 C 
ATOM      9  O   UNL     1      44.232   5.109  10.751  0.00  0.00    +0.000 OA
ATOM     10  H   UNL     1      45.752   2.414  11.444  0.00  0.00    +0.000 HD
BRANCH   7  11
ATOM     11  C   UNL     1      44.303   2.431   9.850  0.00  0.00    +0.000 C 
BRANCH  11  13
ATOM     12  C   UNL     1      45.789   2.968   7.869  0.00  0.00    +0.000 C 
ATOM     13  C   UNL     1      45.176   1.872   8.728  0.00  0.00    +0.000 C 
ENDBRANCH  11  13
ENDBRANCH   7  11
ENDBRANCH   1   8
BRANCH   4  14
ATOM     14  O   UNL     1      48.302   5.893  15.560  0.00  0.00    +0.000 OA
BRANCH  14  15
ATOM     15  C   UNL     1      48.026   5.152  16.761  0.00  0.00    +0.000 C 
BRANCH  15  16
ATOM     16  C   UNL     1      48.858   5.692  17.960  0.00  0.00    +0.000 C 
ATOM     17  C   UNL     1      48.893   7.233  17.882  0.00  0.00    +0.000 C 
ATOM     18  C   UNL     1      48.175   5.273  19.278  0.00  0.00    +0.000 C 
BRANCH  16  19
ATOM     19  C   UNL     1      50.289   5.132  17.909  0.00  0.00    +0.000 A 
ATOM     20  C   UNL     1      51.398   5.978  17.984  0.00  0.00    +0.000 A 
ATOM     21  C   UNL     1      52.682   5.442  17.914  0.00  0.00    +0.000 A 
ATOM     22  C   UNL     1      52.843   4.070  17.779  0.00  0.00    +0.000 A 
ATOM     23  C   UNL     1      51.703   3.282  17.723  0.00  0.00    +0.000 A 
ATOM     24  N   UNL     1      50.443   3.788  17.781  0.00  0.00    +0.000 NA
BRANCH  23  25
ATOM     25  C   UNL     1      51.807   1.852  17.602  0.00  0.00    +0.000 C 
ATOM     26  N   UNL     1      51.905   0.696  17.544  0.00  0.00    +0.000 NA
ENDBRANCH  23  25
ENDBRANCH  16  19
ENDBRANCH  15  16
ENDBRANCH  14  15
ENDBRANCH   4  14
TORSDOF 8
ENDMDL
MODEL 9
REMARK VINA RESULT:    -5.686      4.167      9.236
REMARK INTER + INTRA:          -9.231
REMARK INTER:                  -8.472
REMARK INTRA:                  -0.759
REMARK UNBOUND:                -0.886
REMARK  Name = 
REMARK  11 active torsions:
REMARK  status: ('A' for Active; 'I' for Inactive)
REMARK    1  A    between atoms: C_1  and  C_2
REMARK    2  A    between atoms: C_2  and  C_3
REMARK    3  A    between atoms: C_3  and  N_4
REMARK    4  A    between atoms: C_5  and  C_7
REMARK    5  A    between atoms: C_10  and  O_11
REMARK    6  A    between atoms: O_11  and  C_12
REMARK    7  A    between atoms: C_12  and  C_13
REMARK    8  A    between atoms: C_13  and  C_14
REMARK    9  A    between atoms: C_13  and  C_15
REMARK   10  A    between atoms: C_13  and  C_16
REMARK   11  A    between atoms: C_20  and  C_21
REMARK                            x       y       z     vdW  Elec       q    Type
REMARK                         _______ _______ _______ _____ _____    ______ ____
ROOT
ATOM      1  C   UNL     1      45.748   4.539  12.315  0.00  0.00    +0.000 A 
ATOM      2  C   UNL     1      46.318   5.806  12.229  0.00  0.00    +0.000 A 
ATOM      3  C   UNL     1      47.159   6.242  13.254  0.00  0.00    +0.000 A 
ATOM      4  C   UNL     1      47.407   5.408  14.338  0.00  0.00    +0.000 A 
ATOM      5  C   UNL     1      46.787   4.158  14.337  0.00  0.00    +0.000 A 
ATOM      6  N   UNL     1      45.962   3.691  13.357  0.00  0.00    +0.000 NA
ENDROOT
BRANCH   1   8
ATOM      7  N   UNL     1      45.166   2.866  10.624  0.00  0.00    +0.000 N 
ATOM      8  C   UNL     1      44.854   4.082  11.199  0.00  0.00    +0.000 C 
ATOM      9  O   UNL     1      43.906   4.771  10.835  0.00  0.00    +0.000 OA
ATOM     10  H   UNL     1      45.994   2.389  10.970  0.00  0.00    +0.000 HD
BRANCH   7  11
ATOM     11  C   UNL     1      44.412   2.326   9.510  0.00  0.00    +0.000 C 
BRANCH  11  13
ATOM     12  C   UNL     1      45.922   3.250   7.697  0.00  0.00    +0.000 C 
ATOM     13  C   UNL     1      45.282   2.006   8.296  0.00  0.00    +0.000 C 
ENDBRANCH  11  13
ENDBRANCH   7  11
ENDBRANCH   1   8
BRANCH   4  14
ATOM     14  O   UNL     1      48.206   5.705  15.409  0.00  0.00    +0.000 OA
BRANCH  14  15
ATOM     15  C   UNL     1      48.242   4.732  16.467  0.00  0.00    +0.000 C 
BRANCH  15  16
ATOM     16  C   UNL     1      49.347   5.072  17.508  0.00  0.00    +0.000 C 
ATOM     17  C   UNL     1      50.097   3.774  17.874  0.00  0.00    +0.000 C 
ATOM     18  C   UNL     1      50.344   6.066  16.877  0.00  0.00    +0.000 C 
BRANCH  16  19
ATOM     19  C   UNL     1      48.718   5.688  18.769  0.00  0.00    +0.000 A 
ATOM     20  C   UNL     1      48.578   4.942  19.942  0.00  0.00    +0.000 A 
ATOM     21  C   UNL     1      47.985   5.522  21.061  0.00  0.00    +0.000 A 
ATOM     22  C   UNL     1      47.548   6.837  21.000  0.00  0.00    +0.000 A 
ATOM     23  C   UNL     1      47.727   7.529  19.810  0.00  0.00    +0.000 A 
ATOM     24  N   UNL     1      48.296   6.977  18.706  0.00  0.00    +0.000 NA
BRANCH  23  25
ATOM     25  C   UNL     1      47.313   8.901  19.692  0.00  0.00    +0.000 C 
ATOM     26  N   UNL     1      46.969  10.003  19.557  0.00  0.00    +0.000 NA
ENDBRANCH  23  25
ENDBRANCH  16  19
ENDBRANCH  15  16
ENDBRANCH  14  15
ENDBRANCH   4  14
TORSDOF 8
ENDMDL
