MODEL 1
REMARK VINA RESULT:    -5.854      0.000      0.000
REMARK INTER + INTRA:          -8.142
REMARK INTER:                  -7.566
REMARK INTRA:                  -0.577
REMARK UNBOUND:                -0.577
REMARK  Name = 
REMARK  7 active torsions:
REMARK  status: ('A' for Active; 'I' for Inactive)
REMARK    1  A    between atoms: C_1  and  N_2
REMARK    2  A    between atoms: N_2  and  C_3
REMARK    3  A    between atoms: N_2  and  C_4
REMARK    4  A    between atoms: C_4  and  C_5
REMARK    5  A    between atoms: C_5  and  C_6
REMARK    6  A    between atoms: C_9  and  C_10
REMARK    7  A    between atoms: C_10  and  N_11
REMARK                            x       y       z     vdW  Elec       q    Type
REMARK                         _______ _______ _______ _____ _____    ______ ____
ROOT
ATOM      1  C   UNL     1      48.451   8.165  12.537  0.00  0.00    +0.000 A 
ATOM      2  C   UNL     1      47.121   8.525  12.300  0.00  0.00    +0.000 A 
ATOM      3  C   UNL     1      46.114   7.557  12.373  0.00  0.00    +0.000 A 
ATOM      4  C   UNL     1      46.447   6.244  12.665  0.00  0.00    +0.000 A 
ATOM      5  N   UNL     1      47.734   5.874  12.910  0.00  0.00    +0.000 NA
ATOM      6  C   UNL     1      48.691   6.827  12.838  0.00  0.00    +0.000 A 
ENDROOT
BRANCH   1   7
ATOM      7  C   UNL     1      49.588   9.156  12.501  0.00  0.00    +0.000 C 
BRANCH   7   8
ATOM      8  C   UNL     1      50.954   8.459  12.591  0.00  0.00    +0.000 C 
BRANCH   8  10
ATOM      9  C   UNL     1      51.614   7.447  10.520  0.00  0.00    +0.000 C 
ATOM     10  N   UNL     1      51.814   8.606  11.400  0.00  0.00    +0.000 NA
ATOM     11  C   UNL     1      51.529   9.834  10.652  0.00  0.00    +0.000 C 
ENDBRANCH   8  10
ENDBRANCH   7   8
ENDBRANCH   1   7
BRANCH   4  12
ATOM     12  C   UNL     1      45.399   5.134  12.720  0.00  0.00    +0.000 C 
BRANCH  12  13
ATOM     13  N   UNL     1      44.362   5.211  11.653  0.00  0.00    +0.000 N 
ATOM     14  C   UNL     1      43.168   4.339  11.866  0.00  0.00    +0.000 C 
ATOM     15  C   UNL     1      43.574   2.909  11.491  0.00  0.00    +0.000 C 
ATOM     16  C   UNL     1      44.356   3.276  10.279  0.00  0.00    +0.000 A 
ATOM     17  C   UNL     1      44.515   2.588   9.095  0.00  0.00    +0.000 A 
ATOM     18  C   UNL     1      45.182   3.266   8.087  0.00  0.00    +0.000 A 
ATOM     19  N   UNL     1      45.736   4.504   8.221  0.00  0.00    +0.000 NA
ATOM     20  C   UNL     1      45.562   5.141   9.409  0.00  0.00    +0.000 A 
ATOM     21  C   UNL     1      44.848   4.576  10.446  0.00  0.00    +0.000 A 
ENDBRANCH  12  13
ENDBRANCH   4  12
TORSDOF 5
ENDMDL
MODEL 2
REMARK VINA RESULT:    -5.641      2.185      2.763
REMARK INTER + INTRA:          -7.867
REMARK INTER:                  -7.325
REMARK INTRA:                  -0.542
REMARK UNBOUND:                -0.577
REMARK  Name = 
REMARK  7 active torsions:
REMARK  status: ('A' for Active; 'I' for Inactive)
REMARK    1  A    between atoms: C_1  and  N_2
REMARK    2  A    between atoms: N_2  and  C_3
REMARK    3  A    between atoms: N_2  and  C_4
REMARK    4  A    between atoms: C_4  and  C_5
REMARK    5  A    between atoms: C_5  and  C_6
REMARK    6  A    between atoms: C_9  and  C_10
REMARK    7  A    between atoms: C_10  and  N_11
REMARK                            x       y       z     vdW  Elec       q    Type
REMARK                         _______ _______ _______ _____ _____    ______ ____
ROOT
ATOM      1  C   UNL     1      47.661   8.170  13.839  0.00  0.00    +0.000 A 
ATOM      2  C   UNL     1      46.443   8.350  13.177  0.00  0.00    +0.000 A 
ATOM      3  C   UNL     1      45.675   7.237  12.820  0.00  0.00    +0.000 A 
ATOM      4  C   UNL     1      46.136   5.964  13.113  0.00  0.00    +0.000 A 
ATOM      5  N   UNL     1      47.314   5.767  13.767  0.00  0.00    +0.000 NA
ATOM      6  C   UNL     1      48.039   6.857  14.107  0.00  0.00    +0.000 A 
ENDROOT
BRANCH   1   7
ATOM      7  C   UNL     1      48.534   9.321  14.278  0.00  0.00    +0.000 C 
BRANCH   7   8
ATOM      8  C   UNL     1      49.735   8.841  15.108  0.00  0.00    +0.000 C 
BRANCH   8  10
ATOM      9  C   UNL     1      48.504  10.015  16.798  0.00  0.00    +0.000 C 
ATOM     10  N   UNL     1      49.664   9.149  16.550  0.00  0.00    +0.000 NA
ATOM     11  C   UNL     1      49.550   7.944  17.375  0.00  0.00    +0.000 C 
ENDBRANCH   8  10
ENDBRANCH   7   8
ENDBRANCH   1   7
BRANCH   4  12
ATOM     12  C   UNL     1      45.361   4.708  12.715  0.00  0.00    +0.000 C 
BRANCH  12  13
ATOM     13  N   UNL     1      44.359   4.920  11.633  0.00  0.00    +0.000 N 
ATOM     14  C   UNL     1      43.151   4.044  11.710  0.00  0.00    +0.000 C 
ATOM     15  C   UNL     1      43.555   2.661  11.187  0.00  0.00    +0.000 C 
ATOM     16  C   UNL     1      44.377   3.154  10.047  0.00  0.00    +0.000 A 
ATOM     17  C   UNL     1      44.566   2.604   8.798  0.00  0.00    +0.000 A 
ATOM     18  C   UNL     1      45.270   3.384   7.894  0.00  0.00    +0.000 A 
ATOM     19  N   UNL     1      45.830   4.592   8.185  0.00  0.00    +0.000 NA
ATOM     20  C   UNL     1      45.626   5.091   9.433  0.00  0.00    +0.000 A 
ATOM     21  C   UNL     1      44.876   4.421  10.376  0.00  0.00    +0.000 A 
ENDBRANCH  12  13
ENDBRANCH   4  12
TORSDOF 5
ENDMDL
MODEL 3
REMARK VINA RESULT:    -5.609      1.715      2.259
REMARK INTER + INTRA:          -7.826
REMARK INTER:                  -7.295
REMARK INTRA:                  -0.530
REMARK UNBOUND:                -0.577
REMARK  Name = 
REMARK  7 active torsions:
REMARK  status: ('A' for Active; 'I' for Inactive)
REMARK    1  A    between atoms: C_1  and  N_2
REMARK    2  A    between atoms: N_2  and  C_3
REMARK    3  A    between atoms: N_2  and  C_4
REMARK    4  A    between atoms: C_4  and  C_5
REMARK    5  A    between atoms: C_5  and  C_6
REMARK    6  A    between atoms: C_9  and  C_10
REMARK    7  A    between atoms: C_10  and  N_11
REMARK                            x       y       z     vdW  Elec       q    Type
REMARK                         _______ _______ _______ _____ _____    ______ ____
ROOT
ATOM      1  C   UNL     1      47.645   9.057  12.222  0.00  0.00    +0.000 A 
ATOM      2  C   UNL     1      48.227   7.792  12.110  0.00  0.00    +0.000 A 
ATOM      3  C   UNL     1      47.422   6.649  12.148  0.00  0.00    +0.000 A 
ATOM      4  C   UNL     1      46.053   6.781  12.312  0.00  0.00    +0.000 A 
ATOM      5  N   UNL     1      45.464   8.005  12.412  0.00  0.00    +0.000 NA
ATOM      6  C   UNL     1      46.261   9.096  12.368  0.00  0.00    +0.000 A 
ENDROOT
BRANCH   1   7
ATOM      7  C   UNL     1      48.444  10.336  12.166  0.00  0.00    +0.000 C 
BRANCH   7   8
ATOM      8  C   UNL     1      48.680  10.921  13.567  0.00  0.00    +0.000 C 
BRANCH   8  10
ATOM      9  C   UNL     1      50.925  10.089  13.707  0.00  0.00    +0.000 C 
ATOM     10  N   UNL     1      49.636  10.173  14.407  0.00  0.00    +0.000 NA
ATOM     11  C   UNL     1      49.839  10.797  15.716  0.00  0.00    +0.000 C 
ENDBRANCH   8  10
ENDBRANCH   7   8
ENDBRANCH   1   7
BRANCH   4  12
ATOM     12  C   UNL     1      45.125   5.571  12.400  0.00  0.00    +0.000 C 
BRANCH  12  13
ATOM     13  N   UNL     1      44.180   5.433  11.256  0.00  0.00    +0.000 N 
ATOM     14  C   UNL     1      43.008   4.542  11.507  0.00  0.00    +0.000 C 
ATOM     15  C   UNL     1      43.500   3.095  11.389  0.00  0.00    +0.000 C 
ATOM     16  C   UNL     1      44.367   3.317  10.199  0.00  0.00    +0.000 A 
ATOM     17  C   UNL     1      44.653   2.468   9.151  0.00  0.00    +0.000 A 
ATOM     18  C   UNL     1      45.375   3.022   8.105  0.00  0.00    +0.000 A 
ATOM     19  N   UNL     1      45.866   4.294   8.090  0.00  0.00    +0.000 NA
ATOM     20  C   UNL     1      45.567   5.091   9.150  0.00  0.00    +0.000 A 
ATOM     21  C   UNL     1      44.791   4.651  10.202  0.00  0.00    +0.000 A 
ENDBRANCH  12  13
ENDBRANCH   4  12
TORSDOF 5
ENDMDL
MODEL 4
REMARK VINA RESULT:    -5.600      4.563      8.076
REMARK INTER + INTRA:          -7.814
REMARK INTER:                  -7.346
REMARK INTRA:                  -0.469
REMARK UNBOUND:                -0.577
REMARK  Name = 
REMARK  7 active torsions:
REMARK  status: ('A' for Active; 'I' for Inactive)
REMARK    1  A    between atoms: C_1  and  N_2
REMARK    2  A    between atoms: N_2  and  C_3
REMARK    3  A    between atoms: N_2  and  C_4
REMARK    4  A    between atoms: C_4  and  C_5
REMARK    5  A    between atoms: C_5  and  C_6
REMARK    6  A    between atoms: C_9  and  C_10
REMARK    7  A    between atoms: C_10  and  N_11
REMARK                            x       y       z     vdW  Elec       q    Type
REMARK                         _______ _______ _______ _____ _____    ______ ____
ROOT
ATOM      1  C   UNL     1      46.196   5.496  12.350  0.00  0.00    +0.000 A 
ATOM      2  C   UNL     1      47.193   6.261  12.962  0.00  0.00    +0.000 A 
ATOM      3  C   UNL     1      47.677   5.894  14.222  0.00  0.00    +0.000 A 
ATOM      4  C   UNL     1      47.150   4.782  14.860  0.00  0.00    +0.000 A 
ATOM      5  N   UNL     1      46.186   4.018  14.277  0.00  0.00    +0.000 NA
ATOM      6  C   UNL     1      45.737   4.389  13.057  0.00  0.00    +0.000 A 
ENDROOT
BRANCH   1   7
ATOM      7  C   UNL     1      45.641   5.815  10.983  0.00  0.00    +0.000 C 
BRANCH   7   8
ATOM      8  C   UNL     1      44.258   5.180  10.768  0.00  0.00    +0.000 C 
BRANCH   8  10
ATOM      9  C   UNL     1      45.323   4.402   8.765  0.00  0.00    +0.000 C 
ATOM     10  N   UNL     1      44.184   4.197   9.668  0.00  0.00    +0.000 NA
ATOM     11  C   UNL     1      44.195   2.814  10.152  0.00  0.00    +0.000 C 
ENDBRANCH   8  10
ENDBRANCH   7   8
ENDBRANCH   1   7
BRANCH   4  12
ATOM     12  C   UNL     1      47.609   4.353  16.253  0.00  0.00    +0.000 C 
BRANCH  12  13
ATOM     13  N   UNL     1      48.419   5.373  16.976  0.00  0.00    +0.000 N 
ATOM     14  C   UNL     1      49.879   5.070  17.069  0.00  0.00    +0.000 C 
ATOM     15  C   UNL     1      50.059   4.018  18.170  0.00  0.00    +0.000 C 
ATOM     16  C   UNL     1      49.086   4.617  19.125  0.00  0.00    +0.000 A 
ATOM     17  C   UNL     1      49.111   4.645  20.503  0.00  0.00    +0.000 A 
ATOM     18  C   UNL     1      48.135   5.419  21.110  0.00  0.00    +0.000 A 
ATOM     19  N   UNL     1      47.140   6.073  20.446  0.00  0.00    +0.000 NA
ATOM     20  C   UNL     1      47.149   6.009  19.088  0.00  0.00    +0.000 A 
ATOM     21  C   UNL     1      48.124   5.324  18.393  0.00  0.00    +0.000 A 
ENDBRANCH  12  13
ENDBRANCH   4  12
TORSDOF 5
ENDMDL
MODEL 5
REMARK VINA RESULT:    -5.410      1.559      6.857
REMARK INTER + INTRA:          -7.568
REMARK INTER:                  -7.030
REMARK INTRA:                  -0.538
REMARK UNBOUND:                -0.577
REMARK  Name = 
REMARK  7 active torsions:
REMARK  status: ('A' for Active; 'I' for Inactive)
REMARK    1  A    between atoms: C_1  and  N_2
REMARK    2  A    between atoms: N_2  and  C_3
REMARK    3  A    between atoms: N_2  and  C_4
REMARK    4  A    between atoms: C_4  and  C_5
REMARK    5  A    between atoms: C_5  and  C_6
REMARK    6  A    between atoms: C_9  and  C_10
REMARK    7  A    between atoms: C_10  and  N_11
REMARK                            x       y       z     vdW  Elec       q    Type
REMARK                         _______ _______ _______ _____ _____    ______ ____
ROOT
ATOM      1  C   UNL     1      45.060   4.259  10.080  0.00  0.00    +0.000 A 
ATOM      2  C   UNL     1      44.956   3.812  11.401  0.00  0.00    +0.000 A 
ATOM      3  C   UNL     1      45.465   4.595  12.442  0.00  0.00    +0.000 A 
ATOM      4  C   UNL     1      46.081   5.802  12.153  0.00  0.00    +0.000 A 
ATOM      5  N   UNL     1      46.184   6.260  10.875  0.00  0.00    +0.000 NA
ATOM      6  C   UNL     1      45.681   5.489   9.884  0.00  0.00    +0.000 A 
ENDROOT
BRANCH   1   7
ATOM      7  C   UNL     1      44.515   3.482   8.907  0.00  0.00    +0.000 C 
BRANCH   7   8
ATOM      8  C   UNL     1      45.227   2.130   8.740  0.00  0.00    +0.000 C 
BRANCH   8  10
ATOM      9  C   UNL     1      46.863   0.817   7.579  0.00  0.00    +0.000 C 
ATOM     10  N   UNL     1      46.497   2.179   7.989  0.00  0.00    +0.000 NA
ATOM     11  C   UNL     1      46.413   3.033   6.802  0.00  0.00    +0.000 C 
ENDBRANCH   8  10
ENDBRANCH   7   8
ENDBRANCH   1   7
BRANCH   4  12
ATOM     12  C   UNL     1      46.691   6.684  13.242  0.00  0.00    +0.000 C 
BRANCH  12  13
ATOM     13  N   UNL     1      48.114   6.377  13.559  0.00  0.00    +0.000 N 
ATOM     14  C   UNL     1      48.501   6.577  14.988  0.00  0.00    +0.000 C 
ATOM     15  C   UNL     1      48.686   8.083  15.205  0.00  0.00    +0.000 C 
ATOM     16  C   UNL     1      49.389   8.346  13.919  0.00  0.00    +0.000 A 
ATOM     17  C   UNL     1      50.383   9.256  13.633  0.00  0.00    +0.000 A 
ATOM     18  C   UNL     1      50.950   9.155  12.372  0.00  0.00    +0.000 A 
ATOM     19  N   UNL     1      50.541   8.284  11.406  0.00  0.00    +0.000 NA
ATOM     20  C   UNL     1      49.550   7.412  11.731  0.00  0.00    +0.000 A 
ATOM     21  C   UNL     1      48.977   7.388  12.985  0.00  0.00    +0.000 A 
ENDBRANCH  12  13
ENDBRANCH   4  12
TORSDOF 5
ENDMDL
MODEL 6
REMARK VINA RESULT:    -5.368      3.418      7.405
REMARK INTER + INTRA:          -7.514
REMARK INTER:                  -7.016
REMARK INTRA:                  -0.498
REMARK UNBOUND:                -0.577
REMARK  Name = 
REMARK  7 active torsions:
REMARK  status: ('A' for Active; 'I' for Inactive)
REMARK    1  A    between atoms: C_1  and  N_2
REMARK    2  A    between atoms: N_2  and  C_3
REMARK    3  A    between atoms: N_2  and  C_4
REMARK    4  A    between atoms: C_4  and  C_5
REMARK    5  A    between atoms: C_5  and  C_6
REMARK    6  A    between atoms: C_9  and  C_10
REMARK    7  A    between atoms: C_10  and  N_11
REMARK                            x       y       z     vdW  Elec       q    Type
REMARK                         _______ _______ _______ _____ _____    ______ ____
ROOT
ATOM      1  C   UNL     1      45.356   6.530  12.266  0.00  0.00    +0.000 A 
ATOM      2  C   UNL     1      45.793   7.762  12.762  0.00  0.00    +0.000 A 
ATOM      3  C   UNL     1      46.949   7.826  13.546  0.00  0.00    +0.000 A 
ATOM      4  C   UNL     1      47.644   6.663  13.838  0.00  0.00    +0.000 A 
ATOM      5  N   UNL     1      47.241   5.455  13.357  0.00  0.00    +0.000 NA
ATOM      6  C   UNL     1      46.123   5.417  12.597  0.00  0.00    +0.000 A 
ENDROOT
BRANCH   1   7
ATOM      7  C   UNL     1      44.133   6.385  11.394  0.00  0.00    +0.000 C 
BRANCH   7   8
ATOM      8  C   UNL     1      43.174   5.312  11.934  0.00  0.00    +0.000 C 
BRANCH   8  10
ATOM      9  C   UNL     1      43.896   4.257   9.905  0.00  0.00    +0.000 C 
ATOM     10  N   UNL     1      43.038   4.109  11.088  0.00  0.00    +0.000 NA
ATOM     11  C   UNL     1      43.402   2.881  11.798  0.00  0.00    +0.000 C 
ENDBRANCH   8  10
ENDBRANCH   7   8
ENDBRANCH   1   7
BRANCH   4  12
ATOM     12  C   UNL     1      48.890   6.662  14.721  0.00  0.00    +0.000 C 
BRANCH  12  13
ATOM     13  N   UNL     1      48.609   6.656  16.184  0.00  0.00    +0.000 N 
ATOM     14  C   UNL     1      49.742   7.106  17.047  0.00  0.00    +0.000 C 
ATOM     15  C   UNL     1      50.735   5.942  17.144  0.00  0.00    +0.000 C 
ATOM     16  C   UNL     1      49.712   4.871  17.293  0.00  0.00    +0.000 A 
ATOM     17  C   UNL     1      49.769   3.697  18.014  0.00  0.00    +0.000 A 
ATOM     18  C   UNL     1      48.589   2.973  18.084  0.00  0.00    +0.000 A 
ATOM     19  N   UNL     1      47.435   3.308  17.439  0.00  0.00    +0.000 NA
ATOM     20  C   UNL     1      47.429   4.469  16.732  0.00  0.00    +0.000 A 
ATOM     21  C   UNL     1      48.533   5.293  16.667  0.00  0.00    +0.000 A 
ENDBRANCH  12  13
ENDBRANCH   4  12
TORSDOF 5
ENDMDL
MODEL 7
REMARK VINA RESULT:    -5.227      4.746      5.934
REMARK INTER + INTRA:          -7.331
REMARK INTER:                  -6.962
REMARK INTRA:                  -0.369
REMARK UNBOUND:                -0.577
REMARK  Name = 
REMARK  7 active torsions:
REMARK  status: ('A' for Active; 'I' for Inactive)
REMARK    1  A    between atoms: C_1  and  N_2
REMARK    2  A    between atoms: N_2  and  C_3
REMARK    3  A    between atoms: N_2  and  C_4
REMARK    4  A    between atoms: C_4  and  C_5
REMARK    5  A    between atoms: C_5  and  C_6
REMARK    6  A    between atoms: C_9  and  C_10
REMARK    7  A    between atoms: C_10  and  N_11
REMARK                            x       y       z     vdW  Elec       q    Type
REMARK                         _______ _______ _______ _____ _____    ______ ____
ROOT
ATOM      1  C   UNL     1      49.759   4.072  17.573  0.00  0.00    +0.000 A 
ATOM      2  C   UNL     1      49.000   2.954  17.214  0.00  0.00    +0.000 A 
ATOM      3  C   UNL     1      47.947   3.091  16.304  0.00  0.00    +0.000 A 
ATOM      4  C   UNL     1      47.655   4.339  15.777  0.00  0.00    +0.000 A 
ATOM      5  N   UNL     1      48.387   5.438  16.106  0.00  0.00    +0.000 NA
ATOM      6  C   UNL     1      49.404   5.282  16.984  0.00  0.00    +0.000 A 
ENDROOT
BRANCH   1   7
ATOM      7  C   UNL     1      50.924   3.999  18.529  0.00  0.00    +0.000 C 
BRANCH   7   8
ATOM      8  C   UNL     1      52.171   3.398  17.861  0.00  0.00    +0.000 C 
BRANCH   8  10
ATOM      9  C   UNL     1      52.239   1.016  17.592  0.00  0.00    +0.000 C 
ATOM     10  N   UNL     1      52.651   2.133  18.453  0.00  0.00    +0.000 NA
ATOM     11  C   UNL     1      54.107   2.107  18.613  0.00  0.00    +0.000 C 
ENDBRANCH   8  10
ENDBRANCH   7   8
ENDBRANCH   1   7
BRANCH   4  12
ATOM     12  C   UNL     1      46.493   4.560  14.810  0.00  0.00    +0.000 C 
BRANCH  12  13
ATOM     13  N   UNL     1      46.887   4.597  13.373  0.00  0.00    +0.000 N 
ATOM     14  C   UNL     1      47.309   5.938  12.868  0.00  0.00    +0.000 C 
ATOM     15  C   UNL     1      46.036   6.760  12.632  0.00  0.00    +0.000 C 
ATOM     16  C   UNL     1      45.241   5.655  12.029  0.00  0.00    +0.000 A 
ATOM     17  C   UNL     1      44.282   5.701  11.040  0.00  0.00    +0.000 A 
ATOM     18  C   UNL     1      43.829   4.475  10.579  0.00  0.00    +0.000 A 
ATOM     19  N   UNL     1      44.212   3.268  11.084  0.00  0.00    +0.000 NA
ATOM     20  C   UNL     1      45.152   3.271  12.065  0.00  0.00    +0.000 A 
ATOM     21  C   UNL     1      45.716   4.439  12.536  0.00  0.00    +0.000 A 
ENDBRANCH  12  13
ENDBRANCH   4  12
TORSDOF 5
ENDMDL
MODEL 8
REMARK VINA RESULT:    -5.193      4.764      8.300
REMARK INTER + INTRA:          -7.288
REMARK INTER:                  -6.920
REMARK INTRA:                  -0.369
REMARK UNBOUND:                -0.577
REMARK  Name = 
REMARK  7 active torsions:
REMARK  status: ('A' for Active; 'I' for Inactive)
REMARK    1  A    between atoms: C_1  and  N_2
REMARK    2  A    between atoms: N_2  and  C_3
REMARK    3  A    between atoms: N_2  and  C_4
REMARK    4  A    between atoms: C_4  and  C_5
REMARK    5  A    between atoms: C_5  and  C_6
REMARK    6  A    between atoms: C_9  and  C_10
REMARK    7  A    between atoms: C_10  and  N_11
REMARK                            x       y       z     vdW  Elec       q    Type
REMARK                         _______ _______ _______ _____ _____    ______ ____
ROOT
ATOM      1  C   UNL     1      46.585   5.061  13.563  0.00  0.00    +0.000 A 
ATOM      2  C   UNL     1      46.437   4.268  14.704  0.00  0.00    +0.000 A 
ATOM      3  C   UNL     1      47.304   4.440  15.788  0.00  0.00    +0.000 A 
ATOM      4  C   UNL     1      48.312   5.388  15.715  0.00  0.00    +0.000 A 
ATOM      5  N   UNL     1      48.466   6.178  14.617  0.00  0.00    +0.000 NA
ATOM      6  C   UNL     1      47.615   5.997  13.582  0.00  0.00    +0.000 A 
ENDROOT
BRANCH   1   7
ATOM      7  C   UNL     1      45.675   4.950  12.364  0.00  0.00    +0.000 C 
BRANCH   7   8
ATOM      8  C   UNL     1      44.202   4.806  12.779  0.00  0.00    +0.000 C 
BRANCH   8  10
ATOM      9  C   UNL     1      43.724   4.714  10.431  0.00  0.00    +0.000 C 
ATOM     10  N   UNL     1      43.315   4.222  11.754  0.00  0.00    +0.000 NA
ATOM     11  C   UNL     1      43.347   2.757  11.754  0.00  0.00    +0.000 C 
ENDBRANCH   8  10
ENDBRANCH   7   8
ENDBRANCH   1   7
BRANCH   4  12
ATOM     12  C   UNL     1      49.314   5.597  16.849  0.00  0.00    +0.000 C 
BRANCH  12  13
ATOM     13  N   UNL     1      49.282   4.542  17.902  0.00  0.00    +0.000 N 
ATOM     14  C   UNL     1      49.865   4.945  19.217  0.00  0.00    +0.000 C 
ATOM     15  C   UNL     1      51.391   4.885  19.079  0.00  0.00    +0.000 C 
ATOM     16  C   UNL     1      51.432   3.618  18.298  0.00  0.00    +0.000 A 
ATOM     17  C   UNL     1      52.372   2.610  18.309  0.00  0.00    +0.000 A 
ATOM     18  C   UNL     1      52.051   1.476  17.580  0.00  0.00    +0.000 A 
ATOM     19  N   UNL     1      50.929   1.337  16.817  0.00  0.00    +0.000 NA
ATOM     20  C   UNL     1      50.035   2.361  16.828  0.00  0.00    +0.000 A 
ATOM     21  C   UNL     1      50.234   3.499  17.583  0.00  0.00    +0.000 A 
ENDBRANCH  12  13
ENDBRANCH   4  12
TORSDOF 5
ENDMDL
MODEL 9
REMARK VINA RESULT:    -5.169      2.830      3.564
REMARK INTER + INTRA:          -7.256
REMARK INTER:                  -6.720
REMARK INTRA:                  -0.537
REMARK UNBOUND:                -0.577
REMARK  Name = 
REMARK  7 active torsions:
REMARK  status: ('A' for Active; 'I' for Inactive)
REMARK    1  A    between atoms: C_1  and  N_2
REMARK    2  A    between atoms: N_2  and  C_3
REMARK    3  A    between atoms: N_2  and  C_4
REMARK    4  A    between atoms: C_4  and  C_5
REMARK    5  A    between atoms: C_5  and  C_6
REMARK    6  A    between atoms: C_9  and  C_10
REMARK    7  A    between atoms: C_10  and  N_11
REMARK                            x       y       z     vdW  Elec       q    Type
REMARK                         _______ _______ _______ _____ _____    ______ ____
ROOT
ATOM      1  C   UNL     1      48.689   8.541  14.786  0.00  0.00    +0.000 A 
ATOM      2  C   UNL     1      47.624   8.796  13.917  0.00  0.00    +0.000 A 
ATOM      3  C   UNL     1      46.919   7.730  13.349  0.00  0.00    +0.000 A 
ATOM      4  C   UNL     1      47.293   6.428  13.642  0.00  0.00    +0.000 A 
ATOM      5  N   UNL     1      48.320   6.158  14.493  0.00  0.00    +0.000 NA
ATOM      6  C   UNL     1      48.985   7.204  15.035  0.00  0.00    +0.000 A 
ENDROOT
BRANCH   1   7
ATOM      7  C   UNL     1      49.481   9.637  15.456  0.00  0.00    +0.000 C 
BRANCH   7   8
ATOM      8  C   UNL     1      49.336   9.590  16.985  0.00  0.00    +0.000 C 
BRANCH   8  10
ATOM      9  C   UNL     1      47.711   8.688  18.500  0.00  0.00    +0.000 C 
ATOM     10  N   UNL     1      47.955   9.725  17.489  0.00  0.00    +0.000 NA
ATOM     11  C   UNL     1      47.701  11.042  18.079  0.00  0.00    +0.000 C 
ENDBRANCH   8  10
ENDBRANCH   7   8
ENDBRANCH   1   7
BRANCH   4  12
ATOM     12  C   UNL     1      46.587   5.222  13.023  0.00  0.00    +0.000 C 
BRANCH  12  13
ATOM     13  N   UNL     1      45.317   5.548  12.315  0.00  0.00    +0.000 N 
ATOM     14  C   UNL     1      44.099   4.878  12.862  0.00  0.00    +0.000 C 
ATOM     15  C   UNL     1      44.110   3.429  12.362  0.00  0.00    +0.000 C 
ATOM     16  C   UNL     1      44.558   3.741  10.976  0.00  0.00    +0.000 A 
ATOM     17  C   UNL     1      44.237   3.119   9.789  0.00  0.00    +0.000 A 
ATOM     18  C   UNL     1      44.694   3.742   8.638  0.00  0.00    +0.000 A 
ATOM     19  N   UNL     1      45.478   4.856   8.619  0.00  0.00    +0.000 NA
ATOM     20  C   UNL     1      45.778   5.430   9.815  0.00  0.00    +0.000 A 
ATOM     21  C   UNL     1      45.306   4.924  11.008  0.00  0.00    +0.000 A 
ENDBRANCH  12  13
ENDBRANCH   4  12
TORSDOF 5
ENDMDL
