MODEL 1
REMARK VINA RESULT:    -8.433      0.000      0.000
REMARK INTER + INTRA:         -12.897
REMARK INTER:                 -11.638
REMARK INTRA:                  -1.259
REMARK UNBOUND:                -1.259
REMARK  Name = 
REMARK  8 active torsions:
REMARK  status: ('A' for Active; 'I' for Inactive)
REMARK    1  A    between atoms: C_1  and  C_2
REMARK    2  A    between atoms: C_2  and  C_3
REMARK    3  A    between atoms: C_7  and  C_8
REMARK    4  A    between atoms: C_8  and  C_9
REMARK    5  A    between atoms: C_9  and  N_10
REMARK    6  A    between atoms: N_10  and  C_11
REMARK    7  A    between atoms: C_14  and  C_15
REMARK    8  A    between atoms: C_23  and  O_24
REMARK                            x       y       z     vdW  Elec       q    Type
REMARK                         _______ _______ _______ _____ _____    ______ ____
ROOT
ATOM      1  C   UNL     1      46.987   6.592  12.918  0.00  0.00    +0.000 A 
ATOM      2  C   UNL     1      47.579   5.450  13.478  0.00  0.00    +0.000 A 
ATOM      3  C   UNL     1      46.846   4.270  13.658  0.00  0.00    +0.000 A 
ATOM      4  C   UNL     1      45.501   4.208  13.288  0.00  0.00    +0.000 A 
ATOM      5  C   UNL     1      44.880   5.318  12.713  0.00  0.00    +0.000 A 
ATOM      6  C   UNL     1      45.648   6.480  12.519  0.00  0.00    +0.000 A 
ENDROOT
BRANCH   1   8
ATOM      7  C   UNL     1      48.213   8.266  14.278  0.00  0.00    +0.000 C 
ATOM      8  C   UNL     1      47.738   7.943  12.839  0.00  0.00    +0.000 C 
ATOM      9  C   UNL     1      48.943   7.831  11.868  0.00  0.00    +0.000 C 
ATOM     10  C   UNL     1      49.687   9.153  11.661  0.00  0.00    +0.000 C 
ATOM     11  C   UNL     1      48.759  10.279  11.215  0.00  0.00    +0.000 C 
ATOM     12  C   UNL     1      47.566  10.439  12.147  0.00  0.00    +0.000 C 
ATOM     13  C   UNL     1      46.834   9.116  12.342  0.00  0.00    +0.000 C 
BRANCH  11  14
ATOM     14  O   UNL     1      49.484  11.503  11.160  0.00  0.00    +0.000 OA
ATOM     15  H   UNL     1      49.791  11.632  10.246  0.00  0.00    +0.000 HD
ENDBRANCH  11  14
ENDBRANCH   1   8
BRANCH   5  16
ATOM     16  C   UNL     1      43.399   5.270  12.367  0.00  0.00    +0.000 C 
BRANCH  16  17
ATOM     17  C   UNL     1      43.079   4.436  11.119  0.00  0.00    +0.000 C 
BRANCH  17  18
ATOM     18  N   UNL     1      43.749   4.910   9.916  0.00  0.00    +0.000 N 
ATOM     19  H   UNL     1      43.176   5.490   9.306  0.00  0.00    +0.000 HD
BRANCH  18  20
ATOM     20  C   UNL     1      44.546   4.003   9.203  0.00  0.00    +0.000 A 
ATOM     21  C   UNL     1      44.552   2.618   9.428  0.00  0.00    +0.000 A 
ATOM     22  C   UNL     1      45.437   1.772   8.751  0.00  0.00    +0.000 A 
ATOM     23  C   UNL     1      46.361   2.302   7.849  0.00  0.00    +0.000 A 
ATOM     24  C   UNL     1      46.393   3.681   7.636  0.00  0.00    +0.000 A 
ATOM     25  C   UNL     1      45.493   4.521   8.310  0.00  0.00    +0.000 A 
BRANCH  23  26
ATOM     26  C   UNL     1      47.307   1.370   7.182  0.00  0.00    +0.000 C 
ATOM     27  N   UNL     1      48.313   1.919   6.438  0.00  0.00    +0.000 N 
ATOM     28  O   UNL     1      47.183   0.154   7.269  0.00  0.00    +0.000 OA
ATOM     29  H   UNL     1      48.313   2.886   6.148  0.00  0.00    +0.000 HD
ATOM     30  H   UNL     1      48.886   1.269   5.913  0.00  0.00    +0.000 HD
ENDBRANCH  23  26
ENDBRANCH  18  20
ENDBRANCH  17  18
ENDBRANCH  16  17
ENDBRANCH   5  16
TORSDOF 7
ENDMDL
MODEL 2
REMARK VINA RESULT:    -7.863      3.597      4.798
REMARK INTER + INTRA:         -12.110
REMARK INTER:                 -11.158
REMARK INTRA:                  -0.953
REMARK UNBOUND:                -1.259
REMARK  Name = 
REMARK  8 active torsions:
REMARK  status: ('A' for Active; 'I' for Inactive)
REMARK    1  A    between atoms: C_1  and  C_2
REMARK    2  A    between atoms: C_2  and  C_3
REMARK    3  A    between atoms: C_7  and  C_8
REMARK    4  A    between atoms: C_8  and  C_9
REMARK    5  A    between atoms: C_9  and  N_10
REMARK    6  A    between atoms: N_10  and  C_11
REMARK    7  A    between atoms: C_14  and  C_15
REMARK    8  A    between atoms: C_23  and  O_24
REMARK                            x       y       z     vdW  Elec       q    Type
REMARK                         _______ _______ _______ _____ _____    ______ ____
ROOT
ATOM      1  C   UNL     1      47.785   5.085  15.475  0.00  0.00    +0.000 A 
ATOM      2  C   UNL     1      48.269   6.273  14.905  0.00  0.00    +0.000 A 
ATOM      3  C   UNL     1      47.841   6.692  13.639  0.00  0.00    +0.000 A 
ATOM      4  C   UNL     1      46.925   5.931  12.911  0.00  0.00    +0.000 A 
ATOM      5  C   UNL     1      46.407   4.751  13.451  0.00  0.00    +0.000 A 
ATOM      6  C   UNL     1      46.834   4.369  14.735  0.00  0.00    +0.000 A 
ENDROOT
BRANCH   1   8
ATOM      7  C   UNL     1      48.258   2.990  16.716  0.00  0.00    +0.000 C 
ATOM      8  C   UNL     1      48.348   4.534  16.807  0.00  0.00    +0.000 C 
ATOM      9  C   UNL     1      49.817   4.995  17.001  0.00  0.00    +0.000 C 
ATOM     10  C   UNL     1      50.420   4.568  18.342  0.00  0.00    +0.000 C 
ATOM     11  C   UNL     1      49.572   5.012  19.530  0.00  0.00    +0.000 C 
ATOM     12  C   UNL     1      48.122   4.569  19.393  0.00  0.00    +0.000 C 
ATOM     13  C   UNL     1      47.534   5.003  18.055  0.00  0.00    +0.000 C 
BRANCH  11  14
ATOM     14  O   UNL     1      50.117   4.480  20.732  0.00  0.00    +0.000 OA
ATOM     15  H   UNL     1      50.695   5.157  21.126  0.00  0.00    +0.000 HD
ENDBRANCH  11  14
ENDBRANCH   1   8
BRANCH   5  16
ATOM     16  C   UNL     1      45.458   3.890  12.633  0.00  0.00    +0.000 C 
BRANCH  16  17
ATOM     17  C   UNL     1      44.517   4.694  11.724  0.00  0.00    +0.000 C 
BRANCH  17  18
ATOM     18  N   UNL     1      43.904   3.896  10.671  0.00  0.00    +0.000 N 
ATOM     19  H   UNL     1      43.279   3.162  10.998  0.00  0.00    +0.000 HD
BRANCH  18  20
ATOM     20  C   UNL     1      44.712   3.480   9.604  0.00  0.00    +0.000 A 
ATOM     21  C   UNL     1      45.033   2.139   9.338  0.00  0.00    +0.000 A 
ATOM     22  C   UNL     1      45.921   1.791   8.315  0.00  0.00    +0.000 A 
ATOM     23  C   UNL     1      46.531   2.784   7.548  0.00  0.00    +0.000 A 
ATOM     24  C   UNL     1      46.249   4.125   7.818  0.00  0.00    +0.000 A 
ATOM     25  C   UNL     1      45.348   4.465   8.838  0.00  0.00    +0.000 A 
BRANCH  23  26
ATOM     26  C   UNL     1      47.497   2.369   6.497  0.00  0.00    +0.000 C 
ATOM     27  N   UNL     1      47.413   2.989   5.283  0.00  0.00    +0.000 N 
ATOM     28  O   UNL     1      48.323   1.485   6.694  0.00  0.00    +0.000 OA
ATOM     29  H   UNL     1      46.614   3.540   5.005  0.00  0.00    +0.000 HD
ATOM     30  H   UNL     1      48.012   2.625   4.553  0.00  0.00    +0.000 HD
ENDBRANCH  23  26
ENDBRANCH  18  20
ENDBRANCH  17  18
ENDBRANCH  16  17
ENDBRANCH   5  16
TORSDOF 7
ENDMDL
MODEL 3
REMARK VINA RESULT:    -7.788      1.458      2.589
REMARK INTER + INTRA:         -12.007
REMARK INTER:                 -10.977
REMARK INTRA:                  -1.030
REMARK UNBOUND:                -1.259
REMARK  Name = 
REMARK  8 active torsions:
REMARK  status: ('A' for Active; 'I' for Inactive)
REMARK    1  A    between atoms: C_1  and  C_2
REMARK    2  A    between atoms: C_2  and  C_3
REMARK    3  A    between atoms: C_7  and  C_8
REMARK    4  A    between atoms: C_8  and  C_9
REMARK    5  A    between atoms: C_9  and  N_10
REMARK    6  A    between atoms: N_10  and  C_11
REMARK    7  A    between atoms: C_14  and  C_15
REMARK    8  A    between atoms: C_23  and  O_24
REMARK                            x       y       z     vdW  Elec       q    Type
REMARK                         _______ _______ _______ _____ _____    ______ ____
ROOT
ATOM      1  C   UNL     1      47.663   8.397  12.245  0.00  0.00    +0.000 A 
ATOM      2  C   UNL     1      46.618   9.313  12.431  0.00  0.00    +0.000 A 
ATOM      3  C   UNL     1      45.282   8.892  12.452  0.00  0.00    +0.000 A 
ATOM      4  C   UNL     1      44.962   7.544  12.280  0.00  0.00    +0.000 A 
ATOM      5  C   UNL     1      45.974   6.598  12.109  0.00  0.00    +0.000 A 
ATOM      6  C   UNL     1      47.307   7.046  12.120  0.00  0.00    +0.000 A 
ENDROOT
BRANCH   1   8
ATOM      7  C   UNL     1      49.096  10.124  11.188  0.00  0.00    +0.000 C 
ATOM      8  C   UNL     1      49.131   8.858  12.080  0.00  0.00    +0.000 C 
ATOM      9  C   UNL     1      49.754   9.171  13.466  0.00  0.00    +0.000 C 
ATOM     10  C   UNL     1      51.237   9.547  13.400  0.00  0.00    +0.000 C 
ATOM     11  C   UNL     1      52.072   8.494  12.677  0.00  0.00    +0.000 C 
ATOM     12  C   UNL     1      51.509   8.163  11.303  0.00  0.00    +0.000 C 
ATOM     13  C   UNL     1      50.033   7.789  11.384  0.00  0.00    +0.000 C 
BRANCH  11  14
ATOM     14  O   UNL     1      53.411   8.958  12.541  0.00  0.00    +0.000 OA
ATOM     15  H   UNL     1      53.964   8.206  12.265  0.00  0.00    +0.000 HD
ENDBRANCH  11  14
ENDBRANCH   1   8
BRANCH   5  16
ATOM     16  C   UNL     1      45.622   5.139  11.861  0.00  0.00    +0.000 C 
BRANCH  16  17
ATOM     17  C   UNL     1      44.143   4.907  11.519  0.00  0.00    +0.000 C 
BRANCH  17  18
ATOM     18  N   UNL     1      43.878   4.860  10.087  0.00  0.00    +0.000 N 
ATOM     19  H   UNL     1      42.892   4.859   9.834  0.00  0.00    +0.000 HD
BRANCH  18  20
ATOM     20  C   UNL     1      44.638   3.980   9.304  0.00  0.00    +0.000 A 
ATOM     21  C   UNL     1      44.648   2.587   9.474  0.00  0.00    +0.000 A 
ATOM     22  C   UNL     1      45.497   1.766   8.725  0.00  0.00    +0.000 A 
ATOM     23  C   UNL     1      46.381   2.329   7.802  0.00  0.00    +0.000 A 
ATOM     24  C   UNL     1      46.409   3.716   7.642  0.00  0.00    +0.000 A 
ATOM     25  C   UNL     1      45.544   4.530   8.389  0.00  0.00    +0.000 A 
BRANCH  23  26
ATOM     26  C   UNL     1      47.292   1.422   7.057  0.00  0.00    +0.000 C 
ATOM     27  N   UNL     1      48.299   1.995   6.333  0.00  0.00    +0.000 N 
ATOM     28  O   UNL     1      47.138   0.206   7.062  0.00  0.00    +0.000 OA
ATOM     29  H   UNL     1      48.321   2.979   6.111  0.00  0.00    +0.000 HD
ATOM     30  H   UNL     1      48.847   1.369   5.755  0.00  0.00    +0.000 HD
ENDBRANCH  23  26
ENDBRANCH  18  20
ENDBRANCH  17  18
ENDBRANCH  16  17
ENDBRANCH   5  16
TORSDOF 7
ENDMDL
MODEL 4
REMARK VINA RESULT:    -7.776      3.469      7.618
REMARK INTER + INTRA:         -11.990
REMARK INTER:                 -11.008
REMARK INTRA:                  -0.981
REMARK UNBOUND:                -1.259
REMARK  Name = 
REMARK  8 active torsions:
REMARK  status: ('A' for Active; 'I' for Inactive)
REMARK    1  A    between atoms: C_1  and  C_2
REMARK    2  A    between atoms: C_2  and  C_3
REMARK    3  A    between atoms: C_7  and  C_8
REMARK    4  A    between atoms: C_8  and  C_9
REMARK    5  A    between atoms: C_9  and  N_10
REMARK    6  A    between atoms: N_10  and  C_11
REMARK    7  A    between atoms: C_14  and  C_15
REMARK    8  A    between atoms: C_23  and  O_24
REMARK                            x       y       z     vdW  Elec       q    Type
REMARK                         _______ _______ _______ _____ _____    ______ ____
ROOT
ATOM      1  C   UNL     1      44.961   4.272   9.532  0.00  0.00    +0.000 A 
ATOM      2  C   UNL     1      43.854   3.817  10.264  0.00  0.00    +0.000 A 
ATOM      3  C   UNL     1      43.446   4.467  11.436  0.00  0.00    +0.000 A 
ATOM      4  C   UNL     1      44.140   5.583  11.906  0.00  0.00    +0.000 A 
ATOM      5  C   UNL     1      45.237   6.077  11.198  0.00  0.00    +0.000 A 
ATOM      6  C   UNL     1      45.607   5.421  10.010  0.00  0.00    +0.000 A 
ENDROOT
BRANCH   1   8
ATOM      7  C   UNL     1      44.312   3.263   7.361  0.00  0.00    +0.000 C 
ATOM      8  C   UNL     1      45.511   3.489   8.316  0.00  0.00    +0.000 C 
ATOM      9  C   UNL     1      46.632   4.303   7.617  0.00  0.00    +0.000 C 
ATOM     10  C   UNL     1      47.295   3.559   6.455  0.00  0.00    +0.000 C 
ATOM     11  C   UNL     1      47.824   2.188   6.869  0.00  0.00    +0.000 C 
ATOM     12  C   UNL     1      46.754   1.344   7.547  0.00  0.00    +0.000 C 
ATOM     13  C   UNL     1      46.104   2.097   8.702  0.00  0.00    +0.000 C 
BRANCH  11  14
ATOM     14  O   UNL     1      48.314   1.499   5.724  0.00  0.00    +0.000 OA
ATOM     15  H   UNL     1      49.100   0.991   5.990  0.00  0.00    +0.000 HD
ENDBRANCH  11  14
ENDBRANCH   1   8
BRANCH   5  16
ATOM     16  C   UNL     1      46.031   7.255  11.743  0.00  0.00    +0.000 C 
BRANCH  16  17
ATOM     17  C   UNL     1      47.535   6.979  11.879  0.00  0.00    +0.000 C 
BRANCH  17  18
ATOM     18  N   UNL     1      48.069   7.306  13.195  0.00  0.00    +0.000 N 
ATOM     19  H   UNL     1      48.977   7.766  13.187  0.00  0.00    +0.000 HD
BRANCH  18  20
ATOM     20  C   UNL     1      47.961   6.343  14.208  0.00  0.00    +0.000 A 
ATOM     21  C   UNL     1      47.124   5.219  14.137  0.00  0.00    +0.000 A 
ATOM     22  C   UNL     1      46.986   4.342  15.218  0.00  0.00    +0.000 A 
ATOM     23  C   UNL     1      47.666   4.588  16.411  0.00  0.00    +0.000 A 
ATOM     24  C   UNL     1      48.479   5.719  16.513  0.00  0.00    +0.000 A 
ATOM     25  C   UNL     1      48.621   6.586  15.419  0.00  0.00    +0.000 A 
BRANCH  23  26
ATOM     26  C   UNL     1      47.460   3.651  17.546  0.00  0.00    +0.000 C 
ATOM     27  N   UNL     1      48.131   3.909  18.707  0.00  0.00    +0.000 N 
ATOM     28  O   UNL     1      46.737   2.666  17.445  0.00  0.00    +0.000 OA
ATOM     29  H   UNL     1      48.904   4.556  18.760  0.00  0.00    +0.000 HD
ATOM     30  H   UNL     1      48.055   3.207  19.433  0.00  0.00    +0.000 HD
ENDBRANCH  23  26
ENDBRANCH  18  20
ENDBRANCH  17  18
ENDBRANCH  16  17
ENDBRANCH   5  16
TORSDOF 7
ENDMDL
MODEL 5
REMARK VINA RESULT:    -7.646      1.442      2.169
REMARK INTER + INTRA:         -11.810
REMARK INTER:                 -10.879
REMARK INTRA:                  -0.931
REMARK UNBOUND:                -1.259
REMARK  Name = 
REMARK  8 active torsions:
REMARK  status: ('A' for Active; 'I' for Inactive)
REMARK    1  A    between atoms: C_1  and  C_2
REMARK    2  A    between atoms: C_2  and  C_3
REMARK    3  A    between atoms: C_7  and  C_8
REMARK    4  A    between atoms: C_8  and  C_9
REMARK    5  A    between atoms: C_9  and  N_10
REMARK    6  A    between atoms: N_10  and  C_11
REMARK    7  A    between atoms: C_14  and  C_15
REMARK    8  A    between atoms: C_23  and  O_24
REMARK                            x       y       z     vdW  Elec       q    Type
REMARK                         _______ _______ _______ _____ _____    ______ ____
ROOT
ATOM      1  C   UNL     1      46.208   7.187  12.552  0.00  0.00    +0.000 A 
ATOM      2  C   UNL     1      45.446   8.043  11.743  0.00  0.00    +0.000 A 
ATOM      3  C   UNL     1      44.151   7.695  11.341  0.00  0.00    +0.000 A 
ATOM      4  C   UNL     1      43.590   6.478  11.735  0.00  0.00    +0.000 A 
ATOM      5  C   UNL     1      44.309   5.606  12.554  0.00  0.00    +0.000 A 
ATOM      6  C   UNL     1      45.597   5.995  12.964  0.00  0.00    +0.000 A 
ENDROOT
BRANCH   1   8
ATOM      7  C   UNL     1      48.132   6.416  13.916  0.00  0.00    +0.000 C 
ATOM      8  C   UNL     1      47.688   7.489  12.891  0.00  0.00    +0.000 C 
ATOM      9  C   UNL     1      48.557   7.423  11.606  0.00  0.00    +0.000 C 
ATOM     10  C   UNL     1      50.022   7.800  11.838  0.00  0.00    +0.000 C 
ATOM     11  C   UNL     1      50.173   9.167  12.501  0.00  0.00    +0.000 C 
ATOM     12  C   UNL     1      49.349   9.276  13.777  0.00  0.00    +0.000 C 
ATOM     13  C   UNL     1      47.893   8.899  13.530  0.00  0.00    +0.000 C 
BRANCH  11  14
ATOM     14  O   UNL     1      51.543   9.404  12.801  0.00  0.00    +0.000 OA
ATOM     15  H   UNL     1      52.033   9.448  11.961  0.00  0.00    +0.000 HD
ENDBRANCH  11  14
ENDBRANCH   1   8
BRANCH   5  16
ATOM     16  C   UNL     1      43.723   4.254  12.931  0.00  0.00    +0.000 C 
BRANCH  16  17
ATOM     17  C   UNL     1      43.886   3.182  11.844  0.00  0.00    +0.000 C 
BRANCH  17  18
ATOM     18  N   UNL     1      43.717   3.695  10.491  0.00  0.00    +0.000 N 
ATOM     19  H   UNL     1      42.781   3.587  10.106  0.00  0.00    +0.000 HD
BRANCH  18  20
ATOM     20  C   UNL     1      44.721   3.422   9.552  0.00  0.00    +0.000 A 
ATOM     21  C   UNL     1      45.330   4.398   8.748  0.00  0.00    +0.000 A 
ATOM     22  C   UNL     1      46.260   4.055   7.761  0.00  0.00    +0.000 A 
ATOM     23  C   UNL     1      46.582   2.715   7.538  0.00  0.00    +0.000 A 
ATOM     24  C   UNL     1      45.963   1.727   8.305  0.00  0.00    +0.000 A 
ATOM     25  C   UNL     1      45.041   2.082   9.301  0.00  0.00    +0.000 A 
BRANCH  23  26
ATOM     26  C   UNL     1      47.546   2.394   6.453  0.00  0.00    +0.000 C 
ATOM     27  N   UNL     1      47.462   3.120   5.299  0.00  0.00    +0.000 N 
ATOM     28  O   UNL     1      48.372   1.495   6.570  0.00  0.00    +0.000 OA
ATOM     29  H   UNL     1      46.664   3.694   5.072  0.00  0.00    +0.000 HD
ATOM     30  H   UNL     1      48.060   2.821   4.539  0.00  0.00    +0.000 HD
ENDBRANCH  23  26
ENDBRANCH  18  20
ENDBRANCH  17  18
ENDBRANCH  16  17
ENDBRANCH   5  16
TORSDOF 7
ENDMDL
MODEL 6
REMARK VINA RESULT:    -7.360      4.078      7.687
REMARK INTER + INTRA:         -11.416
REMARK INTER:                  -9.835
REMARK INTRA:                  -1.580
REMARK UNBOUND:                -1.259
REMARK  Name = 
REMARK  8 active torsions:
REMARK  status: ('A' for Active; 'I' for Inactive)
REMARK    1  A    between atoms: C_1  and  C_2
REMARK    2  A    between atoms: C_2  and  C_3
REMARK    3  A    between atoms: C_7  and  C_8
REMARK    4  A    between atoms: C_8  and  C_9
REMARK    5  A    between atoms: C_9  and  N_10
REMARK    6  A    between atoms: N_10  and  C_11
REMARK    7  A    between atoms: C_14  and  C_15
REMARK    8  A    between atoms: C_23  and  O_24
REMARK                            x       y       z     vdW  Elec       q    Type
REMARK                         _______ _______ _______ _____ _____    ______ ____
ROOT
ATOM      1  C   UNL     1      45.861   7.066  11.666  0.00  0.00    +0.000 A 
ATOM      2  C   UNL     1      45.087   8.161  12.078  0.00  0.00    +0.000 A 
ATOM      3  C   UNL     1      45.688   9.352  12.503  0.00  0.00    +0.000 A 
ATOM      4  C   UNL     1      47.079   9.473  12.533  0.00  0.00    +0.000 A 
ATOM      5  C   UNL     1      47.885   8.412  12.115  0.00  0.00    +0.000 A 
ATOM      6  C   UNL     1      47.253   7.238  11.667  0.00  0.00    +0.000 A 
ENDROOT
BRANCH   1   8
ATOM      7  C   UNL     1      45.667   5.352   9.883  0.00  0.00    +0.000 C 
ATOM      8  C   UNL     1      45.222   5.698  11.326  0.00  0.00    +0.000 C 
ATOM      9  C   UNL     1      45.703   4.617  12.330  0.00  0.00    +0.000 C 
ATOM     10  C   UNL     1      45.045   3.251  12.120  0.00  0.00    +0.000 C 
ATOM     11  C   UNL     1      43.521   3.332  12.129  0.00  0.00    +0.000 C 
ATOM     12  C   UNL     1      42.998   4.371  11.146  0.00  0.00    +0.000 C 
ATOM     13  C   UNL     1      43.661   5.725  11.368  0.00  0.00    +0.000 C 
BRANCH  11  14
ATOM     14  O   UNL     1      42.972   2.059  11.806  0.00  0.00    +0.000 OA
ATOM     15  H   UNL     1      42.355   1.807  12.515  0.00  0.00    +0.000 HD
ENDBRANCH  11  14
ENDBRANCH   1   8
BRANCH   5  16
ATOM     16  C   UNL     1      49.399   8.521  12.207  0.00  0.00    +0.000 C 
BRANCH  16  17
ATOM     17  C   UNL     1      50.011   7.716  13.362  0.00  0.00    +0.000 C 
BRANCH  17  18
ATOM     18  N   UNL     1      49.313   7.896  14.629  0.00  0.00    +0.000 N 
ATOM     19  H   UNL     1      49.701   8.618  15.233  0.00  0.00    +0.000 HD
BRANCH  18  20
ATOM     20  C   UNL     1      48.928   6.750  15.337  0.00  0.00    +0.000 A 
ATOM     21  C   UNL     1      48.010   5.802  14.859  0.00  0.00    +0.000 A 
ATOM     22  C   UNL     1      47.592   4.727  15.649  0.00  0.00    +0.000 A 
ATOM     23  C   UNL     1      48.065   4.591  16.956  0.00  0.00    +0.000 A 
ATOM     24  C   UNL     1      48.954   5.542  17.461  0.00  0.00    +0.000 A 
ATOM     25  C   UNL     1      49.378   6.610  16.656  0.00  0.00    +0.000 A 
BRANCH  23  26
ATOM     26  C   UNL     1      47.564   3.455  17.772  0.00  0.00    +0.000 C 
ATOM     27  N   UNL     1      48.309   3.079  18.853  0.00  0.00    +0.000 N 
ATOM     28  O   UNL     1      46.536   2.855  17.479  0.00  0.00    +0.000 OA
ATOM     29  H   UNL     1      49.262   3.380  18.992  0.00  0.00    +0.000 HD
ATOM     30  H   UNL     1      48.003   2.243  19.337  0.00  0.00    +0.000 HD
ENDBRANCH  23  26
ENDBRANCH  18  20
ENDBRANCH  17  18
ENDBRANCH  16  17
ENDBRANCH   5  16
TORSDOF 7
ENDMDL
MODEL 7
REMARK VINA RESULT:    -7.151      2.444      3.773
REMARK INTER + INTRA:         -11.127
REMARK INTER:                 -10.452
REMARK INTRA:                  -0.675
REMARK UNBOUND:                -1.259
REMARK  Name = 
REMARK  8 active torsions:
REMARK  status: ('A' for Active; 'I' for Inactive)
REMARK    1  A    between atoms: C_1  and  C_2
REMARK    2  A    between atoms: C_2  and  C_3
REMARK    3  A    between atoms: C_7  and  C_8
REMARK    4  A    between atoms: C_8  and  C_9
REMARK    5  A    between atoms: C_9  and  N_10
REMARK    6  A    between atoms: N_10  and  C_11
REMARK    7  A    between atoms: C_14  and  C_15
REMARK    8  A    between atoms: C_23  and  O_24
REMARK                            x       y       z     vdW  Elec       q    Type
REMARK                         _______ _______ _______ _____ _____    ______ ____
ROOT
ATOM      1  C   UNL     1      47.671   7.552  13.993  0.00  0.00    +0.000 A 
ATOM      2  C   UNL     1      47.323   8.820  13.505  0.00  0.00    +0.000 A 
ATOM      3  C   UNL     1      46.443   8.962  12.424  0.00  0.00    +0.000 A 
ATOM      4  C   UNL     1      45.896   7.837  11.803  0.00  0.00    +0.000 A 
ATOM      5  C   UNL     1      46.204   6.558  12.270  0.00  0.00    +0.000 A 
ATOM      6  C   UNL     1      47.069   6.448  13.374  0.00  0.00    +0.000 A 
ENDROOT
BRANCH   1   8
ATOM      7  C   UNL     1      50.119   7.431  14.377  0.00  0.00    +0.000 C 
ATOM      8  C   UNL     1      48.746   7.369  15.092  0.00  0.00    +0.000 C 
ATOM      9  C   UNL     1      48.622   8.492  16.156  0.00  0.00    +0.000 C 
ATOM     10  C   UNL     1      49.591   8.332  17.330  0.00  0.00    +0.000 C 
ATOM     11  C   UNL     1      49.477   6.964  17.997  0.00  0.00    +0.000 C 
ATOM     12  C   UNL     1      49.608   5.827  16.994  0.00  0.00    +0.000 C 
ATOM     13  C   UNL     1      48.636   5.998  15.832  0.00  0.00    +0.000 C 
BRANCH  11  14
ATOM     14  O   UNL     1      50.483   6.833  18.995  0.00  0.00    +0.000 OA
ATOM     15  H   UNL     1      50.171   7.281  19.800  0.00  0.00    +0.000 HD
ENDBRANCH  11  14
ENDBRANCH   1   8
BRANCH   5  16
ATOM     16  C   UNL     1      45.658   5.332  11.555  0.00  0.00    +0.000 C 
BRANCH  16  17
ATOM     17  C   UNL     1      44.143   5.381  11.308  0.00  0.00    +0.000 C 
BRANCH  17  18
ATOM     18  N   UNL     1      43.724   4.649  10.121  0.00  0.00    +0.000 N 
ATOM     19  H   UNL     1      42.876   4.097  10.234  0.00  0.00    +0.000 HD
BRANCH  18  20
ATOM     20  C   UNL     1      44.707   3.979   9.378  0.00  0.00    +0.000 A 
ATOM     21  C   UNL     1      45.529   4.600   8.424  0.00  0.00    +0.000 A 
ATOM     22  C   UNL     1      46.427   3.864   7.645  0.00  0.00    +0.000 A 
ATOM     23  C   UNL     1      46.503   2.477   7.785  0.00  0.00    +0.000 A 
ATOM     24  C   UNL     1      45.671   1.838   8.706  0.00  0.00    +0.000 A 
ATOM     25  C   UNL     1      44.782   2.586   9.492  0.00  0.00    +0.000 A 
BRANCH  23  26
ATOM     26  C   UNL     1      47.445   1.731   6.910  0.00  0.00    +0.000 C 
ATOM     27  N   UNL     1      48.566   2.386   6.487  0.00  0.00    +0.000 N 
ATOM     28  O   UNL     1      47.219   0.581   6.553  0.00  0.00    +0.000 OA
ATOM     29  H   UNL     1      48.674   3.387   6.558  0.00  0.00    +0.000 HD
ATOM     30  H   UNL     1      49.143   1.897   5.814  0.00  0.00    +0.000 HD
ENDBRANCH  23  26
ENDBRANCH  18  20
ENDBRANCH  17  18
ENDBRANCH  16  17
ENDBRANCH   5  16
TORSDOF 7
ENDMDL
MODEL 8
REMARK VINA RESULT:    -6.852      4.239      8.034
REMARK INTER + INTRA:         -10.715
REMARK INTER:                  -9.158
REMARK INTRA:                  -1.556
REMARK UNBOUND:                -1.259
REMARK  Name = 
REMARK  8 active torsions:
REMARK  status: ('A' for Active; 'I' for Inactive)
REMARK    1  A    between atoms: C_1  and  C_2
REMARK    2  A    between atoms: C_2  and  C_3
REMARK    3  A    between atoms: C_7  and  C_8
REMARK    4  A    between atoms: C_8  and  C_9
REMARK    5  A    between atoms: C_9  and  N_10
REMARK    6  A    between atoms: N_10  and  C_11
REMARK    7  A    between atoms: C_14  and  C_15
REMARK    8  A    between atoms: C_23  and  O_24
REMARK                            x       y       z     vdW  Elec       q    Type
REMARK                         _______ _______ _______ _____ _____    ______ ____
ROOT
ATOM      1  C   UNL     1      46.042   6.846  12.212  0.00  0.00    +0.000 A 
ATOM      2  C   UNL     1      45.243   7.957  12.521  0.00  0.00    +0.000 A 
ATOM      3  C   UNL     1      45.785   9.247  12.565  0.00  0.00    +0.000 A 
ATOM      4  C   UNL     1      47.142   9.456  12.306  0.00  0.00    +0.000 A 
ATOM      5  C   UNL     1      47.967   8.379  11.977  0.00  0.00    +0.000 A 
ATOM      6  C   UNL     1      47.389   7.098  11.914  0.00  0.00    +0.000 A 
ENDROOT
BRANCH   1   8
ATOM      7  C   UNL     1      46.478   4.610  13.193  0.00  0.00    +0.000 C 
ATOM      8  C   UNL     1      45.495   5.401  12.294  0.00  0.00    +0.000 C 
ATOM      9  C   UNL     1      44.066   5.402  12.901  0.00  0.00    +0.000 C 
ATOM     10  C   UNL     1      43.414   4.017  12.933  0.00  0.00    +0.000 C 
ATOM     11  C   UNL     1      43.400   3.349  11.561  0.00  0.00    +0.000 C 
ATOM     12  C   UNL     1      44.784   3.310  10.930  0.00  0.00    +0.000 C 
ATOM     13  C   UNL     1      45.420   4.695  10.903  0.00  0.00    +0.000 C 
BRANCH  11  14
ATOM     14  O   UNL     1      42.897   2.023  11.681  0.00  0.00    +0.000 OA
ATOM     15  H   UNL     1      42.718   1.852  12.622  0.00  0.00    +0.000 HD
ENDBRANCH  11  14
ENDBRANCH   1   8
BRANCH   5  16
ATOM     16  C   UNL     1      49.456   8.597  11.756  0.00  0.00    +0.000 C 
BRANCH  16  17
ATOM     17  C   UNL     1      50.347   7.877  12.779  0.00  0.00    +0.000 C 
BRANCH  17  18
ATOM     18  N   UNL     1      50.066   8.250  14.159  0.00  0.00    +0.000 N 
ATOM     19  H   UNL     1      50.636   9.011  14.522  0.00  0.00    +0.000 HD
BRANCH  18  20
ATOM     20  C   UNL     1      49.879   7.223  15.095  0.00  0.00    +0.000 A 
ATOM     21  C   UNL     1      48.647   6.596  15.337  0.00  0.00    +0.000 A 
ATOM     22  C   UNL     1      48.500   5.642  16.349  0.00  0.00    +0.000 A 
ATOM     23  C   UNL     1      49.584   5.314  17.165  0.00  0.00    +0.000 A 
ATOM     24  C   UNL     1      50.809   5.950  16.961  0.00  0.00    +0.000 A 
ATOM     25  C   UNL     1      50.951   6.896  15.935  0.00  0.00    +0.000 A 
BRANCH  23  26
ATOM     26  C   UNL     1      49.371   4.323  18.253  0.00  0.00    +0.000 C 
ATOM     27  N   UNL     1      50.472   3.893  18.937  0.00  0.00    +0.000 N 
ATOM     28  O   UNL     1      48.258   3.883  18.515  0.00  0.00    +0.000 OA
ATOM     29  H   UNL     1      51.414   4.042  18.607  0.00  0.00    +0.000 HD
ATOM     30  H   UNL     1      50.320   3.148  19.606  0.00  0.00    +0.000 HD
ENDBRANCH  23  26
ENDBRANCH  18  20
ENDBRANCH  17  18
ENDBRANCH  16  17
ENDBRANCH   5  16
TORSDOF 7
ENDMDL
MODEL 9
REMARK VINA RESULT:    -6.814      4.280      8.270
REMARK INTER + INTRA:         -10.663
REMARK INTER:                  -9.920
REMARK INTRA:                  -0.742
REMARK UNBOUND:                -1.259
REMARK  Name = 
REMARK  8 active torsions:
REMARK  status: ('A' for Active; 'I' for Inactive)
REMARK    1  A    between atoms: C_1  and  C_2
REMARK    2  A    between atoms: C_2  and  C_3
REMARK    3  A    between atoms: C_7  and  C_8
REMARK    4  A    between atoms: C_8  and  C_9
REMARK    5  A    between atoms: C_9  and  N_10
REMARK    6  A    between atoms: N_10  and  C_11
REMARK    7  A    between atoms: C_14  and  C_15
REMARK    8  A    between atoms: C_23  and  O_24
REMARK                            x       y       z     vdW  Elec       q    Type
REMARK                         _______ _______ _______ _____ _____    ______ ____
ROOT
ATOM      1  C   UNL     1      44.816   4.374   9.925  0.00  0.00    +0.000 A 
ATOM      2  C   UNL     1      43.459   4.676  10.113  0.00  0.00    +0.000 A 
ATOM      3  C   UNL     1      43.009   5.275  11.296  0.00  0.00    +0.000 A 
ATOM      4  C   UNL     1      43.905   5.579  12.322  0.00  0.00    +0.000 A 
ATOM      5  C   UNL     1      45.266   5.310  12.168  0.00  0.00    +0.000 A 
ATOM      6  C   UNL     1      45.693   4.733  10.958  0.00  0.00    +0.000 A 
ENDROOT
BRANCH   1   8
ATOM      7  C   UNL     1      44.108   3.491   7.717  0.00  0.00    +0.000 C 
ATOM      8  C   UNL     1      45.312   3.589   8.687  0.00  0.00    +0.000 C 
ATOM      9  C   UNL     1      46.502   4.331   8.022  0.00  0.00    +0.000 C 
ATOM     10  C   UNL     1      47.113   3.573   6.842  0.00  0.00    +0.000 C 
ATOM     11  C   UNL     1      47.526   2.151   7.214  0.00  0.00    +0.000 C 
ATOM     12  C   UNL     1      46.385   1.376   7.857  0.00  0.00    +0.000 C 
ATOM     13  C   UNL     1      45.787   2.141   9.032  0.00  0.00    +0.000 C 
BRANCH  11  14
ATOM     14  O   UNL     1      47.969   1.462   6.050  0.00  0.00    +0.000 OA
ATOM     15  H   UNL     1      48.709   0.884   6.305  0.00  0.00    +0.000 HD
ENDBRANCH  11  14
ENDBRANCH   1   8
BRANCH   5  16
ATOM     16  C   UNL     1      46.234   5.584  13.309  0.00  0.00    +0.000 C 
BRANCH  16  17
ATOM     17  C   UNL     1      46.744   4.316  14.008  0.00  0.00    +0.000 C 
BRANCH  17  18
ATOM     18  N   UNL     1      46.670   4.384  15.462  0.00  0.00    +0.000 N 
ATOM     19  H   UNL     1      46.088   5.136  15.826  0.00  0.00    +0.000 HD
BRANCH  18  20
ATOM     20  C   UNL     1      47.855   4.217  16.191  0.00  0.00    +0.000 A 
ATOM     21  C   UNL     1      48.265   2.999  16.756  0.00  0.00    +0.000 A 
ATOM     22  C   UNL     1      49.411   2.914  17.553  0.00  0.00    +0.000 A 
ATOM     23  C   UNL     1      50.161   4.058  17.828  0.00  0.00    +0.000 A 
ATOM     24  C   UNL     1      49.752   5.285  17.302  0.00  0.00    +0.000 A 
ATOM     25  C   UNL     1      48.608   5.359  16.492  0.00  0.00    +0.000 A 
BRANCH  23  26
ATOM     26  C   UNL     1      51.349   3.927  18.711  0.00  0.00    +0.000 C 
ATOM     27  N   UNL     1      52.184   2.869  18.492  0.00  0.00    +0.000 N 
ATOM     28  O   UNL     1      51.565   4.717  19.623  0.00  0.00    +0.000 OA
ATOM     29  H   UNL     1      51.926   2.077  17.921  0.00  0.00    +0.000 HD
ATOM     30  H   UNL     1      52.931   2.742  19.164  0.00  0.00    +0.000 HD
ENDBRANCH  23  26
ENDBRANCH  18  20
ENDBRANCH  17  18
ENDBRANCH  16  17
ENDBRANCH   5  16
TORSDOF 7
ENDMDL
