MODEL 1
REMARK VINA RESULT:    -8.088      0.000      0.000
REMARK INTER + INTRA:         -10.245
REMARK INTER:                  -9.979
REMARK INTRA:                  -0.266
REMARK UNBOUND:                -0.266
REMARK  Name = 
REMARK  5 active torsions:
REMARK  status: ('A' for Active; 'I' for Inactive)
REMARK    1  A    between atoms: N_1  and  C_2
REMARK    2  A    between atoms: C_2  and  C_3
REMARK    3  A    between atoms: N_9  and  C_10
REMARK    4  A    between atoms: C_10  and  C_11
REMARK    5  A    between atoms: C_15  and  O_16
REMARK                            x       y       z     vdW  Elec       q    Type
REMARK                         _______ _______ _______ _____ _____    ______ ____
ROOT
ATOM      1  C   UNL     1      46.456   5.823  12.343  0.00  0.00    +0.000 A 
ATOM      2  C   UNL     1      45.922   5.346  13.546  0.00  0.00    +0.000 A 
ATOM      3  N   UNL     1      44.927   4.428  13.641  0.00  0.00    +0.000 NA
ATOM      4  C   UNL     1      44.502   4.001  12.424  0.00  0.00    +0.000 A 
ATOM      5  C   UNL     1      43.525   3.069  12.030  0.00  0.00    +0.000 A 
ATOM      6  N   UNL     1      43.419   2.958  10.699  0.00  0.00    +0.000 NA
ATOM      7  N   UNL     1      44.363   3.826  10.240  0.00  0.00    +0.000 N 
ATOM      8  C   UNL     1      45.037   4.484  11.236  0.00  0.00    +0.000 A 
ATOM      9  N   UNL     1      46.020   5.407  11.119  0.00  0.00    +0.000 NA
ENDROOT
BRANCH   1  10
ATOM     10  C   UNL     1      47.581   6.833  12.381  0.00  0.00    +0.000 C 
BRANCH  10  11
ATOM     11  N   UNL     1      48.830   6.267  12.895  0.00  0.00    +0.000 NA
ATOM     12  H   UNL     1      49.358   7.002  13.361  0.00  0.00    +0.000 HD
ATOM     13  H   UNL     1      49.402   5.978  12.099  0.00  0.00    +0.000 HD
ENDBRANCH  10  11
ENDBRANCH   1  10
BRANCH   7  14
ATOM     14  C   UNL     1      44.543   4.007   8.809  0.00  0.00    +0.000 C 
BRANCH  14  15
ATOM     15  C   UNL     1      45.538   3.037   8.235  0.00  0.00    +0.000 A 
ATOM     16  C   UNL     1      45.554   1.696   8.618  0.00  0.00    +0.000 A 
ATOM     17  N   UNL     1      46.418   0.776   8.130  0.00  0.00    +0.000 NA
ATOM     18  C   UNL     1      47.309   1.208   7.209  0.00  0.00    +0.000 A 
ATOM     19  C   UNL     1      47.362   2.515   6.753  0.00  0.00    +0.000 A 
ATOM     20  C   UNL     1      46.466   3.441   7.268  0.00  0.00    +0.000 A 
BRANCH  19  21
ATOM     21  O   UNL     1      48.256   2.937   5.815  0.00  0.00    +0.000 OA
ATOM     22  H   UNL     1      47.880   3.699   5.342  0.00  0.00    +0.000 HD
ENDBRANCH  19  21
ENDBRANCH  14  15
ENDBRANCH   7  14
TORSDOF 5
ENDMDL
MODEL 2
REMARK VINA RESULT:    -7.224      2.162      2.729
REMARK INTER + INTRA:          -9.180
REMARK INTER:                  -8.783
REMARK INTRA:                  -0.398
REMARK UNBOUND:                -0.266
REMARK  Name = 
REMARK  5 active torsions:
REMARK  status: ('A' for Active; 'I' for Inactive)
REMARK    1  A    between atoms: N_1  and  C_2
REMARK    2  A    between atoms: C_2  and  C_3
REMARK    3  A    between atoms: N_9  and  C_10
REMARK    4  A    between atoms: C_10  and  C_11
REMARK    5  A    between atoms: C_15  and  O_16
REMARK                            x       y       z     vdW  Elec       q    Type
REMARK                         _______ _______ _______ _____ _____    ______ ____
ROOT
ATOM      1  C   UNL     1      44.791   7.308  11.647  0.00  0.00    +0.000 A 
ATOM      2  C   UNL     1      45.528   7.383  12.835  0.00  0.00    +0.000 A 
ATOM      3  N   UNL     1      46.020   6.312  13.509  0.00  0.00    +0.000 NA
ATOM      4  C   UNL     1      45.730   5.138  12.893  0.00  0.00    +0.000 A 
ATOM      5  C   UNL     1      46.035   3.800  13.203  0.00  0.00    +0.000 A 
ATOM      6  N   UNL     1      45.533   2.932  12.313  0.00  0.00    +0.000 NA
ATOM      7  N   UNL     1      44.913   3.741  11.409  0.00  0.00    +0.000 N 
ATOM      8  C   UNL     1      44.996   5.075  11.715  0.00  0.00    +0.000 A 
ATOM      9  N   UNL     1      44.486   6.128  11.035  0.00  0.00    +0.000 NA
ENDROOT
BRANCH   1  10
ATOM     10  C   UNL     1      44.319   8.584  10.987  0.00  0.00    +0.000 C 
BRANCH  10  11
ATOM     11  N   UNL     1      42.861   8.652  10.872  0.00  0.00    +0.000 NA
ATOM     12  H   UNL     1      42.457   8.683  11.807  0.00  0.00    +0.000 HD
ATOM     13  H   UNL     1      42.531   7.779  10.458  0.00  0.00    +0.000 HD
ENDBRANCH  10  11
ENDBRANCH   1  10
BRANCH   7  14
ATOM     14  C   UNL     1      44.215   3.156  10.276  0.00  0.00    +0.000 C 
BRANCH  14  15
ATOM     15  C   UNL     1      45.106   3.012   9.074  0.00  0.00    +0.000 A 
ATOM     16  C   UNL     1      45.416   4.102   8.261  0.00  0.00    +0.000 A 
ATOM     17  N   UNL     1      46.219   4.036   7.174  0.00  0.00    +0.000 NA
ATOM     18  C   UNL     1      46.746   2.826   6.881  0.00  0.00    +0.000 A 
ATOM     19  C   UNL     1      46.511   1.688   7.636  0.00  0.00    +0.000 A 
ATOM     20  C   UNL     1      45.684   1.781   8.746  0.00  0.00    +0.000 A 
BRANCH  19  21
ATOM     21  O   UNL     1      47.057   0.476   7.339  0.00  0.00    +0.000 OA
ATOM     22  H   UNL     1      46.350  -0.128   7.056  0.00  0.00    +0.000 HD
ENDBRANCH  19  21
ENDBRANCH  14  15
ENDBRANCH   7  14
TORSDOF 5
ENDMDL
MODEL 3
REMARK VINA RESULT:    -6.742      1.554      2.058
REMARK INTER + INTRA:          -8.585
REMARK INTER:                  -8.295
REMARK INTRA:                  -0.290
REMARK UNBOUND:                -0.266
REMARK  Name = 
REMARK  5 active torsions:
REMARK  status: ('A' for Active; 'I' for Inactive)
REMARK    1  A    between atoms: N_1  and  C_2
REMARK    2  A    between atoms: C_2  and  C_3
REMARK    3  A    between atoms: N_9  and  C_10
REMARK    4  A    between atoms: C_10  and  C_11
REMARK    5  A    between atoms: C_15  and  O_16
REMARK                            x       y       z     vdW  Elec       q    Type
REMARK                         _______ _______ _______ _____ _____    ______ ____
ROOT
ATOM      1  C   UNL     1      46.389   4.414  13.463  0.00  0.00    +0.000 A 
ATOM      2  C   UNL     1      46.137   5.772  13.692  0.00  0.00    +0.000 A 
ATOM      3  N   UNL     1      45.250   6.523  12.992  0.00  0.00    +0.000 NA
ATOM      4  C   UNL     1      44.608   5.805  12.035  0.00  0.00    +0.000 A 
ATOM      5  C   UNL     1      43.617   6.143  11.095  0.00  0.00    +0.000 A 
ATOM      6  N   UNL     1      43.266   5.110  10.316  0.00  0.00    +0.000 NA
ATOM      7  N   UNL     1      44.038   4.091  10.787  0.00  0.00    +0.000 N 
ATOM      8  C   UNL     1      44.867   4.458  11.815  0.00  0.00    +0.000 A 
ATOM      9  N   UNL     1      45.756   3.694  12.493  0.00  0.00    +0.000 NA
ENDROOT
BRANCH   1  10
ATOM     10  C   UNL     1      47.391   3.690  14.333  0.00  0.00    +0.000 C 
BRANCH  10  11
ATOM     11  N   UNL     1      46.979   3.630  15.738  0.00  0.00    +0.000 NA
ATOM     12  H   UNL     1      46.161   4.224  15.867  0.00  0.00    +0.000 HD
ATOM     13  H   UNL     1      47.717   4.049  16.306  0.00  0.00    +0.000 HD
ENDBRANCH  10  11
ENDBRANCH   1  10
BRANCH   7  14
ATOM     14  C   UNL     1      43.957   2.778  10.168  0.00  0.00    +0.000 C 
BRANCH  14  15
ATOM     15  C   UNL     1      45.014   2.580   9.118  0.00  0.00    +0.000 A 
ATOM     16  C   UNL     1      45.549   1.320   8.850  0.00  0.00    +0.000 A 
ATOM     17  N   UNL     1      46.493   1.079   7.911  0.00  0.00    +0.000 NA
ATOM     18  C   UNL     1      46.927   2.144   7.198  0.00  0.00    +0.000 A 
ATOM     19  C   UNL     1      46.446   3.430   7.379  0.00  0.00    +0.000 A 
ATOM     20  C   UNL     1      45.478   3.653   8.347  0.00  0.00    +0.000 A 
BRANCH  19  21
ATOM     21  O   UNL     1      46.880   4.494   6.646  0.00  0.00    +0.000 OA
ATOM     22  H   UNL     1      47.400   4.166   5.893  0.00  0.00    +0.000 HD
ENDBRANCH  19  21
ENDBRANCH  14  15
ENDBRANCH   7  14
TORSDOF 5
ENDMDL
MODEL 4
REMARK VINA RESULT:    -6.650      2.009      2.959
REMARK INTER + INTRA:          -8.472
REMARK INTER:                  -8.096
REMARK INTRA:                  -0.376
REMARK UNBOUND:                -0.266
REMARK  Name = 
REMARK  5 active torsions:
REMARK  status: ('A' for Active; 'I' for Inactive)
REMARK    1  A    between atoms: N_1  and  C_2
REMARK    2  A    between atoms: C_2  and  C_3
REMARK    3  A    between atoms: N_9  and  C_10
REMARK    4  A    between atoms: C_10  and  C_11
REMARK    5  A    between atoms: C_15  and  O_16
REMARK                            x       y       z     vdW  Elec       q    Type
REMARK                         _______ _______ _______ _____ _____    ______ ____
ROOT
ATOM      1  C   UNL     1      47.221   7.653  12.761  0.00  0.00    +0.000 A 
ATOM      2  C   UNL     1      48.018   7.212  13.824  0.00  0.00    +0.000 A 
ATOM      3  N   UNL     1      48.003   5.954  14.332  0.00  0.00    +0.000 NA
ATOM      4  C   UNL     1      47.128   5.145  13.681  0.00  0.00    +0.000 A 
ATOM      5  C   UNL     1      46.786   3.790  13.840  0.00  0.00    +0.000 A 
ATOM      6  N   UNL     1      45.845   3.387  12.974  0.00  0.00    +0.000 NA
ATOM      7  N   UNL     1      45.601   4.507  12.239  0.00  0.00    +0.000 N 
ATOM      8  C   UNL     1      46.340   5.594  12.628  0.00  0.00    +0.000 A 
ATOM      9  N   UNL     1      46.330   6.846  12.115  0.00  0.00    +0.000 NA
ENDROOT
BRANCH   1  10
ATOM     10  C   UNL     1      47.353   9.080  12.279  0.00  0.00    +0.000 C 
BRANCH  10  11
ATOM     11  N   UNL     1      46.154   9.878  12.546  0.00  0.00    +0.000 NA
ATOM     12  H   UNL     1      45.442   9.276  12.956  0.00  0.00    +0.000 HD
ATOM     13  H   UNL     1      45.771  10.189  11.651  0.00  0.00    +0.000 HD
ENDBRANCH  10  11
ENDBRANCH   1  10
BRANCH   7  14
ATOM     14  C   UNL     1      44.600   4.475  11.185  0.00  0.00    +0.000 C 
BRANCH  14  15
ATOM     15  C   UNL     1      45.150   3.930   9.897  0.00  0.00    +0.000 A 
ATOM     16  C   UNL     1      45.591   4.773   8.877  0.00  0.00    +0.000 A 
ATOM     17  N   UNL     1      46.105   4.341   7.702  0.00  0.00    +0.000 NA
ATOM     18  C   UNL     1      46.190   3.002   7.532  0.00  0.00    +0.000 A 
ATOM     19  C   UNL     1      45.794   2.084   8.492  0.00  0.00    +0.000 A 
ATOM     20  C   UNL     1      45.270   2.551   9.688  0.00  0.00    +0.000 A 
BRANCH  19  21
ATOM     21  O   UNL     1      45.896   0.737   8.315  0.00  0.00    +0.000 OA
ATOM     22  H   UNL     1      45.376   0.481   7.535  0.00  0.00    +0.000 HD
ENDBRANCH  19  21
ENDBRANCH  14  15
ENDBRANCH   7  14
TORSDOF 5
ENDMDL
MODEL 5
REMARK VINA RESULT:    -6.605      3.011      5.955
REMARK INTER + INTRA:          -8.416
REMARK INTER:                  -8.016
REMARK INTRA:                  -0.399
REMARK UNBOUND:                -0.266
REMARK  Name = 
REMARK  5 active torsions:
REMARK  status: ('A' for Active; 'I' for Inactive)
REMARK    1  A    between atoms: N_1  and  C_2
REMARK    2  A    between atoms: C_2  and  C_3
REMARK    3  A    between atoms: N_9  and  C_10
REMARK    4  A    between atoms: C_10  and  C_11
REMARK    5  A    between atoms: C_15  and  O_16
REMARK                            x       y       z     vdW  Elec       q    Type
REMARK                         _______ _______ _______ _____ _____    ______ ____
ROOT
ATOM      1  C   UNL     1      45.114   3.586   8.861  0.00  0.00    +0.000 A 
ATOM      2  C   UNL     1      44.357   2.535   9.391  0.00  0.00    +0.000 A 
ATOM      3  N   UNL     1      43.727   2.564  10.593  0.00  0.00    +0.000 NA
ATOM      4  C   UNL     1      43.896   3.748  11.235  0.00  0.00    +0.000 A 
ATOM      5  C   UNL     1      43.431   4.237  12.469  0.00  0.00    +0.000 A 
ATOM      6  N   UNL     1      43.854   5.482  12.729  0.00  0.00    +0.000 NA
ATOM      7  N   UNL     1      44.588   5.795  11.625  0.00  0.00    +0.000 N 
ATOM      8  C   UNL     1      44.651   4.785  10.700  0.00  0.00    +0.000 A 
ATOM      9  N   UNL     1      45.298   4.771   9.511  0.00  0.00    +0.000 NA
ENDROOT
BRANCH   1  10
ATOM     10  C   UNL     1      45.748   3.429   7.498  0.00  0.00    +0.000 C 
BRANCH  10  11
ATOM     11  N   UNL     1      46.846   4.372   7.274  0.00  0.00    +0.000 NA
ATOM     12  H   UNL     1      47.126   4.771   8.169  0.00  0.00    +0.000 HD
ATOM     13  H   UNL     1      46.489   5.154   6.723  0.00  0.00    +0.000 HD
ENDBRANCH  10  11
ENDBRANCH   1  10
BRANCH   7  14
ATOM     14  C   UNL     1      45.246   7.089  11.539  0.00  0.00    +0.000 C 
BRANCH  14  15
ATOM     15  C   UNL     1      46.430   7.186  12.459  0.00  0.00    +0.000 A 
ATOM     16  C   UNL     1      47.369   6.159  12.551  0.00  0.00    +0.000 A 
ATOM     17  N   UNL     1      48.459   6.194  13.353  0.00  0.00    +0.000 NA
ATOM     18  C   UNL     1      48.627   7.308  14.100  0.00  0.00    +0.000 A 
ATOM     19  C   UNL     1      47.760   8.388  14.067  0.00  0.00    +0.000 A 
ATOM     20  C   UNL     1      46.649   8.329  13.237  0.00  0.00    +0.000 A 
BRANCH  19  21
ATOM     21  O   UNL     1      47.946   9.512  14.814  0.00  0.00    +0.000 OA
ATOM     22  H   UNL     1      47.093   9.966  14.919  0.00  0.00    +0.000 HD
ENDBRANCH  19  21
ENDBRANCH  14  15
ENDBRANCH   7  14
TORSDOF 5
ENDMDL
MODEL 6
REMARK VINA RESULT:    -6.497      4.504      7.356
REMARK INTER + INTRA:          -8.283
REMARK INTER:                  -7.938
REMARK INTRA:                  -0.345
REMARK UNBOUND:                -0.266
REMARK  Name = 
REMARK  5 active torsions:
REMARK  status: ('A' for Active; 'I' for Inactive)
REMARK    1  A    between atoms: N_1  and  C_2
REMARK    2  A    between atoms: C_2  and  C_3
REMARK    3  A    between atoms: N_9  and  C_10
REMARK    4  A    between atoms: C_10  and  C_11
REMARK    5  A    between atoms: C_15  and  O_16
REMARK                            x       y       z     vdW  Elec       q    Type
REMARK                         _______ _______ _______ _____ _____    ______ ____
ROOT
ATOM      1  C   UNL     1      44.612   4.296  12.341  0.00  0.00    +0.000 A 
ATOM      2  C   UNL     1      45.157   5.156  11.380  0.00  0.00    +0.000 A 
ATOM      3  N   UNL     1      46.272   5.909  11.558  0.00  0.00    +0.000 NA
ATOM      4  C   UNL     1      46.825   5.729  12.785  0.00  0.00    +0.000 A 
ATOM      5  C   UNL     1      47.967   6.269  13.403  0.00  0.00    +0.000 A 
ATOM      6  N   UNL     1      48.144   5.819  14.653  0.00  0.00    +0.000 NA
ATOM      7  N   UNL     1      47.101   4.959  14.822  0.00  0.00    +0.000 N 
ATOM      8  C   UNL     1      46.275   4.874  13.732  0.00  0.00    +0.000 A 
ATOM      9  N   UNL     1      45.158   4.125  13.579  0.00  0.00    +0.000 NA
ENDROOT
BRANCH   1  10
ATOM     10  C   UNL     1      43.374   3.498  12.003  0.00  0.00    +0.000 C 
BRANCH  10  11
ATOM     11  N   UNL     1      43.485   2.091  12.396  0.00  0.00    +0.000 NA
ATOM     12  H   UNL     1      43.246   1.505  11.597  0.00  0.00    +0.000 HD
ATOM     13  H   UNL     1      42.773   1.899  13.103  0.00  0.00    +0.000 HD
ENDBRANCH  10  11
ENDBRANCH   1  10
BRANCH   7  14
ATOM     14  C   UNL     1      46.933   4.270  16.091  0.00  0.00    +0.000 C 
BRANCH  14  15
ATOM     15  C   UNL     1      48.172   3.524  16.499  0.00  0.00    +0.000 A 
ATOM     16  C   UNL     1      48.519   2.308  15.910  0.00  0.00    +0.000 A 
ATOM     17  N   UNL     1      49.626   1.597  16.229  0.00  0.00    +0.000 NA
ATOM     18  C   UNL     1      50.432   2.122  17.178  0.00  0.00    +0.000 A 
ATOM     19  C   UNL     1      50.183   3.330  17.809  0.00  0.00    +0.000 A 
ATOM     20  C   UNL     1      49.042   4.041  17.466  0.00  0.00    +0.000 A 
BRANCH  19  21
ATOM     21  O   UNL     1      51.010   3.857  18.755  0.00  0.00    +0.000 OA
ATOM     22  H   UNL     1      51.930   3.648  18.521  0.00  0.00    +0.000 HD
ENDBRANCH  19  21
ENDBRANCH  14  15
ENDBRANCH   7  14
TORSDOF 5
ENDMDL
MODEL 7
REMARK VINA RESULT:    -6.185      2.300      3.974
REMARK INTER + INTRA:          -7.898
REMARK INTER:                  -8.036
REMARK INTRA:                   0.138
REMARK UNBOUND:                -0.266
REMARK  Name = 
REMARK  5 active torsions:
REMARK  status: ('A' for Active; 'I' for Inactive)
REMARK    1  A    between atoms: N_1  and  C_2
REMARK    2  A    between atoms: C_2  and  C_3
REMARK    3  A    between atoms: N_9  and  C_10
REMARK    4  A    between atoms: C_10  and  C_11
REMARK    5  A    between atoms: C_15  and  O_16
REMARK                            x       y       z     vdW  Elec       q    Type
REMARK                         _______ _______ _______ _____ _____    ______ ____
ROOT
ATOM      1  C   UNL     1      47.331   4.468  15.467  0.00  0.00    +0.000 A 
ATOM      2  C   UNL     1      48.303   5.473  15.528  0.00  0.00    +0.000 A 
ATOM      3  N   UNL     1      48.457   6.457  14.607  0.00  0.00    +0.000 NA
ATOM      4  C   UNL     1      47.545   6.374  13.605  0.00  0.00    +0.000 A 
ATOM      5  C   UNL     1      47.310   7.161  12.463  0.00  0.00    +0.000 A 
ATOM      6  N   UNL     1      46.292   6.707  11.718  0.00  0.00    +0.000 NA
ATOM      7  N   UNL     1      45.862   5.618  12.415  0.00  0.00    +0.000 N 
ATOM      8  C   UNL     1      46.585   5.370  13.553  0.00  0.00    +0.000 A 
ATOM      9  N   UNL     1      46.422   4.373  14.453  0.00  0.00    +0.000 NA
ENDROOT
BRANCH   1  10
ATOM     10  C   UNL     1      47.255   3.441  16.574  0.00  0.00    +0.000 C 
BRANCH  10  11
ATOM     11  N   UNL     1      46.772   4.008  17.836  0.00  0.00    +0.000 NA
ATOM     12  H   UNL     1      47.413   4.741  18.135  0.00  0.00    +0.000 HD
ATOM     13  H   UNL     1      46.828   3.283  18.554  0.00  0.00    +0.000 HD
ENDBRANCH  10  11
ENDBRANCH   1  10
BRANCH   7  14
ATOM     14  C   UNL     1      44.757   4.824  11.903  0.00  0.00    +0.000 C 
BRANCH  14  15
ATOM     15  C   UNL     1      45.057   4.241  10.550  0.00  0.00    +0.000 A 
ATOM     16  C   UNL     1      45.435   5.046   9.477  0.00  0.00    +0.000 A 
ATOM     17  N   UNL     1      45.727   4.578   8.241  0.00  0.00    +0.000 NA
ATOM     18  C   UNL     1      45.643   3.240   8.063  0.00  0.00    +0.000 A 
ATOM     19  C   UNL     1      45.292   2.356   9.071  0.00  0.00    +0.000 A 
ATOM     20  C   UNL     1      44.998   2.860  10.329  0.00  0.00    +0.000 A 
BRANCH  19  21
ATOM     21  O   UNL     1      45.224   1.008   8.884  0.00  0.00    +0.000 OA
ATOM     22  H   UNL     1      44.336   0.701   9.133  0.00  0.00    +0.000 HD
ENDBRANCH  19  21
ENDBRANCH  14  15
ENDBRANCH   7  14
TORSDOF 5
ENDMDL
MODEL 8
REMARK VINA RESULT:    -6.032      4.149      7.030
REMARK INTER + INTRA:          -7.709
REMARK INTER:                  -7.265
REMARK INTRA:                  -0.444
REMARK UNBOUND:                -0.266
REMARK  Name = 
REMARK  5 active torsions:
REMARK  status: ('A' for Active; 'I' for Inactive)
REMARK    1  A    between atoms: N_1  and  C_2
REMARK    2  A    between atoms: C_2  and  C_3
REMARK    3  A    between atoms: N_9  and  C_10
REMARK    4  A    between atoms: C_10  and  C_11
REMARK    5  A    between atoms: C_15  and  O_16
REMARK                            x       y       z     vdW  Elec       q    Type
REMARK                         _______ _______ _______ _____ _____    ______ ____
ROOT
ATOM      1  C   UNL     1      43.980   4.349  11.672  0.00  0.00    +0.000 A 
ATOM      2  C   UNL     1      43.172   5.458  11.397  0.00  0.00    +0.000 A 
ATOM      3  N   UNL     1      43.515   6.746  11.648  0.00  0.00    +0.000 NA
ATOM      4  C   UNL     1      44.754   6.854  12.192  0.00  0.00    +0.000 A 
ATOM      5  C   UNL     1      45.524   7.959  12.597  0.00  0.00    +0.000 A 
ATOM      6  N   UNL     1      46.714   7.607  13.103  0.00  0.00    +0.000 NA
ATOM      7  N   UNL     1      46.705   6.249  12.998  0.00  0.00    +0.000 N 
ATOM      8  C   UNL     1      45.548   5.745  12.463  0.00  0.00    +0.000 A 
ATOM      9  N   UNL     1      45.220   4.453  12.232  0.00  0.00    +0.000 NA
ENDROOT
BRANCH   1  10
ATOM     10  C   UNL     1      43.483   2.965  11.322  0.00  0.00    +0.000 C 
BRANCH  10  11
ATOM     11  N   UNL     1      43.545   2.039  12.456  0.00  0.00    +0.000 NA
ATOM     12  H   UNL     1      43.357   2.556  13.314  0.00  0.00    +0.000 HD
ATOM     13  H   UNL     1      44.506   1.702  12.541  0.00  0.00    +0.000 HD
ENDBRANCH  10  11
ENDBRANCH   1  10
BRANCH   7  14
ATOM     14  C   UNL     1      47.844   5.481  13.473  0.00  0.00    +0.000 C 
BRANCH  14  15
ATOM     15  C   UNL     1      47.832   5.314  14.966  0.00  0.00    +0.000 A 
ATOM     16  C   UNL     1      48.485   6.215  15.806  0.00  0.00    +0.000 A 
ATOM     17  N   UNL     1      48.500   6.123  17.157  0.00  0.00    +0.000 NA
ATOM     18  C   UNL     1      47.828   5.084  17.701  0.00  0.00    +0.000 A 
ATOM     19  C   UNL     1      47.135   4.146  16.953  0.00  0.00    +0.000 A 
ATOM     20  C   UNL     1      47.135   4.261  15.571  0.00  0.00    +0.000 A 
BRANCH  19  21
ATOM     21  O   UNL     1      46.451   3.109  17.513  0.00  0.00    +0.000 OA
ATOM     22  H   UNL     1      47.019   2.320  17.515  0.00  0.00    +0.000 HD
ENDBRANCH  19  21
ENDBRANCH  14  15
ENDBRANCH   7  14
TORSDOF 5
ENDMDL
MODEL 9
REMARK VINA RESULT:    -5.951      2.938      4.394
REMARK INTER + INTRA:          -7.608
REMARK INTER:                  -7.510
REMARK INTRA:                  -0.098
REMARK UNBOUND:                -0.266
REMARK  Name = 
REMARK  5 active torsions:
REMARK  status: ('A' for Active; 'I' for Inactive)
REMARK    1  A    between atoms: N_1  and  C_2
REMARK    2  A    between atoms: C_2  and  C_3
REMARK    3  A    between atoms: N_9  and  C_10
REMARK    4  A    between atoms: C_10  and  C_11
REMARK    5  A    between atoms: C_15  and  O_16
REMARK                            x       y       z     vdW  Elec       q    Type
REMARK                         _______ _______ _______ _____ _____    ______ ____
ROOT
ATOM      1  C   UNL     1      46.834   5.622  13.993  0.00  0.00    +0.000 A 
ATOM      2  C   UNL     1      47.735   6.694  13.998  0.00  0.00    +0.000 A 
ATOM      3  N   UNL     1      47.561   7.853  13.316  0.00  0.00    +0.000 NA
ATOM      4  C   UNL     1      46.393   7.875  12.624  0.00  0.00    +0.000 A 
ATOM      5  C   UNL     1      45.791   8.845  11.803  0.00  0.00    +0.000 A 
ATOM      6  N   UNL     1      44.617   8.442  11.296  0.00  0.00    +0.000 NA
ATOM      7  N   UNL     1      44.465   7.195  11.825  0.00  0.00    +0.000 N 
ATOM      8  C   UNL     1      45.507   6.804  12.624  0.00  0.00    +0.000 A 
ATOM      9  N   UNL     1      45.667   5.635  13.286  0.00  0.00    +0.000 NA
ENDROOT
BRANCH   1  10
ATOM     10  C   UNL     1      47.141   4.393  14.818  0.00  0.00    +0.000 C 
BRANCH  10  11
ATOM     11  N   UNL     1      47.210   3.174  14.008  0.00  0.00    +0.000 NA
ATOM     12  H   UNL     1      47.903   2.547  14.414  0.00  0.00    +0.000 HD
ATOM     13  H   UNL     1      47.569   3.423  13.085  0.00  0.00    +0.000 HD
ENDBRANCH  10  11
ENDBRANCH   1  10
BRANCH   7  14
ATOM     14  C   UNL     1      43.292   6.406  11.485  0.00  0.00    +0.000 C 
BRANCH  14  15
ATOM     15  C   UNL     1      43.658   5.044  10.962  0.00  0.00    +0.000 A 
ATOM     16  C   UNL     1      44.496   4.887   9.859  0.00  0.00    +0.000 A 
ATOM     17  N   UNL     1      44.868   3.689   9.352  0.00  0.00    +0.000 NA
ATOM     18  C   UNL     1      44.386   2.590   9.974  0.00  0.00    +0.000 A 
ATOM     19  C   UNL     1      43.561   2.642  11.085  0.00  0.00    +0.000 A 
ATOM     20  C   UNL     1      43.193   3.881  11.588  0.00  0.00    +0.000 A 
BRANCH  19  21
ATOM     21  O   UNL     1      43.091   1.527  11.713  0.00  0.00    +0.000 OA
ATOM     22  H   UNL     1      42.882   0.853  11.044  0.00  0.00    +0.000 HD
ENDBRANCH  19  21
ENDBRANCH  14  15
ENDBRANCH   7  14
TORSDOF 5
ENDMDL
