MODEL 1
REMARK VINA RESULT:    -8.061      0.000      0.000
REMARK INTER + INTRA:         -10.722
REMARK INTER:                  -9.946
REMARK INTRA:                  -0.777
REMARK UNBOUND:                -0.777
REMARK  Name = 
REMARK  4 active torsions:
REMARK  status: ('A' for Active; 'I' for Inactive)
REMARK    1  A    between atoms: C_2  and  C_4
REMARK    2  A    between atoms: C_7  and  O_8
REMARK    3  A    between atoms: O_8  and  C_9
REMARK    4  A    between atoms: C_9  and  C_10
REMARK                            x       y       z     vdW  Elec       q    Type
REMARK                         _______ _______ _______ _____ _____    ______ ____
ROOT
ATOM      1  C   UNL     1      46.456   2.699   7.611  0.00  0.00    +0.000 A 
ATOM      2  C   UNL     1      46.089   4.038   7.793  0.00  0.00    +0.000 A 
ATOM      3  C   UNL     1      45.133   4.381   8.755  0.00  0.00    +0.000 A 
ATOM      4  C   UNL     1      44.531   3.393   9.528  0.00  0.00    +0.000 A 
ATOM      5  C   UNL     1      44.902   2.058   9.354  0.00  0.00    +0.000 A 
ATOM      6  C   UNL     1      45.854   1.707   8.392  0.00  0.00    +0.000 A 
ENDROOT
BRANCH   1   8
ATOM      7  N   UNL     1      47.427   2.951   5.387  0.00  0.00    +0.000 N 
ATOM      8  C   UNL     1      47.453   2.293   6.586  0.00  0.00    +0.000 C 
ATOM      9  O   UNL     1      48.287   1.425   6.809  0.00  0.00    +0.000 OA
ATOM     10  H   UNL     1      48.169   2.727   4.738  0.00  0.00    +0.000 HD
ATOM     11  H   UNL     1      46.946   3.832   5.265  0.00  0.00    +0.000 HD
ENDBRANCH   1   8
BRANCH   4  12
ATOM     12  O   UNL     1      43.621   3.636  10.522  0.00  0.00    +0.000 OA
BRANCH  12  13
ATOM     13  C   UNL     1      43.795   4.818  11.348  0.00  0.00    +0.000 C 
ATOM     14  C   UNL     1      42.505   5.126  12.102  0.00  0.00    +0.000 C 
ATOM     15  C   UNL     1      42.982   6.062  11.041  0.00  0.00    +0.000 C 
BRANCH  13  16
ATOM     16  C   UNL     1      45.104   4.943  12.118  0.00  0.00    +0.000 A 
ATOM     17  C   UNL     1      45.881   6.116  12.075  0.00  0.00    +0.000 A 
ATOM     18  C   UNL     1      47.075   6.233  12.792  0.00  0.00    +0.000 A 
ATOM     19  C   UNL     1      47.521   5.171  13.572  0.00  0.00    +0.000 A 
ATOM     20  C   UNL     1      46.779   3.995  13.628  0.00  0.00    +0.000 A 
ATOM     21  C   UNL     1      45.587   3.883  12.904  0.00  0.00    +0.000 A 
ENDBRANCH  13  16
ENDBRANCH  12  13
ENDBRANCH   4  12
TORSDOF 4
ENDMDL
MODEL 2
REMARK VINA RESULT:    -7.879      0.130      1.115
REMARK INTER + INTRA:         -10.499
REMARK INTER:                  -9.836
REMARK INTRA:                  -0.662
REMARK UNBOUND:                -0.777
REMARK  Name = 
REMARK  4 active torsions:
REMARK  status: ('A' for Active; 'I' for Inactive)
REMARK    1  A    between atoms: C_2  and  C_4
REMARK    2  A    between atoms: C_7  and  O_8
REMARK    3  A    between atoms: O_8  and  C_9
REMARK    4  A    between atoms: C_9  and  C_10
REMARK                            x       y       z     vdW  Elec       q    Type
REMARK                         _______ _______ _______ _____ _____    ______ ____
ROOT
ATOM      1  C   UNL     1      46.390   2.695   7.612  0.00  0.00    +0.000 A 
ATOM      2  C   UNL     1      45.835   1.671   8.389  0.00  0.00    +0.000 A 
ATOM      3  C   UNL     1      44.881   1.969   9.368  0.00  0.00    +0.000 A 
ATOM      4  C   UNL     1      44.487   3.287   9.583  0.00  0.00    +0.000 A 
ATOM      5  C   UNL     1      45.033   4.308   8.803  0.00  0.00    +0.000 A 
ATOM      6  C   UNL     1      45.990   4.018   7.826  0.00  0.00    +0.000 A 
ENDROOT
BRANCH   1   8
ATOM      7  N   UNL     1      47.366   3.154   5.424  0.00  0.00    +0.000 N 
ATOM      8  C   UNL     1      47.421   2.420   6.576  0.00  0.00    +0.000 C 
ATOM      9  O   UNL     1      48.306   1.592   6.754  0.00  0.00    +0.000 OA
ATOM     10  H   UNL     1      48.128   3.019   4.772  0.00  0.00    +0.000 HD
ATOM     11  H   UNL     1      46.833   4.009   5.353  0.00  0.00    +0.000 HD
ENDBRANCH   1   8
BRANCH   4  12
ATOM     12  O   UNL     1      43.530   3.669  10.484  0.00  0.00    +0.000 OA
BRANCH  12  13
ATOM     13  C   UNL     1      43.768   4.855  11.288  0.00  0.00    +0.000 C 
ATOM     14  C   UNL     1      42.491   5.258  12.021  0.00  0.00    +0.000 C 
ATOM     15  C   UNL     1      43.036   6.141  10.947  0.00  0.00    +0.000 C 
BRANCH  13  16
ATOM     16  C   UNL     1      45.073   4.915  12.071  0.00  0.00    +0.000 A 
ATOM     17  C   UNL     1      45.932   6.028  11.998  0.00  0.00    +0.000 A 
ATOM     18  C   UNL     1      47.123   6.086  12.727  0.00  0.00    +0.000 A 
ATOM     19  C   UNL     1      47.484   5.025  13.549  0.00  0.00    +0.000 A 
ATOM     20  C   UNL     1      46.660   3.907  13.637  0.00  0.00    +0.000 A 
ATOM     21  C   UNL     1      45.471   3.853  12.901  0.00  0.00    +0.000 A 
ENDBRANCH  13  16
ENDBRANCH  12  13
ENDBRANCH   4  12
TORSDOF 4
ENDMDL
MODEL 3
REMARK VINA RESULT:    -6.303      3.691      6.327
REMARK INTER + INTRA:          -8.554
REMARK INTER:                  -8.062
REMARK INTRA:                  -0.492
REMARK UNBOUND:                -0.777
REMARK  Name = 
REMARK  4 active torsions:
REMARK  status: ('A' for Active; 'I' for Inactive)
REMARK    1  A    between atoms: C_2  and  C_4
REMARK    2  A    between atoms: C_7  and  O_8
REMARK    3  A    between atoms: O_8  and  C_9
REMARK    4  A    between atoms: C_9  and  C_10
REMARK                            x       y       z     vdW  Elec       q    Type
REMARK                         _______ _______ _______ _____ _____    ______ ____
ROOT
ATOM      1  C   UNL     1      47.217   8.297  13.222  0.00  0.00    +0.000 A 
ATOM      2  C   UNL     1      47.705   7.239  12.446  0.00  0.00    +0.000 A 
ATOM      3  C   UNL     1      46.838   6.513  11.621  0.00  0.00    +0.000 A 
ATOM      4  C   UNL     1      45.483   6.830  11.578  0.00  0.00    +0.000 A 
ATOM      5  C   UNL     1      44.997   7.891  12.345  0.00  0.00    +0.000 A 
ATOM      6  C   UNL     1      45.856   8.618  13.174  0.00  0.00    +0.000 A 
ENDROOT
BRANCH   1   8
ATOM      7  N   UNL     1      47.701   9.231  15.423  0.00  0.00    +0.000 N 
ATOM      8  C   UNL     1      48.103   9.079  14.125  0.00  0.00    +0.000 C 
ATOM      9  O   UNL     1      49.166   9.545  13.736  0.00  0.00    +0.000 OA
ATOM     10  H   UNL     1      48.358   9.684  16.043  0.00  0.00    +0.000 HD
ATOM     11  H   UNL     1      46.986   8.651  15.839  0.00  0.00    +0.000 HD
ENDBRANCH   1   8
BRANCH   4  12
ATOM     12  O   UNL     1      44.570   6.208  10.770  0.00  0.00    +0.000 OA
BRANCH  12  13
ATOM     13  C   UNL     1      44.436   4.764  10.858  0.00  0.00    +0.000 C 
ATOM     14  C   UNL     1      43.031   4.393  11.322  0.00  0.00    +0.000 C 
ATOM     15  C   UNL     1      44.198   4.123  12.213  0.00  0.00    +0.000 C 
BRANCH  13  16
ATOM     16  C   UNL     1      45.041   3.939   9.729  0.00  0.00    +0.000 A 
ATOM     17  C   UNL     1      45.677   4.542   8.627  0.00  0.00    +0.000 A 
ATOM     18  C   UNL     1      46.242   3.783   7.599  0.00  0.00    +0.000 A 
ATOM     19  C   UNL     1      46.182   2.394   7.651  0.00  0.00    +0.000 A 
ATOM     20  C   UNL     1      45.553   1.768   8.723  0.00  0.00    +0.000 A 
ATOM     21  C   UNL     1      44.986   2.535   9.746  0.00  0.00    +0.000 A 
ENDBRANCH  13  16
ENDBRANCH  12  13
ENDBRANCH   4  12
TORSDOF 4
ENDMDL
MODEL 4
REMARK VINA RESULT:    -6.092      3.392      6.081
REMARK INTER + INTRA:          -8.293
REMARK INTER:                  -7.870
REMARK INTRA:                  -0.423
REMARK UNBOUND:                -0.777
REMARK  Name = 
REMARK  4 active torsions:
REMARK  status: ('A' for Active; 'I' for Inactive)
REMARK    1  A    between atoms: C_2  and  C_4
REMARK    2  A    between atoms: C_7  and  O_8
REMARK    3  A    between atoms: O_8  and  C_9
REMARK    4  A    between atoms: C_9  and  C_10
REMARK                            x       y       z     vdW  Elec       q    Type
REMARK                         _______ _______ _______ _____ _____    ______ ____
ROOT
ATOM      1  C   UNL     1      48.090   6.851  14.027  0.00  0.00    +0.000 A 
ATOM      2  C   UNL     1      47.574   5.589  13.708  0.00  0.00    +0.000 A 
ATOM      3  C   UNL     1      46.403   5.478  12.951  0.00  0.00    +0.000 A 
ATOM      4  C   UNL     1      45.736   6.622  12.521  0.00  0.00    +0.000 A 
ATOM      5  C   UNL     1      46.254   7.882  12.831  0.00  0.00    +0.000 A 
ATOM      6  C   UNL     1      47.422   7.999  13.590  0.00  0.00    +0.000 A 
ENDROOT
BRANCH   1   8
ATOM      7  N   UNL     1      50.435   7.494  14.219  0.00  0.00    +0.000 N 
ATOM      8  C   UNL     1      49.321   7.009  14.846  0.00  0.00    +0.000 C 
ATOM      9  O   UNL     1      49.335   6.745  16.042  0.00  0.00    +0.000 OA
ATOM     10  H   UNL     1      51.233   7.682  14.811  0.00  0.00    +0.000 HD
ATOM     11  H   UNL     1      50.391   7.965  13.327  0.00  0.00    +0.000 HD
ENDBRANCH   1   8
BRANCH   4  12
ATOM     12  O   UNL     1      44.612   6.614  11.740  0.00  0.00    +0.000 OA
BRANCH  12  13
ATOM     13  C   UNL     1      43.905   5.359  11.555  0.00  0.00    +0.000 C 
ATOM     14  C   UNL     1      42.399   5.583  11.659  0.00  0.00    +0.000 C 
ATOM     15  C   UNL     1      43.101   4.783  12.707  0.00  0.00    +0.000 C 
BRANCH  13  16
ATOM     16  C   UNL     1      44.401   4.438  10.447  0.00  0.00    +0.000 A 
ATOM     17  C   UNL     1      45.169   4.919   9.369  0.00  0.00    +0.000 A 
ATOM     18  C   UNL     1      45.633   4.070   8.361  0.00  0.00    +0.000 A 
ATOM     19  C   UNL     1      45.337   2.712   8.409  0.00  0.00    +0.000 A 
ATOM     20  C   UNL     1      44.574   2.207   9.457  0.00  0.00    +0.000 A 
ATOM     21  C   UNL     1      44.108   3.063  10.460  0.00  0.00    +0.000 A 
ENDBRANCH  13  16
ENDBRANCH  12  13
ENDBRANCH   4  12
TORSDOF 4
ENDMDL
MODEL 5
REMARK VINA RESULT:    -5.847      4.077      6.802
REMARK INTER + INTRA:          -7.991
REMARK INTER:                  -7.541
REMARK INTRA:                  -0.449
REMARK UNBOUND:                -0.777
REMARK  Name = 
REMARK  4 active torsions:
REMARK  status: ('A' for Active; 'I' for Inactive)
REMARK    1  A    between atoms: C_2  and  C_4
REMARK    2  A    between atoms: C_7  and  O_8
REMARK    3  A    between atoms: O_8  and  C_9
REMARK    4  A    between atoms: C_9  and  C_10
REMARK                            x       y       z     vdW  Elec       q    Type
REMARK                         _______ _______ _______ _____ _____    ______ ____
ROOT
ATOM      1  C   UNL     1      47.911   4.922  15.965  0.00  0.00    +0.000 A 
ATOM      2  C   UNL     1      47.127   4.035  15.219  0.00  0.00    +0.000 A 
ATOM      3  C   UNL     1      46.754   4.355  13.909  0.00  0.00    +0.000 A 
ATOM      4  C   UNL     1      47.150   5.564  13.344  0.00  0.00    +0.000 A 
ATOM      5  C   UNL     1      47.940   6.446  14.084  0.00  0.00    +0.000 A 
ATOM      6  C   UNL     1      48.313   6.135  15.395  0.00  0.00    +0.000 A 
ENDROOT
BRANCH   1   8
ATOM      7  N   UNL     1      47.370   4.061  18.182  0.00  0.00    +0.000 N 
ATOM      8  C   UNL     1      48.310   4.626  17.366  0.00  0.00    +0.000 C 
ATOM      9  O   UNL     1      49.444   4.849  17.772  0.00  0.00    +0.000 OA
ATOM     10  H   UNL     1      47.685   3.782  19.101  0.00  0.00    +0.000 HD
ATOM     11  H   UNL     1      46.533   3.626  17.821  0.00  0.00    +0.000 HD
ENDBRANCH   1   8
BRANCH   4  12
ATOM     12  O   UNL     1      46.873   5.943  12.058  0.00  0.00    +0.000 OA
BRANCH  12  13
ATOM     13  C   UNL     1      45.509   5.815  11.576  0.00  0.00    +0.000 C 
ATOM     14  C   UNL     1      44.891   7.196  11.372  0.00  0.00    +0.000 C 
ATOM     15  C   UNL     1      44.365   6.304  12.447  0.00  0.00    +0.000 C 
BRANCH  13  16
ATOM     16  C   UNL     1      45.245   4.765  10.505  0.00  0.00    +0.000 A 
ATOM     17  C   UNL     1      45.635   4.957   9.165  0.00  0.00    +0.000 A 
ATOM     18  C   UNL     1      45.402   3.987   8.186  0.00  0.00    +0.000 A 
ATOM     19  C   UNL     1      44.770   2.797   8.528  0.00  0.00    +0.000 A 
ATOM     20  C   UNL     1      44.365   2.580   9.841  0.00  0.00    +0.000 A 
ATOM     21  C   UNL     1      44.597   3.558  10.815  0.00  0.00    +0.000 A 
ENDBRANCH  13  16
ENDBRANCH  12  13
ENDBRANCH   4  12
TORSDOF 4
ENDMDL
MODEL 6
REMARK VINA RESULT:    -5.617      4.952      8.007
REMARK INTER + INTRA:          -7.708
REMARK INTER:                  -6.964
REMARK INTRA:                  -0.744
REMARK UNBOUND:                -0.777
REMARK  Name = 
REMARK  4 active torsions:
REMARK  status: ('A' for Active; 'I' for Inactive)
REMARK    1  A    between atoms: C_2  and  C_4
REMARK    2  A    between atoms: C_7  and  O_8
REMARK    3  A    between atoms: O_8  and  C_9
REMARK    4  A    between atoms: C_9  and  C_10
REMARK                            x       y       z     vdW  Elec       q    Type
REMARK                         _______ _______ _______ _____ _____    ______ ____
ROOT
ATOM      1  C   UNL     1      47.965   5.105  17.878  0.00  0.00    +0.000 A 
ATOM      2  C   UNL     1      47.229   4.189  17.117  0.00  0.00    +0.000 A 
ATOM      3  C   UNL     1      47.202   4.294  15.722  0.00  0.00    +0.000 A 
ATOM      4  C   UNL     1      47.895   5.318  15.082  0.00  0.00    +0.000 A 
ATOM      5  C   UNL     1      48.637   6.227  15.840  0.00  0.00    +0.000 A 
ATOM      6  C   UNL     1      48.666   6.130  17.234  0.00  0.00    +0.000 A 
ENDROOT
BRANCH   1   8
ATOM      7  N   UNL     1      48.565   3.927  19.927  0.00  0.00    +0.000 N 
ATOM      8  C   UNL     1      48.003   5.038  19.362  0.00  0.00    +0.000 C 
ATOM      9  O   UNL     1      47.577   5.951  20.058  0.00  0.00    +0.000 OA
ATOM     10  H   UNL     1      48.666   3.940  20.933  0.00  0.00    +0.000 HD
ATOM     11  H   UNL     1      49.155   3.294  19.405  0.00  0.00    +0.000 HD
ENDBRANCH   1   8
BRANCH   4  12
ATOM     12  O   UNL     1      47.964   5.474  13.724  0.00  0.00    +0.000 OA
BRANCH  12  13
ATOM     13  C   UNL     1      46.851   6.111  13.042  0.00  0.00    +0.000 C 
ATOM     14  C   UNL     1      47.362   6.953  11.876  0.00  0.00    +0.000 C 
ATOM     15  C   UNL     1      46.742   7.625  13.057  0.00  0.00    +0.000 C 
BRANCH  13  16
ATOM     16  C   UNL     1      45.605   5.268  12.804  0.00  0.00    +0.000 A 
ATOM     17  C   UNL     1      45.685   3.935  12.358  0.00  0.00    +0.000 A 
ATOM     18  C   UNL     1      44.541   3.159  12.152  0.00  0.00    +0.000 A 
ATOM     19  C   UNL     1      43.283   3.704  12.388  0.00  0.00    +0.000 A 
ATOM     20  C   UNL     1      43.171   5.022  12.821  0.00  0.00    +0.000 A 
ATOM     21  C   UNL     1      44.320   5.794  13.021  0.00  0.00    +0.000 A 
ENDBRANCH  13  16
ENDBRANCH  12  13
ENDBRANCH   4  12
TORSDOF 4
ENDMDL
MODEL 7
REMARK VINA RESULT:    -5.335      4.365      7.173
REMARK INTER + INTRA:          -7.359
REMARK INTER:                  -6.726
REMARK INTRA:                  -0.634
REMARK UNBOUND:                -0.777
REMARK  Name = 
REMARK  4 active torsions:
REMARK  status: ('A' for Active; 'I' for Inactive)
REMARK    1  A    between atoms: C_2  and  C_4
REMARK    2  A    between atoms: C_7  and  O_8
REMARK    3  A    between atoms: O_8  and  C_9
REMARK    4  A    between atoms: C_9  and  C_10
REMARK                            x       y       z     vdW  Elec       q    Type
REMARK                         _______ _______ _______ _____ _____    ______ ____
ROOT
ATOM      1  C   UNL     1      47.967   4.736  16.662  0.00  0.00    +0.000 A 
ATOM      2  C   UNL     1      48.644   5.930  16.383  0.00  0.00    +0.000 A 
ATOM      3  C   UNL     1      48.536   6.522  15.120  0.00  0.00    +0.000 A 
ATOM      4  C   UNL     1      47.765   5.921  14.128  0.00  0.00    +0.000 A 
ATOM      5  C   UNL     1      47.083   4.735  14.408  0.00  0.00    +0.000 A 
ATOM      6  C   UNL     1      47.189   4.136  15.666  0.00  0.00    +0.000 A 
ENDROOT
BRANCH   1   8
ATOM      7  N   UNL     1      47.326   2.938  18.180  0.00  0.00    +0.000 N 
ATOM      8  C   UNL     1      48.073   4.067  17.985  0.00  0.00    +0.000 C 
ATOM      9  O   UNL     1      48.819   4.487  18.860  0.00  0.00    +0.000 OA
ATOM     10  H   UNL     1      47.481   2.445  19.049  0.00  0.00    +0.000 HD
ATOM     11  H   UNL     1      46.918   2.421  17.414  0.00  0.00    +0.000 HD
ENDBRANCH   1   8
BRANCH   4  12
ATOM     12  O   UNL     1      47.565   6.448  12.881  0.00  0.00    +0.000 OA
BRANCH  12  13
ATOM     13  C   UNL     1      46.280   7.055  12.583  0.00  0.00    +0.000 C 
ATOM     14  C   UNL     1      46.480   8.363  11.822  0.00  0.00    +0.000 C 
ATOM     15  C   UNL     1      45.929   8.393  13.209  0.00  0.00    +0.000 C 
BRANCH  13  16
ATOM     16  C   UNL     1      45.167   6.131  12.105  0.00  0.00    +0.000 A 
ATOM     17  C   UNL     1      44.011   5.901  12.876  0.00  0.00    +0.000 A 
ATOM     18  C   UNL     1      42.986   5.062  12.430  0.00  0.00    +0.000 A 
ATOM     19  C   UNL     1      43.096   4.430  11.196  0.00  0.00    +0.000 A 
ATOM     20  C   UNL     1      44.230   4.631  10.414  0.00  0.00    +0.000 A 
ATOM     21  C   UNL     1      45.254   5.468  10.869  0.00  0.00    +0.000 A 
ENDBRANCH  13  16
ENDBRANCH  12  13
ENDBRANCH   4  12
TORSDOF 4
ENDMDL
