MODEL 1
REMARK VINA RESULT:    -7.065      0.000      0.000
REMARK INTER + INTRA:         -11.203
REMARK INTER:                  -9.956
REMARK INTRA:                  -1.246
REMARK UNBOUND:                -1.246
REMARK  Name = 
REMARK  7 active torsions:
REMARK  status: ('A' for Active; 'I' for Inactive)
REMARK    1  A    between atoms: C_2  and  C_3
REMARK    2  A    between atoms: C_3  and  N_4
REMARK    3  A    between atoms: C_3  and  C_22
REMARK    4  A    between atoms: C_5  and  C_7
REMARK    5  A    between atoms: C_10  and  C_11
REMARK    6  A    between atoms: C_11  and  N_12
REMARK    7  A    between atoms: C_13  and  C_15
REMARK                            x       y       z     vdW  Elec       q    Type
REMARK                         _______ _______ _______ _____ _____    ______ ____
ROOT
ATOM      1  N   UNL     1      46.951   8.253  12.211  0.00  0.00    +0.000 N 
ATOM      2  C   UNL     1      45.580   8.114  12.201  0.00  0.00    +0.000 C 
ATOM      3  O   UNL     1      44.826   8.853  12.820  0.00  0.00    +0.000 OA
ATOM      4  H   UNL     1      47.473   7.405  11.994  0.00  0.00    +0.000 HD
ENDROOT
BRANCH   2   5
ATOM      5  C   UNL     1      45.121   7.007  11.249  0.00  0.00    +0.000 C 
ATOM      6  C   UNL     1      46.150   5.890  11.030  0.00  0.00    +0.000 C 
ATOM      7  C   UNL     1      46.176   4.801  12.103  0.00  0.00    +0.000 C 
ATOM      8  C   UNL     1      44.785   4.296  12.510  0.00  0.00    +0.000 C 
ATOM      9  C   UNL     1      43.900   5.498  12.888  0.00  0.00    +0.000 C 
ATOM     10  C   UNL     1      43.759   6.492  11.730  0.00  0.00    +0.000 C 
BRANCH   8  11
ATOM     11  C   UNL     1      44.063   3.495  11.418  0.00  0.00    +0.000 C 
BRANCH  11  12
ATOM     12  N   UNL     1      44.871   2.723  10.516  0.00  0.00    +0.000 N 
ATOM     13  C   UNL     1      44.899   3.123   9.190  0.00  0.00    +0.000 C 
ATOM     14  O   UNL     1      44.174   4.014   8.747  0.00  0.00    +0.000 OA
ATOM     15  H   UNL     1      45.612   2.094  10.817  0.00  0.00    +0.000 HD
BRANCH  13  16
ATOM     16  C   UNL     1      45.874   2.431   8.345  0.00  0.00    +0.000 A 
ATOM     17  C   UNL     1      46.720   3.049   7.386  0.00  0.00    +0.000 A 
ATOM     18  C   UNL     1      47.447   2.025   6.835  0.00  0.00    +0.000 A 
ATOM     19  N   UNL     1      47.027   0.890   7.460  0.00  0.00    +0.000 N 
ATOM     20  N   UNL     1      46.081   1.100   8.393  0.00  0.00    +0.000 NA
ATOM     21  H   UNL     1      47.341  -0.062   7.301  0.00  0.00    +0.000 HD
ENDBRANCH  13  16
ENDBRANCH  11  12
ENDBRANCH   8  11
ENDBRANCH   2   5
BRANCH   1  22
ATOM     22  C   UNL     1      47.622   9.163  13.121  0.00  0.00    +0.000 C 
BRANCH  22  23
ATOM     23  C   UNL     1      48.846   9.753  12.429  0.00  0.00    +0.000 A 
ATOM     24  C   UNL     1      49.073  11.118  12.332  0.00  0.00    +0.000 A 
ATOM     25  S   UNL     1      50.430  11.516  11.371  0.00  0.00    +0.000 S 
ATOM     26  C   UNL     1      50.813   9.878  11.122  0.00  0.00    +0.000 A 
ATOM     27  N   UNL     1      51.871   9.505  10.353  0.00  0.00    +0.000 NA
ATOM     28  C   UNL     1      52.070   8.230  10.299  0.00  0.00    +0.000 A 
ATOM     29  N   UNL     1      51.313   7.292  10.954  0.00  0.00    +0.000 N 
ATOM     30  C   UNL     1      50.218   7.620  11.718  0.00  0.00    +0.000 A 
ATOM     31  O   UNL     1      49.530   6.768  12.272  0.00  0.00    +0.000 OA
ATOM     32  C   UNL     1      49.937   9.042  11.790  0.00  0.00    +0.000 A 
ATOM     33  H   UNL     1      51.537   6.309  10.885  0.00  0.00    +0.000 HD
ENDBRANCH  22  23
BRANCH  22  35
ATOM     34  N   UNL     1      48.299   7.971  15.379  0.00  0.00    +0.000 NA
ATOM     35  C   UNL     1      47.996   8.488  14.379  0.00  0.00    +0.000 C 
ENDBRANCH  22  35
ENDBRANCH   1  22
TORSDOF 7
ENDMDL
MODEL 2
REMARK VINA RESULT:    -7.058      4.353      5.555
REMARK INTER + INTRA:         -11.193
REMARK INTER:                 -10.222
REMARK INTRA:                  -0.971
REMARK UNBOUND:                -1.246
REMARK  Name = 
REMARK  7 active torsions:
REMARK  status: ('A' for Active; 'I' for Inactive)
REMARK    1  A    between atoms: C_2  and  C_3
REMARK    2  A    between atoms: C_3  and  N_4
REMARK    3  A    between atoms: C_3  and  C_22
REMARK    4  A    between atoms: C_5  and  C_7
REMARK    5  A    between atoms: C_10  and  C_11
REMARK    6  A    between atoms: C_11  and  N_12
REMARK    7  A    between atoms: C_13  and  C_15
REMARK                            x       y       z     vdW  Elec       q    Type
REMARK                         _______ _______ _______ _____ _____    ______ ____
ROOT
ATOM      1  N   UNL     1      48.399   5.766  15.767  0.00  0.00    +0.000 N 
ATOM      2  C   UNL     1      48.550   6.768  14.834  0.00  0.00    +0.000 C 
ATOM      3  O   UNL     1      49.019   7.868  15.100  0.00  0.00    +0.000 OA
ATOM      4  H   UNL     1      47.686   5.073  15.546  0.00  0.00    +0.000 HD
ENDROOT
BRANCH   2   5
ATOM      5  C   UNL     1      48.166   6.308  13.427  0.00  0.00    +0.000 C 
ATOM      6  C   UNL     1      47.135   5.172  13.390  0.00  0.00    +0.000 C 
ATOM      7  C   UNL     1      45.675   5.605  13.524  0.00  0.00    +0.000 C 
ATOM      8  C   UNL     1      45.302   6.812  12.654  0.00  0.00    +0.000 C 
ATOM      9  C   UNL     1      46.300   7.955  12.919  0.00  0.00    +0.000 C 
ATOM     10  C   UNL     1      47.743   7.538  12.615  0.00  0.00    +0.000 C 
BRANCH   8  11
ATOM     11  C   UNL     1      45.296   6.525  11.147  0.00  0.00    +0.000 C 
BRANCH  11  12
ATOM     12  N   UNL     1      44.967   5.191  10.727  0.00  0.00    +0.000 N 
ATOM     13  C   UNL     1      45.491   4.759   9.519  0.00  0.00    +0.000 C 
ATOM     14  O   UNL     1      46.104   5.504   8.754  0.00  0.00    +0.000 OA
ATOM     15  H   UNL     1      44.617   4.470  11.354  0.00  0.00    +0.000 HD
BRANCH  13  16
ATOM     16  C   UNL     1      45.289   3.341   9.217  0.00  0.00    +0.000 A 
ATOM     17  C   UNL     1      46.067   2.572   8.311  0.00  0.00    +0.000 A 
ATOM     18  C   UNL     1      45.517   1.316   8.341  0.00  0.00    +0.000 A 
ATOM     19  N   UNL     1      44.483   1.381   9.226  0.00  0.00    +0.000 N 
ATOM     20  N   UNL     1      44.323   2.593   9.788  0.00  0.00    +0.000 NA
ATOM     21  H   UNL     1      43.845   0.640   9.495  0.00  0.00    +0.000 HD
ENDBRANCH  13  16
ENDBRANCH  11  12
ENDBRANCH   8  11
ENDBRANCH   2   5
BRANCH   1  22
ATOM     22  C   UNL     1      48.597   6.003  17.186  0.00  0.00    +0.000 C 
BRANCH  22  23
ATOM     23  C   UNL     1      49.882   5.318  17.635  0.00  0.00    +0.000 A 
ATOM     24  C   UNL     1      50.915   5.994  18.269  0.00  0.00    +0.000 A 
ATOM     25  S   UNL     1      52.305   5.030  18.523  0.00  0.00    +0.000 S 
ATOM     26  C   UNL     1      51.546   3.654  17.872  0.00  0.00    +0.000 A 
ATOM     27  N   UNL     1      52.200   2.466  17.767  0.00  0.00    +0.000 NA
ATOM     28  C   UNL     1      51.480   1.498  17.305  0.00  0.00    +0.000 A 
ATOM     29  N   UNL     1      50.160   1.608  16.947  0.00  0.00    +0.000 N 
ATOM     30  C   UNL     1      49.468   2.793  17.008  0.00  0.00    +0.000 A 
ATOM     31  O   UNL     1      48.296   2.884  16.653  0.00  0.00    +0.000 OA
ATOM     32  C   UNL     1      50.242   3.920  17.499  0.00  0.00    +0.000 A 
ATOM     33  H   UNL     1      49.649   0.803  16.611  0.00  0.00    +0.000 HD
ENDBRANCH  22  23
BRANCH  22  35
ATOM     34  N   UNL     1      46.529   5.147  18.590  0.00  0.00    +0.000 NA
ATOM     35  C   UNL     1      47.441   5.534  17.975  0.00  0.00    +0.000 C 
ENDBRANCH  22  35
ENDBRANCH   1  22
TORSDOF 7
ENDMDL
MODEL 3
REMARK VINA RESULT:    -6.992      2.717      3.556
REMARK INTER + INTRA:         -11.100
REMARK INTER:                 -10.419
REMARK INTRA:                  -0.681
REMARK UNBOUND:                -1.246
REMARK  Name = 
REMARK  7 active torsions:
REMARK  status: ('A' for Active; 'I' for Inactive)
REMARK    1  A    between atoms: C_2  and  C_3
REMARK    2  A    between atoms: C_3  and  N_4
REMARK    3  A    between atoms: C_3  and  C_22
REMARK    4  A    between atoms: C_5  and  C_7
REMARK    5  A    between atoms: C_10  and  C_11
REMARK    6  A    between atoms: C_11  and  N_12
REMARK    7  A    between atoms: C_13  and  C_15
REMARK                            x       y       z     vdW  Elec       q    Type
REMARK                         _______ _______ _______ _____ _____    ______ ____
ROOT
ATOM      1  N   UNL     1      47.758   5.775  14.516  0.00  0.00    +0.000 N 
ATOM      2  C   UNL     1      46.847   4.767  14.286  0.00  0.00    +0.000 C 
ATOM      3  O   UNL     1      46.272   4.164  15.184  0.00  0.00    +0.000 OA
ATOM      4  H   UNL     1      48.426   5.933  13.764  0.00  0.00    +0.000 HD
ENDROOT
BRANCH   2   5
ATOM      5  C   UNL     1      46.568   4.572  12.795  0.00  0.00    +0.000 C 
ATOM      6  C   UNL     1      45.742   3.322  12.461  0.00  0.00    +0.000 C 
ATOM      7  C   UNL     1      44.228   3.477  12.609  0.00  0.00    +0.000 C 
ATOM      8  C   UNL     1      43.672   4.771  12.000  0.00  0.00    +0.000 C 
ATOM      9  C   UNL     1      44.461   5.971  12.556  0.00  0.00    +0.000 C 
ATOM     10  C   UNL     1      45.958   5.867  12.245  0.00  0.00    +0.000 C 
BRANCH   8  11
ATOM     11  C   UNL     1      43.738   4.825  10.469  0.00  0.00    +0.000 C 
BRANCH  11  12
ATOM     12  N   UNL     1      44.276   3.680   9.786  0.00  0.00    +0.000 N 
ATOM     13  C   UNL     1      45.240   3.915   8.818  0.00  0.00    +0.000 C 
ATOM     14  O   UNL     1      45.547   5.047   8.445  0.00  0.00    +0.000 OA
ATOM     15  H   UNL     1      44.206   2.728  10.137  0.00  0.00    +0.000 HD
BRANCH  13  16
ATOM     16  C   UNL     1      45.895   2.721   8.282  0.00  0.00    +0.000 A 
ATOM     17  C   UNL     1      46.870   2.708   7.249  0.00  0.00    +0.000 A 
ATOM     18  C   UNL     1      47.188   1.387   7.071  0.00  0.00    +0.000 A 
ATOM     19  N   UNL     1      46.429   0.695   7.965  0.00  0.00    +0.000 N 
ATOM     20  N   UNL     1      45.640   1.474   8.727  0.00  0.00    +0.000 NA
ATOM     21  H   UNL     1      46.396  -0.309   8.111  0.00  0.00    +0.000 HD
ENDBRANCH  13  16
ENDBRANCH  11  12
ENDBRANCH   8  11
ENDBRANCH   2   5
BRANCH   1  22
ATOM     22  C   UNL     1      48.261   6.064  15.847  0.00  0.00    +0.000 C 
BRANCH  22  23
ATOM     23  C   UNL     1      49.327   7.150  15.755  0.00  0.00    +0.000 A 
ATOM     24  C   UNL     1      50.625   6.972  16.211  0.00  0.00    +0.000 A 
ATOM     25  S   UNL     1      51.574   8.393  16.136  0.00  0.00    +0.000 S 
ATOM     26  C   UNL     1      50.311   9.273  15.412  0.00  0.00    +0.000 A 
ATOM     27  N   UNL     1      50.452  10.589  15.098  0.00  0.00    +0.000 NA
ATOM     28  C   UNL     1      49.429  11.109  14.504  0.00  0.00    +0.000 A 
ATOM     29  N   UNL     1      48.280  10.430  14.186  0.00  0.00    +0.000 N 
ATOM     30  C   UNL     1      48.083   9.109  14.509  0.00  0.00    +0.000 A 
ATOM     31  O   UNL     1      47.037   8.523  14.247  0.00  0.00    +0.000 OA
ATOM     32  C   UNL     1      49.196   8.483  15.201  0.00  0.00    +0.000 A 
ATOM     33  H   UNL     1      47.525  10.895  13.702  0.00  0.00    +0.000 HD
ENDBRANCH  22  23
BRANCH  22  35
ATOM     34  N   UNL     1      49.199   3.892  17.023  0.00  0.00    +0.000 NA
ATOM     35  C   UNL     1      48.793   4.850  16.497  0.00  0.00    +0.000 C 
ENDBRANCH  22  35
ENDBRANCH   1  22
TORSDOF 7
ENDMDL
MODEL 4
REMARK VINA RESULT:    -6.905      3.357      4.824
REMARK INTER + INTRA:         -10.977
REMARK INTER:                 -10.137
REMARK INTRA:                  -0.841
REMARK UNBOUND:                -1.246
REMARK  Name = 
REMARK  7 active torsions:
REMARK  status: ('A' for Active; 'I' for Inactive)
REMARK    1  A    between atoms: C_2  and  C_3
REMARK    2  A    between atoms: C_3  and  N_4
REMARK    3  A    between atoms: C_3  and  C_22
REMARK    4  A    between atoms: C_5  and  C_7
REMARK    5  A    between atoms: C_10  and  C_11
REMARK    6  A    between atoms: C_11  and  N_12
REMARK    7  A    between atoms: C_13  and  C_15
REMARK                            x       y       z     vdW  Elec       q    Type
REMARK                         _______ _______ _______ _____ _____    ______ ____
ROOT
ATOM      1  N   UNL     1      47.920   5.826  15.039  0.00  0.00    +0.000 N 
ATOM      2  C   UNL     1      47.136   4.742  14.710  0.00  0.00    +0.000 C 
ATOM      3  O   UNL     1      46.587   4.034  15.544  0.00  0.00    +0.000 OA
ATOM      4  H   UNL     1      48.602   6.096  14.333  0.00  0.00    +0.000 HD
ENDROOT
BRANCH   2   5
ATOM      5  C   UNL     1      46.950   4.604  13.198  0.00  0.00    +0.000 C 
ATOM      6  C   UNL     1      46.087   3.409  12.771  0.00  0.00    +0.000 C 
ATOM      7  C   UNL     1      44.577   3.639  12.821  0.00  0.00    +0.000 C 
ATOM      8  C   UNL     1      44.130   4.976  12.216  0.00  0.00    +0.000 C 
ATOM      9  C   UNL     1      44.939   6.118  12.861  0.00  0.00    +0.000 C 
ATOM     10  C   UNL     1      46.447   5.944  12.648  0.00  0.00    +0.000 C 
BRANCH   8  11
ATOM     11  C   UNL     1      44.305   5.069  10.695  0.00  0.00    +0.000 C 
BRANCH  11  12
ATOM     12  N   UNL     1      44.698   3.875   9.998  0.00  0.00    +0.000 N 
ATOM     13  C   UNL     1      45.492   4.031   8.873  0.00  0.00    +0.000 C 
ATOM     14  O   UNL     1      45.756   5.133   8.391  0.00  0.00    +0.000 OA
ATOM     15  H   UNL     1      44.668   2.944  10.407  0.00  0.00    +0.000 HD
BRANCH  13  16
ATOM     16  C   UNL     1      46.024   2.792   8.303  0.00  0.00    +0.000 A 
ATOM     17  C   UNL     1      46.931   2.708   7.213  0.00  0.00    +0.000 A 
ATOM     18  C   UNL     1      47.141   1.367   7.022  0.00  0.00    +0.000 A 
ATOM     19  N   UNL     1      46.389   0.732   7.963  0.00  0.00    +0.000 N 
ATOM     20  N   UNL     1      45.707   1.567   8.768  0.00  0.00    +0.000 NA
ATOM     21  H   UNL     1      46.292  -0.266   8.116  0.00  0.00    +0.000 HD
ENDBRANCH  13  16
ENDBRANCH  11  12
ENDBRANCH   8  11
ENDBRANCH   2   5
BRANCH   1  22
ATOM     22  C   UNL     1      48.325   6.092  16.408  0.00  0.00    +0.000 C 
BRANCH  22  23
ATOM     23  C   UNL     1      48.574   7.587  16.576  0.00  0.00    +0.000 A 
ATOM     24  C   UNL     1      49.084   8.384  15.561  0.00  0.00    +0.000 A 
ATOM     25  S   UNL     1      49.417   9.987  16.058  0.00  0.00    +0.000 S 
ATOM     26  C   UNL     1      48.811   9.695  17.620  0.00  0.00    +0.000 A 
ATOM     27  N   UNL     1      48.821  10.661  18.577  0.00  0.00    +0.000 NA
ATOM     28  C   UNL     1      48.279  10.312  19.696  0.00  0.00    +0.000 A 
ATOM     29  N   UNL     1      47.718   9.084  19.944  0.00  0.00    +0.000 N 
ATOM     30  C   UNL     1      47.712   8.069  19.018  0.00  0.00    +0.000 A 
ATOM     31  O   UNL     1      47.236   6.964  19.264  0.00  0.00    +0.000 OA
ATOM     32  C   UNL     1      48.332   8.405  17.748  0.00  0.00    +0.000 A 
ATOM     33  H   UNL     1      47.292   8.883  20.837  0.00  0.00    +0.000 HD
ENDBRANCH  22  23
BRANCH  22  35
ATOM     34  N   UNL     1      50.464   4.698  17.086  0.00  0.00    +0.000 NA
ATOM     35  C   UNL     1      49.520   5.309  16.777  0.00  0.00    +0.000 C 
ENDBRANCH  22  35
ENDBRANCH   1  22
TORSDOF 7
ENDMDL
MODEL 5
REMARK VINA RESULT:    -6.802      2.098      2.805
REMARK INTER + INTRA:         -10.832
REMARK INTER:                  -9.839
REMARK INTRA:                  -0.993
REMARK UNBOUND:                -1.246
REMARK  Name = 
REMARK  7 active torsions:
REMARK  status: ('A' for Active; 'I' for Inactive)
REMARK    1  A    between atoms: C_2  and  C_3
REMARK    2  A    between atoms: C_3  and  N_4
REMARK    3  A    between atoms: C_3  and  C_22
REMARK    4  A    between atoms: C_5  and  C_7
REMARK    5  A    between atoms: C_10  and  C_11
REMARK    6  A    between atoms: C_11  and  N_12
REMARK    7  A    between atoms: C_13  and  C_15
REMARK                            x       y       z     vdW  Elec       q    Type
REMARK                         _______ _______ _______ _____ _____    ______ ____
ROOT
ATOM      1  N   UNL     1      47.283   6.535  13.418  0.00  0.00    +0.000 N 
ATOM      2  C   UNL     1      46.130   7.049  12.866  0.00  0.00    +0.000 C 
ATOM      3  O   UNL     1      45.644   8.120  13.206  0.00  0.00    +0.000 OA
ATOM      4  H   UNL     1      47.382   5.523  13.347  0.00  0.00    +0.000 HD
ENDROOT
BRANCH   2   5
ATOM      5  C   UNL     1      45.605   6.184  11.719  0.00  0.00    +0.000 C 
ATOM      6  C   UNL     1      46.195   4.768  11.670  0.00  0.00    +0.000 C 
ATOM      7  C   UNL     1      45.531   3.748  12.594  0.00  0.00    +0.000 C 
ATOM      8  C   UNL     1      43.997   3.784  12.561  0.00  0.00    +0.000 C 
ATOM      9  C   UNL     1      43.520   5.227  12.809  0.00  0.00    +0.000 C 
ATOM     10  C   UNL     1      44.072   6.202  11.764  0.00  0.00    +0.000 C 
BRANCH   8  11
ATOM     11  C   UNL     1      43.384   3.300  11.241  0.00  0.00    +0.000 C 
BRANCH  11  12
ATOM     12  N   UNL     1      44.211   2.502  10.378  0.00  0.00    +0.000 N 
ATOM     13  C   UNL     1      44.607   3.069   9.177  0.00  0.00    +0.000 C 
ATOM     14  O   UNL     1      44.179   4.153   8.780  0.00  0.00    +0.000 OA
ATOM     15  H   UNL     1      44.734   1.686  10.690  0.00  0.00    +0.000 HD
BRANCH  13  16
ATOM     16  C   UNL     1      45.595   2.303   8.416  0.00  0.00    +0.000 A 
ATOM     17  C   UNL     1      46.459   2.831   7.421  0.00  0.00    +0.000 A 
ATOM     18  C   UNL     1      47.193   1.761   6.977  0.00  0.00    +0.000 A 
ATOM     19  N   UNL     1      46.761   0.687   7.695  0.00  0.00    +0.000 N 
ATOM     20  N   UNL     1      45.799   0.981   8.588  0.00  0.00    +0.000 NA
ATOM     21  H   UNL     1      47.076  -0.275   7.629  0.00  0.00    +0.000 HD
ENDBRANCH  13  16
ENDBRANCH  11  12
ENDBRANCH   8  11
ENDBRANCH   2   5
BRANCH   1  22
ATOM     22  C   UNL     1      47.901   7.125  14.592  0.00  0.00    +0.000 C 
BRANCH  22  23
ATOM     23  C   UNL     1      49.050   8.025  14.155  0.00  0.00    +0.000 A 
ATOM     24  C   UNL     1      49.792   7.796  13.004  0.00  0.00    +0.000 A 
ATOM     25  S   UNL     1      51.121   8.858  12.829  0.00  0.00    +0.000 S 
ATOM     26  C   UNL     1      50.702   9.716  14.237  0.00  0.00    +0.000 A 
ATOM     27  N   UNL     1      51.453  10.758  14.683  0.00  0.00    +0.000 NA
ATOM     28  C   UNL     1      50.983  11.346  15.732  0.00  0.00    +0.000 A 
ATOM     29  N   UNL     1      49.822  10.992  16.372  0.00  0.00    +0.000 N 
ATOM     30  C   UNL     1      49.047   9.929  15.975  0.00  0.00    +0.000 A 
ATOM     31  O   UNL     1      48.028   9.604  16.576  0.00  0.00    +0.000 OA
ATOM     32  C   UNL     1      49.547   9.219  14.812  0.00  0.00    +0.000 A 
ATOM     33  H   UNL     1      49.500  11.510  17.178  0.00  0.00    +0.000 HD
ENDBRANCH  22  23
BRANCH  22  35
ATOM     34  N   UNL     1      48.727   5.255  16.265  0.00  0.00    +0.000 NA
ATOM     35  C   UNL     1      48.366   6.087  15.533  0.00  0.00    +0.000 C 
ENDBRANCH  22  35
ENDBRANCH   1  22
TORSDOF 7
ENDMDL
MODEL 6
REMARK VINA RESULT:    -6.322      2.027      2.444
REMARK INTER + INTRA:         -10.155
REMARK INTER:                  -9.830
REMARK INTRA:                  -0.325
REMARK UNBOUND:                -1.246
REMARK  Name = 
REMARK  7 active torsions:
REMARK  status: ('A' for Active; 'I' for Inactive)
REMARK    1  A    between atoms: C_2  and  C_3
REMARK    2  A    between atoms: C_3  and  N_4
REMARK    3  A    between atoms: C_3  and  C_22
REMARK    4  A    between atoms: C_5  and  C_7
REMARK    5  A    between atoms: C_10  and  C_11
REMARK    6  A    between atoms: C_11  and  N_12
REMARK    7  A    between atoms: C_13  and  C_15
REMARK                            x       y       z     vdW  Elec       q    Type
REMARK                         _______ _______ _______ _____ _____    ______ ____
ROOT
ATOM      1  N   UNL     1      48.429   6.998  13.725  0.00  0.00    +0.000 N 
ATOM      2  C   UNL     1      47.123   7.075  13.294  0.00  0.00    +0.000 C 
ATOM      3  O   UNL     1      46.438   8.084  13.404  0.00  0.00    +0.000 OA
ATOM      4  H   UNL     1      48.762   6.056  13.929  0.00  0.00    +0.000 HD
ENDROOT
BRANCH   2   5
ATOM      5  C   UNL     1      46.678   5.800  12.574  0.00  0.00    +0.000 C 
ATOM      6  C   UNL     1      45.576   5.014  13.298  0.00  0.00    +0.000 C 
ATOM      7  C   UNL     1      44.150   5.512  13.060  0.00  0.00    +0.000 C 
ATOM      8  C   UNL     1      43.834   5.815  11.589  0.00  0.00    +0.000 C 
ATOM      9  C   UNL     1      44.909   6.764  11.026  0.00  0.00    +0.000 C 
ATOM     10  C   UNL     1      46.315   6.163  11.129  0.00  0.00    +0.000 C 
BRANCH   8  11
ATOM     11  C   UNL     1      43.775   4.574  10.689  0.00  0.00    +0.000 C 
BRANCH  11  12
ATOM     12  N   UNL     1      44.809   4.419   9.704  0.00  0.00    +0.000 N 
ATOM     13  C   UNL     1      44.982   3.156   9.160  0.00  0.00    +0.000 C 
ATOM     14  O   UNL     1      44.383   2.164   9.576  0.00  0.00    +0.000 OA
ATOM     15  H   UNL     1      45.226   5.194   9.194  0.00  0.00    +0.000 HD
BRANCH  13  16
ATOM     16  C   UNL     1      45.912   3.079   8.032  0.00  0.00    +0.000 A 
ATOM     17  C   UNL     1      46.648   1.927   7.647  0.00  0.00    +0.000 A 
ATOM     18  C   UNL     1      47.385   2.318   6.559  0.00  0.00    +0.000 A 
ATOM     19  N   UNL     1      47.072   3.627   6.346  0.00  0.00    +0.000 N 
ATOM     20  N   UNL     1      46.169   4.119   7.214  0.00  0.00    +0.000 NA
ATOM     21  H   UNL     1      47.434   4.246   5.628  0.00  0.00    +0.000 HD
ENDBRANCH  13  16
ENDBRANCH  11  12
ENDBRANCH   8  11
ENDBRANCH   2   5
BRANCH   1  22
ATOM     22  C   UNL     1      49.033   8.044  14.530  0.00  0.00    +0.000 C 
BRANCH  22  23
ATOM     23  C   UNL     1      50.516   8.145  14.190  0.00  0.00    +0.000 A 
ATOM     24  C   UNL     1      51.518   7.752  15.066  0.00  0.00    +0.000 A 
ATOM     25  S   UNL     1      53.092   8.117  14.506  0.00  0.00    +0.000 S 
ATOM     26  C   UNL     1      52.496   8.733  13.037  0.00  0.00    +0.000 A 
ATOM     27  N   UNL     1      53.328   9.244  12.091  0.00  0.00    +0.000 NA
ATOM     28  C   UNL     1      52.736   9.624  11.007  0.00  0.00    +0.000 A 
ATOM     29  N   UNL     1      51.387   9.531  10.779  0.00  0.00    +0.000 N 
ATOM     30  C   UNL     1      50.505   9.049  11.716  0.00  0.00    +0.000 A 
ATOM     31  O   UNL     1      49.296   9.001  11.511  0.00  0.00    +0.000 OA
ATOM     32  C   UNL     1      51.118   8.630  12.964  0.00  0.00    +0.000 A 
ATOM     33  H   UNL     1      50.992   9.828   9.898  0.00  0.00    +0.000 HD
ENDBRANCH  22  23
BRANCH  22  35
ATOM     34  N   UNL     1      48.662   7.613  17.110  0.00  0.00    +0.000 NA
ATOM     35  C   UNL     1      48.834   7.796  15.971  0.00  0.00    +0.000 C 
ENDBRANCH  22  35
ENDBRANCH   1  22
TORSDOF 7
ENDMDL
MODEL 7
REMARK VINA RESULT:    -6.298      3.727      5.193
REMARK INTER + INTRA:         -10.121
REMARK INTER:                  -9.196
REMARK INTRA:                  -0.925
REMARK UNBOUND:                -1.246
REMARK  Name = 
REMARK  7 active torsions:
REMARK  status: ('A' for Active; 'I' for Inactive)
REMARK    1  A    between atoms: C_2  and  C_3
REMARK    2  A    between atoms: C_3  and  N_4
REMARK    3  A    between atoms: C_3  and  C_22
REMARK    4  A    between atoms: C_5  and  C_7
REMARK    5  A    between atoms: C_10  and  C_11
REMARK    6  A    between atoms: C_11  and  N_12
REMARK    7  A    between atoms: C_13  and  C_15
REMARK                            x       y       z     vdW  Elec       q    Type
REMARK                         _______ _______ _______ _____ _____    ______ ____
ROOT
ATOM      1  N   UNL     1      49.484   7.325  14.923  0.00  0.00    +0.000 N 
ATOM      2  C   UNL     1      49.259   8.282  13.958  0.00  0.00    +0.000 C 
ATOM      3  O   UNL     1      49.608   9.450  14.078  0.00  0.00    +0.000 OA
ATOM      4  H   UNL     1      48.850   6.527  14.896  0.00  0.00    +0.000 HD
ENDROOT
BRANCH   2   5
ATOM      5  C   UNL     1      48.629   7.691  12.696  0.00  0.00    +0.000 C 
ATOM      6  C   UNL     1      47.998   6.305  12.891  0.00  0.00    +0.000 C 
ATOM      7  C   UNL     1      46.581   6.304  13.464  0.00  0.00    +0.000 C 
ATOM      8  C   UNL     1      45.644   7.328  12.809  0.00  0.00    +0.000 C 
ATOM      9  C   UNL     1      46.309   8.717  12.842  0.00  0.00    +0.000 C 
ATOM     10  C   UNL     1      47.657   8.724  12.113  0.00  0.00    +0.000 C 
BRANCH   8  11
ATOM     11  C   UNL     1      45.280   7.008  11.353  0.00  0.00    +0.000 C 
BRANCH  11  12
ATOM     12  N   UNL     1      45.427   5.648  10.916  0.00  0.00    +0.000 N 
ATOM     13  C   UNL     1      44.275   4.974  10.541  0.00  0.00    +0.000 C 
ATOM     14  O   UNL     1      43.148   5.449  10.690  0.00  0.00    +0.000 OA
ATOM     15  H   UNL     1      46.309   5.243  10.611  0.00  0.00    +0.000 HD
BRANCH  13  16
ATOM     16  C   UNL     1      44.485   3.662   9.928  0.00  0.00    +0.000 A 
ATOM     17  C   UNL     1      45.342   3.394   8.828  0.00  0.00    +0.000 A 
ATOM     18  C   UNL     1      45.215   2.049   8.592  0.00  0.00    +0.000 A 
ATOM     19  N   UNL     1      44.331   1.589   9.520  0.00  0.00    +0.000 N 
ATOM     20  N   UNL     1      43.876   2.539  10.357  0.00  0.00    +0.000 NA
ATOM     21  H   UNL     1      43.991   0.640   9.642  0.00  0.00    +0.000 HD
ENDBRANCH  13  16
ENDBRANCH  11  12
ENDBRANCH   8  11
ENDBRANCH   2   5
BRANCH   1  22
ATOM     22  C   UNL     1      49.972   7.669  16.246  0.00  0.00    +0.000 C 
BRANCH  22  23
ATOM     23  C   UNL     1      50.715   6.475  16.834  0.00  0.00    +0.000 A 
ATOM     24  C   UNL     1      52.035   6.543  17.258  0.00  0.00    +0.000 A 
ATOM     25  S   UNL     1      52.678   5.029  17.725  0.00  0.00    +0.000 S 
ATOM     26  C   UNL     1      51.192   4.245  17.460  0.00  0.00    +0.000 A 
ATOM     27  N   UNL     1      51.052   2.906  17.651  0.00  0.00    +0.000 NA
ATOM     28  C   UNL     1      49.854   2.462  17.464  0.00  0.00    +0.000 A 
ATOM     29  N   UNL     1      48.778   3.237  17.111  0.00  0.00    +0.000 N 
ATOM     30  C   UNL     1      48.879   4.588  16.879  0.00  0.00    +0.000 A 
ATOM     31  O   UNL     1      47.915   5.264  16.532  0.00  0.00    +0.000 OA
ATOM     32  C   UNL     1      50.213   5.133  17.054  0.00  0.00    +0.000 A 
ATOM     33  H   UNL     1      47.862   2.826  17.000  0.00  0.00    +0.000 HD
ENDBRANCH  22  23
BRANCH  22  35
ATOM     34  N   UNL     1      48.012   8.446  17.839  0.00  0.00    +0.000 NA
ATOM     35  C   UNL     1      48.870   8.097  17.130  0.00  0.00    +0.000 C 
ENDBRANCH  22  35
ENDBRANCH   1  22
TORSDOF 7
ENDMDL
MODEL 8
REMARK VINA RESULT:    -6.207      3.180      5.037
REMARK INTER + INTRA:          -9.993
REMARK INTER:                  -9.408
REMARK INTRA:                  -0.586
REMARK UNBOUND:                -1.246
REMARK  Name = 
REMARK  7 active torsions:
REMARK  status: ('A' for Active; 'I' for Inactive)
REMARK    1  A    between atoms: C_2  and  C_3
REMARK    2  A    between atoms: C_3  and  N_4
REMARK    3  A    between atoms: C_3  and  C_22
REMARK    4  A    between atoms: C_5  and  C_7
REMARK    5  A    between atoms: C_10  and  C_11
REMARK    6  A    between atoms: C_11  and  N_12
REMARK    7  A    between atoms: C_13  and  C_15
REMARK                            x       y       z     vdW  Elec       q    Type
REMARK                         _______ _______ _______ _____ _____    ______ ____
ROOT
ATOM      1  N   UNL     1      49.865   7.152  14.214  0.00  0.00    +0.000 N 
ATOM      2  C   UNL     1      49.180   8.203  13.644  0.00  0.00    +0.000 C 
ATOM      3  O   UNL     1      49.286   9.360  14.030  0.00  0.00    +0.000 OA
ATOM      4  H   UNL     1      49.438   6.237  14.084  0.00  0.00    +0.000 HD
ENDROOT
BRANCH   2   5
ATOM      5  C   UNL     1      48.370   7.767  12.422  0.00  0.00    +0.000 C 
ATOM      6  C   UNL     1      47.803   6.344  12.511  0.00  0.00    +0.000 C 
ATOM      7  C   UNL     1      46.493   6.206  13.288  0.00  0.00    +0.000 C 
ATOM      8  C   UNL     1      45.447   7.272  12.937  0.00  0.00    +0.000 C 
ATOM      9  C   UNL     1      46.084   8.669  13.066  0.00  0.00    +0.000 C 
ATOM     10  C   UNL     1      47.300   8.831  12.148  0.00  0.00    +0.000 C 
BRANCH   8  11
ATOM     11  C   UNL     1      44.865   7.142  11.523  0.00  0.00    +0.000 C 
BRANCH  11  12
ATOM     12  N   UNL     1      45.383   6.096  10.686  0.00  0.00    +0.000 N 
ATOM     13  C   UNL     1      44.521   5.060  10.361  0.00  0.00    +0.000 C 
ATOM     14  O   UNL     1      43.400   4.945  10.857  0.00  0.00    +0.000 OA
ATOM     15  H   UNL     1      46.217   6.191  10.112  0.00  0.00    +0.000 HD
BRANCH  13  16
ATOM     16  C   UNL     1      45.023   4.116   9.361  0.00  0.00    +0.000 A 
ATOM     17  C   UNL     1      44.984   2.701   9.470  0.00  0.00    +0.000 A 
ATOM     18  C   UNL     1      45.567   2.235   8.319  0.00  0.00    +0.000 A 
ATOM     19  N   UNL     1      45.911   3.340   7.600  0.00  0.00    +0.000 N 
ATOM     20  N   UNL     1      45.584   4.501   8.197  0.00  0.00    +0.000 NA
ATOM     21  H   UNL     1      46.371   3.378   6.697  0.00  0.00    +0.000 HD
ENDBRANCH  13  16
ENDBRANCH  11  12
ENDBRANCH   8  11
ENDBRANCH   2   5
BRANCH   1  22
ATOM     22  C   UNL     1      50.612   7.304  15.450  0.00  0.00    +0.000 C 
BRANCH  22  23
ATOM     23  C   UNL     1      49.646   7.633  16.583  0.00  0.00    +0.000 A 
ATOM     24  C   UNL     1      49.603   8.875  17.200  0.00  0.00    +0.000 A 
ATOM     25  S   UNL     1      48.545   8.931  18.542  0.00  0.00    +0.000 S 
ATOM     26  C   UNL     1      48.043   7.325  18.294  0.00  0.00    +0.000 A 
ATOM     27  N   UNL     1      47.146   6.725  19.122  0.00  0.00    +0.000 NA
ATOM     28  C   UNL     1      46.819   5.524  18.777  0.00  0.00    +0.000 A 
ATOM     29  N   UNL     1      47.302   4.869  17.672  0.00  0.00    +0.000 N 
ATOM     30  C   UNL     1      48.231   5.424  16.825  0.00  0.00    +0.000 A 
ATOM     31  O   UNL     1      48.679   4.814  15.858  0.00  0.00    +0.000 OA
ATOM     32  C   UNL     1      48.650   6.767  17.183  0.00  0.00    +0.000 A 
ATOM     33  H   UNL     1      46.988   3.935  17.449  0.00  0.00    +0.000 HD
ENDBRANCH  22  23
BRANCH  22  35
ATOM     34  N   UNL     1      52.468   9.172  15.233  0.00  0.00    +0.000 NA
ATOM     35  C   UNL     1      51.655   8.340  15.324  0.00  0.00    +0.000 C 
ENDBRANCH  22  35
ENDBRANCH   1  22
TORSDOF 7
ENDMDL
MODEL 9
REMARK VINA RESULT:    -6.172      3.916      5.074
REMARK INTER + INTRA:          -9.945
REMARK INTER:                  -9.424
REMARK INTRA:                  -0.520
REMARK UNBOUND:                -1.246
REMARK  Name = 
REMARK  7 active torsions:
REMARK  status: ('A' for Active; 'I' for Inactive)
REMARK    1  A    between atoms: C_2  and  C_3
REMARK    2  A    between atoms: C_3  and  N_4
REMARK    3  A    between atoms: C_3  and  C_22
REMARK    4  A    between atoms: C_5  and  C_7
REMARK    5  A    between atoms: C_10  and  C_11
REMARK    6  A    between atoms: C_11  and  N_12
REMARK    7  A    between atoms: C_13  and  C_15
REMARK                            x       y       z     vdW  Elec       q    Type
REMARK                         _______ _______ _______ _____ _____    ______ ____
ROOT
ATOM      1  N   UNL     1      49.037   7.214  14.693  0.00  0.00    +0.000 N 
ATOM      2  C   UNL     1      48.939   8.229  13.766  0.00  0.00    +0.000 C 
ATOM      3  O   UNL     1      49.445   9.332  13.924  0.00  0.00    +0.000 OA
ATOM      4  H   UNL     1      48.300   6.512  14.645  0.00  0.00    +0.000 HD
ENDROOT
BRANCH   2   5
ATOM      5  C   UNL     1      48.227   7.776  12.490  0.00  0.00    +0.000 C 
ATOM      6  C   UNL     1      47.721   6.327  12.525  0.00  0.00    +0.000 C 
ATOM      7  C   UNL     1      46.374   6.118  13.217  0.00  0.00    +0.000 C 
ATOM      8  C   UNL     1      45.303   7.142  12.815  0.00  0.00    +0.000 C 
ATOM      9  C   UNL     1      45.867   8.563  13.002  0.00  0.00    +0.000 C 
ATOM     10  C   UNL     1      47.128   8.795  12.163  0.00  0.00    +0.000 C 
BRANCH   8  11
ATOM     11  C   UNL     1      44.817   7.008  11.366  0.00  0.00    +0.000 C 
BRANCH  11  12
ATOM     12  N   UNL     1      45.371   5.944  10.575  0.00  0.00    +0.000 N 
ATOM     13  C   UNL     1      44.510   4.930  10.185  0.00  0.00    +0.000 C 
ATOM     14  O   UNL     1      43.351   4.848  10.590  0.00  0.00    +0.000 OA
ATOM     15  H   UNL     1      46.250   6.014  10.069  0.00  0.00    +0.000 HD
BRANCH  13  16
ATOM     16  C   UNL     1      45.064   3.969   9.230  0.00  0.00    +0.000 A 
ATOM     17  C   UNL     1      45.116   2.561   9.414  0.00  0.00    +0.000 A 
ATOM     18  C   UNL     1      45.720   2.074   8.283  0.00  0.00    +0.000 A 
ATOM     19  N   UNL     1      45.987   3.158   7.504  0.00  0.00    +0.000 N 
ATOM     20  N   UNL     1      45.591   4.326   8.042  0.00  0.00    +0.000 NA
ATOM     21  H   UNL     1      46.438   3.178   6.594  0.00  0.00    +0.000 HD
ENDBRANCH  13  16
ENDBRANCH  11  12
ENDBRANCH   8  11
ENDBRANCH   2   5
BRANCH   1  22
ATOM     22  C   UNL     1      49.574   7.440  16.023  0.00  0.00    +0.000 C 
BRANCH  22  23
ATOM     23  C   UNL     1      49.802   6.097  16.707  0.00  0.00    +0.000 A 
ATOM     24  C   UNL     1      48.764   5.252  17.073  0.00  0.00    +0.000 A 
ATOM     25  S   UNL     1      49.280   3.887  17.964  0.00  0.00    +0.000 S 
ATOM     26  C   UNL     1      50.915   4.332  17.819  0.00  0.00    +0.000 A 
ATOM     27  N   UNL     1      51.905   3.592  18.387  0.00  0.00    +0.000 NA
ATOM     28  C   UNL     1      53.099   4.022  18.146  0.00  0.00    +0.000 A 
ATOM     29  N   UNL     1      53.395   5.121  17.379  0.00  0.00    +0.000 N 
ATOM     30  C   UNL     1      52.427   5.914  16.811  0.00  0.00    +0.000 A 
ATOM     31  O   UNL     1      52.706   6.913  16.154  0.00  0.00    +0.000 OA
ATOM     32  C   UNL     1      51.065   5.486  17.073  0.00  0.00    +0.000 A 
ATOM     33  H   UNL     1      54.354   5.390  17.214  0.00  0.00    +0.000 HD
ENDBRANCH  22  23
BRANCH  22  35
ATOM     34  N   UNL     1      47.992   8.988  17.466  0.00  0.00    +0.000 NA
ATOM     35  C   UNL     1      48.682   8.301  16.824  0.00  0.00    +0.000 C 
ENDBRANCH  22  35
ENDBRANCH   1  22
TORSDOF 7
ENDMDL
