MODEL 1
REMARK VINA RESULT:    -8.594      0.000      0.000
REMARK INTER + INTRA:         -12.442
REMARK INTER:                 -11.608
REMARK INTRA:                  -0.834
REMARK UNBOUND:                -0.834
REMARK  Name = 
REMARK  6 active torsions:
REMARK  status: ('A' for Active; 'I' for Inactive)
REMARK    1  A    between atoms: C_2  and  C_19
REMARK    2  A    between atoms: N_3  and  C_4
REMARK    3  A    between atoms: C_4  and  C_5
REMARK    4  A    between atoms: C_8  and  C_9
REMARK    5  A    between atoms: C_9  and  O_10
REMARK    6  A    between atoms: O_10  and  C_11
REMARK                            x       y       z     vdW  Elec       q    Type
REMARK                         _______ _______ _______ _____ _____    ______ ____
ROOT
ATOM      1  O   UNL     1      48.215   7.058  12.590  0.00  0.00    +0.000 OA
ATOM      2  C   UNL     1      47.581   6.778  13.604  0.00  0.00    +0.000 C 
ATOM      3  N   UNL     1      46.212   6.767  13.641  0.00  0.00    +0.000 N 
ATOM      4  H   UNL     1      45.733   6.690  14.532  0.00  0.00    +0.000 HD
ENDROOT
BRANCH   2   5
ATOM      5  C   UNL     1      48.265   6.381  14.839  0.00  0.00    +0.000 A 
ATOM      6  C   UNL     1      49.264   7.186  15.369  0.00  0.00    +0.000 A 
ATOM      7  S   UNL     1      49.924   6.585  16.822  0.00  0.00    +0.000 S 
ATOM      8  C   UNL     1      48.877   5.244  16.805  0.00  0.00    +0.000 A 
ATOM      9  N   UNL     1      48.891   4.331  17.813  0.00  0.00    +0.000 NA
ATOM     10  C   UNL     1      48.016   3.387  17.688  0.00  0.00    +0.000 A 
ATOM     11  N   UNL     1      47.144   3.264  16.640  0.00  0.00    +0.000 N 
ATOM     12  C   UNL     1      47.151   4.113  15.560  0.00  0.00    +0.000 A 
ATOM     13  O   UNL     1      46.469   3.883  14.569  0.00  0.00    +0.000 OA
ATOM     14  C   UNL     1      48.067   5.231  15.685  0.00  0.00    +0.000 A 
ATOM     15  H   UNL     1      46.515   2.476  16.580  0.00  0.00    +0.000 HD
ENDBRANCH   2   5
BRANCH   3  16
ATOM     16  C   UNL     1      45.406   7.123  12.502  0.00  0.00    +0.000 C 
BRANCH  16  17
ATOM     17  C   UNL     1      45.139   5.953  11.592  0.00  0.00    +0.000 A 
ATOM     18  C   UNL     1      45.726   5.901  10.321  0.00  0.00    +0.000 A 
ATOM     19  C   UNL     1      45.549   4.785   9.497  0.00  0.00    +0.000 A 
ATOM     20  C   UNL     1      44.761   3.706   9.918  0.00  0.00    +0.000 A 
ATOM     21  C   UNL     1      44.156   3.767  11.181  0.00  0.00    +0.000 A 
ATOM     22  C   UNL     1      44.331   4.885  12.004  0.00  0.00    +0.000 A 
BRANCH  20  23
ATOM     23  C   UNL     1      44.562   2.504   9.026  0.00  0.00    +0.000 C 
BRANCH  23  24
ATOM     24  O   UNL     1      45.812   1.851   8.798  0.00  0.00    +0.000 OA
BRANCH  24  25
ATOM     25  C   UNL     1      46.430   2.113   7.606  0.00  0.00    +0.000 A 
ATOM     26  C   UNL     1      46.062   3.086   6.681  0.00  0.00    +0.000 A 
ATOM     27  C   UNL     1      46.801   3.236   5.502  0.00  0.00    +0.000 A 
ATOM     28  C   UNL     1      47.888   2.403   5.291  0.00  0.00    +0.000 A 
ATOM     29  N   UNL     1      48.268   1.445   6.157  0.00  0.00    +0.000 NA
ATOM     30  C   UNL     1      47.532   1.324   7.291  0.00  0.00    +0.000 A 
ENDBRANCH  24  25
ENDBRANCH  23  24
ENDBRANCH  20  23
ENDBRANCH  16  17
ENDBRANCH   3  16
TORSDOF 6
ENDMDL
MODEL 2
REMARK VINA RESULT:    -7.764      2.110      2.738
REMARK INTER + INTRA:         -11.321
REMARK INTER:                 -10.573
REMARK INTRA:                  -0.748
REMARK UNBOUND:                -0.834
REMARK  Name = 
REMARK  6 active torsions:
REMARK  status: ('A' for Active; 'I' for Inactive)
REMARK    1  A    between atoms: C_2  and  C_19
REMARK    2  A    between atoms: N_3  and  C_4
REMARK    3  A    between atoms: C_4  and  C_5
REMARK    4  A    between atoms: C_8  and  C_9
REMARK    5  A    between atoms: C_9  and  O_10
REMARK    6  A    between atoms: O_10  and  C_11
REMARK                            x       y       z     vdW  Elec       q    Type
REMARK                         _______ _______ _______ _____ _____    ______ ____
ROOT
ATOM      1  O   UNL     1      50.282   7.034  15.385  0.00  0.00    +0.000 OA
ATOM      2  C   UNL     1      49.125   6.895  15.772  0.00  0.00    +0.000 C 
ATOM      3  N   UNL     1      48.080   6.673  14.914  0.00  0.00    +0.000 N 
ATOM      4  H   UNL     1      47.127   6.727  15.258  0.00  0.00    +0.000 HD
ENDROOT
BRANCH   2   5
ATOM      5  C   UNL     1      48.798   6.905  17.201  0.00  0.00    +0.000 A 
ATOM      6  C   UNL     1      48.301   8.059  17.792  0.00  0.00    +0.000 A 
ATOM      7  S   UNL     1      47.947   7.878  19.450  0.00  0.00    +0.000 S 
ATOM      8  C   UNL     1      48.421   6.243  19.427  0.00  0.00    +0.000 A 
ATOM      9  N   UNL     1      48.326   5.470  20.542  0.00  0.00    +0.000 NA
ATOM     10  C   UNL     1      48.684   4.240  20.369  0.00  0.00    +0.000 A 
ATOM     11  N   UNL     1      49.146   3.720  19.189  0.00  0.00    +0.000 N 
ATOM     12  C   UNL     1      49.338   4.481  18.063  0.00  0.00    +0.000 A 
ATOM     13  O   UNL     1      49.899   4.022  17.075  0.00  0.00    +0.000 OA
ATOM     14  C   UNL     1      48.884   5.854  18.185  0.00  0.00    +0.000 A 
ATOM     15  H   UNL     1      49.453   2.759  19.132  0.00  0.00    +0.000 HD
ENDBRANCH   2   5
BRANCH   3  16
ATOM     16  C   UNL     1      48.251   6.627  13.486  0.00  0.00    +0.000 C 
BRANCH  16  17
ATOM     17  C   UNL     1      47.021   6.129  12.771  0.00  0.00    +0.000 A 
ATOM     18  C   UNL     1      46.517   6.829  11.667  0.00  0.00    +0.000 A 
ATOM     19  C   UNL     1      45.424   6.336  10.948  0.00  0.00    +0.000 A 
ATOM     20  C   UNL     1      44.795   5.144  11.332  0.00  0.00    +0.000 A 
ATOM     21  C   UNL     1      45.287   4.456  12.450  0.00  0.00    +0.000 A 
ATOM     22  C   UNL     1      46.379   4.950  13.171  0.00  0.00    +0.000 A 
BRANCH  20  23
ATOM     23  C   UNL     1      43.609   4.616  10.561  0.00  0.00    +0.000 C 
BRANCH  23  24
ATOM     24  O   UNL     1      43.839   3.260  10.177  0.00  0.00    +0.000 OA
BRANCH  24  25
ATOM     25  C   UNL     1      44.739   3.056   9.166  0.00  0.00    +0.000 A 
ATOM     26  C   UNL     1      45.150   3.995   8.224  0.00  0.00    +0.000 A 
ATOM     27  C   UNL     1      46.086   3.633   7.248  0.00  0.00    +0.000 A 
ATOM     28  C   UNL     1      46.579   2.339   7.250  0.00  0.00    +0.000 A 
ATOM     29  N   UNL     1      46.199   1.401   8.138  0.00  0.00    +0.000 NA
ATOM     30  C   UNL     1      45.291   1.782   9.073  0.00  0.00    +0.000 A 
ENDBRANCH  24  25
ENDBRANCH  23  24
ENDBRANCH  20  23
ENDBRANCH  16  17
ENDBRANCH   3  16
TORSDOF 6
ENDMDL
MODEL 3
REMARK VINA RESULT:    -7.262      2.111      2.835
REMARK INTER + INTRA:         -10.643
REMARK INTER:                  -9.742
REMARK INTRA:                  -0.901
REMARK UNBOUND:                -0.834
REMARK  Name = 
REMARK  6 active torsions:
REMARK  status: ('A' for Active; 'I' for Inactive)
REMARK    1  A    between atoms: C_2  and  C_19
REMARK    2  A    between atoms: N_3  and  C_4
REMARK    3  A    between atoms: C_4  and  C_5
REMARK    4  A    between atoms: C_8  and  C_9
REMARK    5  A    between atoms: C_9  and  O_10
REMARK    6  A    between atoms: O_10  and  C_11
REMARK                            x       y       z     vdW  Elec       q    Type
REMARK                         _______ _______ _______ _____ _____    ______ ____
ROOT
ATOM      1  O   UNL     1      48.793   9.914  14.542  0.00  0.00    +0.000 OA
ATOM      2  C   UNL     1      48.243   8.999  15.148  0.00  0.00    +0.000 C 
ATOM      3  N   UNL     1      47.370   8.132  14.545  0.00  0.00    +0.000 N 
ATOM      4  H   UNL     1      46.818   7.498  15.112  0.00  0.00    +0.000 HD
ENDROOT
BRANCH   2   5
ATOM      5  C   UNL     1      48.534   8.744  16.562  0.00  0.00    +0.000 A 
ATOM      6  C   UNL     1      48.438   9.774  17.488  0.00  0.00    +0.000 A 
ATOM      7  S   UNL     1      48.780   9.288  19.087  0.00  0.00    +0.000 S 
ATOM      8  C   UNL     1      49.040   7.679  18.598  0.00  0.00    +0.000 A 
ATOM      9  N   UNL     1      49.336   6.710  19.505  0.00  0.00    +0.000 NA
ATOM     10  C   UNL     1      49.470   5.529  18.999  0.00  0.00    +0.000 A 
ATOM     11  N   UNL     1      49.353   5.233  17.666  0.00  0.00    +0.000 N 
ATOM     12  C   UNL     1      49.139   6.190  16.706  0.00  0.00    +0.000 A 
ATOM     13  O   UNL     1      49.199   5.916  15.513  0.00  0.00    +0.000 OA
ATOM     14  C   UNL     1      48.913   7.524  17.231  0.00  0.00    +0.000 A 
ATOM     15  H   UNL     1      49.514   4.294  17.329  0.00  0.00    +0.000 HD
ENDBRANCH   2   5
BRANCH   3  16
ATOM     16  C   UNL     1      46.997   8.252  13.160  0.00  0.00    +0.000 C 
BRANCH  16  17
ATOM     17  C   UNL     1      46.386   6.988  12.612  0.00  0.00    +0.000 A 
ATOM     18  C   UNL     1      46.598   5.766  13.263  0.00  0.00    +0.000 A 
ATOM     19  C   UNL     1      45.974   4.598  12.810  0.00  0.00    +0.000 A 
ATOM     20  C   UNL     1      45.144   4.625  11.682  0.00  0.00    +0.000 A 
ATOM     21  C   UNL     1      44.950   5.844  11.019  0.00  0.00    +0.000 A 
ATOM     22  C   UNL     1      45.576   7.011  11.470  0.00  0.00    +0.000 A 
BRANCH  20  23
ATOM     23  C   UNL     1      44.476   3.363  11.188  0.00  0.00    +0.000 C 
BRANCH  23  24
ATOM     24  O   UNL     1      44.135   3.499   9.808  0.00  0.00    +0.000 OA
BRANCH  24  25
ATOM     25  C   UNL     1      45.079   3.095   8.902  0.00  0.00    +0.000 A 
ATOM     26  C   UNL     1      45.619   1.817   8.787  0.00  0.00    +0.000 A 
ATOM     27  C   UNL     1      46.580   1.558   7.802  0.00  0.00    +0.000 A 
ATOM     28  C   UNL     1      46.965   2.592   6.964  0.00  0.00    +0.000 A 
ATOM     29  N   UNL     1      46.473   3.842   7.051  0.00  0.00    +0.000 NA
ATOM     30  C   UNL     1      45.543   4.062   8.016  0.00  0.00    +0.000 A 
ENDBRANCH  24  25
ENDBRANCH  23  24
ENDBRANCH  20  23
ENDBRANCH  16  17
ENDBRANCH   3  16
TORSDOF 6
ENDMDL
MODEL 4
REMARK VINA RESULT:    -7.178      3.557      8.144
REMARK INTER + INTRA:         -10.530
REMARK INTER:                  -9.587
REMARK INTRA:                  -0.943
REMARK UNBOUND:                -0.834
REMARK  Name = 
REMARK  6 active torsions:
REMARK  status: ('A' for Active; 'I' for Inactive)
REMARK    1  A    between atoms: C_2  and  C_19
REMARK    2  A    between atoms: N_3  and  C_4
REMARK    3  A    between atoms: C_4  and  C_5
REMARK    4  A    between atoms: C_8  and  C_9
REMARK    5  A    between atoms: C_9  and  O_10
REMARK    6  A    between atoms: O_10  and  C_11
REMARK                            x       y       z     vdW  Elec       q    Type
REMARK                         _______ _______ _______ _____ _____    ______ ____
ROOT
ATOM      1  O   UNL     1      45.640   7.796  11.973  0.00  0.00    +0.000 OA
ATOM      2  C   UNL     1      46.301   6.861  11.529  0.00  0.00    +0.000 C 
ATOM      3  N   UNL     1      47.661   6.780  11.680  0.00  0.00    +0.000 N 
ATOM      4  H   UNL     1      48.184   6.082  11.162  0.00  0.00    +0.000 HD
ENDROOT
BRANCH   2   5
ATOM      5  C   UNL     1      45.658   5.733  10.849  0.00  0.00    +0.000 A 
ATOM      6  C   UNL     1      45.852   5.541   9.488  0.00  0.00    +0.000 A 
ATOM      7  S   UNL     1      45.055   4.165   8.873  0.00  0.00    +0.000 S 
ATOM      8  C   UNL     1      44.447   3.765  10.411  0.00  0.00    +0.000 A 
ATOM      9  N   UNL     1      43.697   2.646  10.599  0.00  0.00    +0.000 NA
ATOM     10  C   UNL     1      43.335   2.447  11.824  0.00  0.00    +0.000 A 
ATOM     11  N   UNL     1      43.638   3.275  12.872  0.00  0.00    +0.000 N 
ATOM     12  C   UNL     1      44.319   4.457  12.715  0.00  0.00    +0.000 A 
ATOM     13  O   UNL     1      44.435   5.249  13.643  0.00  0.00    +0.000 OA
ATOM     14  C   UNL     1      44.808   4.692  11.370  0.00  0.00    +0.000 A 
ATOM     15  H   UNL     1      43.286   3.085  13.800  0.00  0.00    +0.000 HD
ENDBRANCH   2   5
BRANCH   3  16
ATOM     16  C   UNL     1      48.427   7.807  12.336  0.00  0.00    +0.000 C 
BRANCH  16  17
ATOM     17  C   UNL     1      48.916   7.385  13.697  0.00  0.00    +0.000 A 
ATOM     18  C   UNL     1      48.146   6.520  14.484  0.00  0.00    +0.000 A 
ATOM     19  C   UNL     1      48.623   6.059  15.716  0.00  0.00    +0.000 A 
ATOM     20  C   UNL     1      49.872   6.473  16.197  0.00  0.00    +0.000 A 
ATOM     21  C   UNL     1      50.633   7.356  15.419  0.00  0.00    +0.000 A 
ATOM     22  C   UNL     1      50.154   7.820  14.189  0.00  0.00    +0.000 A 
BRANCH  20  23
ATOM     23  C   UNL     1      50.384   5.982  17.531  0.00  0.00    +0.000 C 
BRANCH  23  24
ATOM     24  O   UNL     1      49.785   4.727  17.854  0.00  0.00    +0.000 OA
BRANCH  24  25
ATOM     25  C   UNL     1      50.585   3.622  17.744  0.00  0.00    +0.000 A 
ATOM     26  C   UNL     1      51.923   3.531  18.116  0.00  0.00    +0.000 A 
ATOM     27  C   UNL     1      52.609   2.323  17.943  0.00  0.00    +0.000 A 
ATOM     28  C   UNL     1      51.927   1.245  17.404  0.00  0.00    +0.000 A 
ATOM     29  N   UNL     1      50.636   1.297  17.024  0.00  0.00    +0.000 NA
ATOM     30  C   UNL     1      49.998   2.482  17.204  0.00  0.00    +0.000 A 
ENDBRANCH  24  25
ENDBRANCH  23  24
ENDBRANCH  20  23
ENDBRANCH  16  17
ENDBRANCH   3  16
TORSDOF 6
ENDMDL
MODEL 5
REMARK VINA RESULT:    -6.926      4.301      8.669
REMARK INTER + INTRA:         -10.189
REMARK INTER:                  -9.218
REMARK INTRA:                  -0.970
REMARK UNBOUND:                -0.834
REMARK  Name = 
REMARK  6 active torsions:
REMARK  status: ('A' for Active; 'I' for Inactive)
REMARK    1  A    between atoms: C_2  and  C_19
REMARK    2  A    between atoms: N_3  and  C_4
REMARK    3  A    between atoms: C_4  and  C_5
REMARK    4  A    between atoms: C_8  and  C_9
REMARK    5  A    between atoms: C_9  and  O_10
REMARK    6  A    between atoms: O_10  and  C_11
REMARK                            x       y       z     vdW  Elec       q    Type
REMARK                         _______ _______ _______ _____ _____    ______ ____
ROOT
ATOM      1  O   UNL     1      47.228   3.099  14.025  0.00  0.00    +0.000 OA
ATOM      2  C   UNL     1      46.807   4.146  14.508  0.00  0.00    +0.000 C 
ATOM      3  N   UNL     1      46.776   4.379  15.858  0.00  0.00    +0.000 N 
ATOM      4  H   UNL     1      46.274   5.183  16.218  0.00  0.00    +0.000 HD
ENDROOT
BRANCH   2   5
ATOM      5  C   UNL     1      46.356   5.247  13.651  0.00  0.00    +0.000 A 
ATOM      6  C   UNL     1      47.205   6.313  13.385  0.00  0.00    +0.000 A 
ATOM      7  S   UNL     1      46.525   7.483  12.346  0.00  0.00    +0.000 S 
ATOM      8  C   UNL     1      45.085   6.590  12.197  0.00  0.00    +0.000 A 
ATOM      9  N   UNL     1      44.073   7.021  11.397  0.00  0.00    +0.000 NA
ATOM     10  C   UNL     1      43.055   6.225  11.349  0.00  0.00    +0.000 A 
ATOM     11  N   UNL     1      42.951   5.049  12.043  0.00  0.00    +0.000 N 
ATOM     12  C   UNL     1      43.910   4.616  12.926  0.00  0.00    +0.000 A 
ATOM     13  O   UNL     1      43.715   3.645  13.647  0.00  0.00    +0.000 OA
ATOM     14  C   UNL     1      45.104   5.440  12.963  0.00  0.00    +0.000 A 
ATOM     15  H   UNL     1      42.108   4.493  11.996  0.00  0.00    +0.000 HD
ENDBRANCH   2   5
BRANCH   3  16
ATOM     16  C   UNL     1      47.197   3.394  16.820  0.00  0.00    +0.000 C 
BRANCH  16  17
ATOM     17  C   UNL     1      48.667   3.484  17.134  0.00  0.00    +0.000 A 
ATOM     18  C   UNL     1      49.213   4.682  17.613  0.00  0.00    +0.000 A 
ATOM     19  C   UNL     1      50.560   4.757  17.982  0.00  0.00    +0.000 A 
ATOM     20  C   UNL     1      51.397   3.640  17.857  0.00  0.00    +0.000 A 
ATOM     21  C   UNL     1      50.855   2.447  17.358  0.00  0.00    +0.000 A 
ATOM     22  C   UNL     1      49.509   2.373  16.986  0.00  0.00    +0.000 A 
BRANCH  20  23
ATOM     23  C   UNL     1      52.854   3.722  18.247  0.00  0.00    +0.000 C 
BRANCH  23  24
ATOM     24  O   UNL     1      53.299   5.078  18.196  0.00  0.00    +0.000 OA
BRANCH  24  25
ATOM     25  C   UNL     1      53.900   5.479  17.033  0.00  0.00    +0.000 A 
ATOM     26  C   UNL     1      53.472   6.504  16.193  0.00  0.00    +0.000 A 
ATOM     27  C   UNL     1      54.200   6.799  15.035  0.00  0.00    +0.000 A 
ATOM     28  C   UNL     1      55.335   6.056  14.758  0.00  0.00    +0.000 A 
ATOM     29  N   UNL     1      55.775   5.052  15.541  0.00  0.00    +0.000 NA
ATOM     30  C   UNL     1      55.048   4.789  16.657  0.00  0.00    +0.000 A 
ENDBRANCH  24  25
ENDBRANCH  23  24
ENDBRANCH  20  23
ENDBRANCH  16  17
ENDBRANCH   3  16
TORSDOF 6
ENDMDL
MODEL 6
REMARK VINA RESULT:    -6.841      4.643      7.063
REMARK INTER + INTRA:         -10.075
REMARK INTER:                  -9.084
REMARK INTRA:                  -0.991
REMARK UNBOUND:                -0.834
REMARK  Name = 
REMARK  6 active torsions:
REMARK  status: ('A' for Active; 'I' for Inactive)
REMARK    1  A    between atoms: C_2  and  C_19
REMARK    2  A    between atoms: N_3  and  C_4
REMARK    3  A    between atoms: C_4  and  C_5
REMARK    4  A    between atoms: C_8  and  C_9
REMARK    5  A    between atoms: C_9  and  O_10
REMARK    6  A    between atoms: O_10  and  C_11
REMARK                            x       y       z     vdW  Elec       q    Type
REMARK                         _______ _______ _______ _____ _____    ______ ____
ROOT
ATOM      1  O   UNL     1      44.743   7.743  11.040  0.00  0.00    +0.000 OA
ATOM      2  C   UNL     1      45.288   6.833  11.658  0.00  0.00    +0.000 C 
ATOM      3  N   UNL     1      46.336   7.046  12.515  0.00  0.00    +0.000 N 
ATOM      4  H   UNL     1      46.858   6.255  12.876  0.00  0.00    +0.000 HD
ENDROOT
BRANCH   2   5
ATOM      5  C   UNL     1      44.807   5.452  11.554  0.00  0.00    +0.000 A 
ATOM      6  C   UNL     1      44.150   4.863  12.625  0.00  0.00    +0.000 A 
ATOM      7  S   UNL     1      43.634   3.267  12.314  0.00  0.00    +0.000 S 
ATOM      8  C   UNL     1      44.247   3.322  10.728  0.00  0.00    +0.000 A 
ATOM      9  N   UNL     1      44.099   2.267   9.882  0.00  0.00    +0.000 NA
ATOM     10  C   UNL     1      44.579   2.462   8.698  0.00  0.00    +0.000 A 
ATOM     11  N   UNL     1      45.210   3.607   8.290  0.00  0.00    +0.000 N 
ATOM     12  C   UNL     1      45.457   4.663   9.133  0.00  0.00    +0.000 A 
ATOM     13  O   UNL     1      46.161   5.602   8.782  0.00  0.00    +0.000 OA
ATOM     14  C   UNL     1      44.876   4.522  10.454  0.00  0.00    +0.000 A 
ATOM     15  H   UNL     1      45.604   3.679   7.362  0.00  0.00    +0.000 HD
ENDBRANCH   2   5
BRANCH   3  16
ATOM     16  C   UNL     1      46.907   8.350  12.727  0.00  0.00    +0.000 C 
BRANCH  16  17
ATOM     17  C   UNL     1      48.288   8.479  12.138  0.00  0.00    +0.000 A 
ATOM     18  C   UNL     1      48.797   9.742  11.808  0.00  0.00    +0.000 A 
ATOM     19  C   UNL     1      50.105   9.884  11.334  0.00  0.00    +0.000 A 
ATOM     20  C   UNL     1      50.925   8.762  11.157  0.00  0.00    +0.000 A 
ATOM     21  C   UNL     1      50.408   7.496  11.467  0.00  0.00    +0.000 A 
ATOM     22  C   UNL     1      49.099   7.354  11.939  0.00  0.00    +0.000 A 
BRANCH  20  23
ATOM     23  C   UNL     1      52.335   8.913  10.637  0.00  0.00    +0.000 C 
BRANCH  23  24
ATOM     24  O   UNL     1      52.352   8.764   9.216  0.00  0.00    +0.000 OA
BRANCH  24  25
ATOM     25  C   UNL     1      52.794   7.562   8.733  0.00  0.00    +0.000 A 
ATOM     26  C   UNL     1      53.553   6.622   9.425  0.00  0.00    +0.000 A 
ATOM     27  C   UNL     1      53.927   5.432   8.791  0.00  0.00    +0.000 A 
ATOM     28  C   UNL     1      53.526   5.224   7.482  0.00  0.00    +0.000 A 
ATOM     29  N   UNL     1      52.800   6.113   6.777  0.00  0.00    +0.000 NA
ATOM     30  C   UNL     1      52.452   7.258   7.419  0.00  0.00    +0.000 A 
ENDBRANCH  24  25
ENDBRANCH  23  24
ENDBRANCH  20  23
ENDBRANCH  16  17
ENDBRANCH   3  16
TORSDOF 6
ENDMDL
MODEL 7
REMARK VINA RESULT:    -6.065      4.161      9.704
REMARK INTER + INTRA:          -9.026
REMARK INTER:                  -7.730
REMARK INTRA:                  -1.296
REMARK UNBOUND:                -0.834
REMARK  Name = 
REMARK  6 active torsions:
REMARK  status: ('A' for Active; 'I' for Inactive)
REMARK    1  A    between atoms: C_2  and  C_19
REMARK    2  A    between atoms: N_3  and  C_4
REMARK    3  A    between atoms: C_4  and  C_5
REMARK    4  A    between atoms: C_8  and  C_9
REMARK    5  A    between atoms: C_9  and  O_10
REMARK    6  A    between atoms: O_10  and  C_11
REMARK                            x       y       z     vdW  Elec       q    Type
REMARK                         _______ _______ _______ _____ _____    ______ ____
ROOT
ATOM      1  O   UNL     1      47.538   3.271  13.662  0.00  0.00    +0.000 OA
ATOM      2  C   UNL     1      46.732   4.103  14.069  0.00  0.00    +0.000 C 
ATOM      3  N   UNL     1      46.614   4.433  15.393  0.00  0.00    +0.000 N 
ATOM      4  H   UNL     1      45.832   4.999  15.703  0.00  0.00    +0.000 HD
ENDROOT
BRANCH   2   5
ATOM      5  C   UNL     1      45.872   4.842  13.139  0.00  0.00    +0.000 A 
ATOM      6  C   UNL     1      44.866   4.181  12.449  0.00  0.00    +0.000 A 
ATOM      7  S   UNL     1      43.947   5.203  11.439  0.00  0.00    +0.000 S 
ATOM      8  C   UNL     1      44.847   6.567  11.912  0.00  0.00    +0.000 A 
ATOM      9  N   UNL     1      44.545   7.805  11.437  0.00  0.00    +0.000 NA
ATOM     10  C   UNL     1      45.286   8.753  11.910  0.00  0.00    +0.000 A 
ATOM     11  N   UNL     1      46.312   8.572  12.798  0.00  0.00    +0.000 N 
ATOM     12  C   UNL     1      46.707   7.332  13.239  0.00  0.00    +0.000 A 
ATOM     13  O   UNL     1      47.725   7.192  13.906  0.00  0.00    +0.000 OA
ATOM     14  C   UNL     1      45.861   6.241  12.792  0.00  0.00    +0.000 A 
ATOM     15  H   UNL     1      46.883   9.350  13.095  0.00  0.00    +0.000 HD
ENDBRANCH   2   5
BRANCH   3  16
ATOM     16  C   UNL     1      47.400   3.799  16.419  0.00  0.00    +0.000 C 
BRANCH  16  17
ATOM     17  C   UNL     1      48.000   4.788  17.384  0.00  0.00    +0.000 A 
ATOM     18  C   UNL     1      47.231   5.301  18.436  0.00  0.00    +0.000 A 
ATOM     19  C   UNL     1      47.798   6.160  19.383  0.00  0.00    +0.000 A 
ATOM     20  C   UNL     1      49.142   6.543  19.285  0.00  0.00    +0.000 A 
ATOM     21  C   UNL     1      49.906   6.046  18.219  0.00  0.00    +0.000 A 
ATOM     22  C   UNL     1      49.338   5.190  17.270  0.00  0.00    +0.000 A 
BRANCH  20  23
ATOM     23  C   UNL     1      49.753   7.477  20.302  0.00  0.00    +0.000 C 
BRANCH  23  24
ATOM     24  O   UNL     1      50.268   8.639  19.652  0.00  0.00    +0.000 OA
BRANCH  24  25
ATOM     25  C   UNL     1      49.346   9.525  19.163  0.00  0.00    +0.000 A 
ATOM     26  C   UNL     1      49.180   9.894  17.832  0.00  0.00    +0.000 A 
ATOM     27  C   UNL     1      48.184  10.815  17.487  0.00  0.00    +0.000 A 
ATOM     28  C   UNL     1      47.386  11.335  18.492  0.00  0.00    +0.000 A 
ATOM     29  N   UNL     1      47.522  11.010  19.792  0.00  0.00    +0.000 NA
ATOM     30  C   UNL     1      48.497  10.114  20.095  0.00  0.00    +0.000 A 
ENDBRANCH  24  25
ENDBRANCH  23  24
ENDBRANCH  20  23
ENDBRANCH  16  17
ENDBRANCH   3  16
TORSDOF 6
ENDMDL
MODEL 8
REMARK VINA RESULT:    -6.044      4.994      6.968
REMARK INTER + INTRA:          -8.998
REMARK INTER:                  -7.963
REMARK INTRA:                  -1.035
REMARK UNBOUND:                -0.834
REMARK  Name = 
REMARK  6 active torsions:
REMARK  status: ('A' for Active; 'I' for Inactive)
REMARK    1  A    between atoms: C_2  and  C_19
REMARK    2  A    between atoms: N_3  and  C_4
REMARK    3  A    between atoms: C_4  and  C_5
REMARK    4  A    between atoms: C_8  and  C_9
REMARK    5  A    between atoms: C_9  and  O_10
REMARK    6  A    between atoms: O_10  and  C_11
REMARK                            x       y       z     vdW  Elec       q    Type
REMARK                         _______ _______ _______ _____ _____    ______ ____
ROOT
ATOM      1  O   UNL     1      47.605   7.977  14.244  0.00  0.00    +0.000 OA
ATOM      2  C   UNL     1      47.235   7.647  13.121  0.00  0.00    +0.000 C 
ATOM      3  N   UNL     1      47.618   8.317  11.988  0.00  0.00    +0.000 N 
ATOM      4  H   UNL     1      47.163   8.113  11.105  0.00  0.00    +0.000 HD
ENDROOT
BRANCH   2   5
ATOM      5  C   UNL     1      46.390   6.465  12.918  0.00  0.00    +0.000 A 
ATOM      6  C   UNL     1      46.804   5.227  13.391  0.00  0.00    +0.000 A 
ATOM      7  S   UNL     1      45.682   3.976  13.095  0.00  0.00    +0.000 S 
ATOM      8  C   UNL     1      44.596   5.054  12.351  0.00  0.00    +0.000 A 
ATOM      9  N   UNL     1      43.388   4.627  11.894  0.00  0.00    +0.000 NA
ATOM     10  C   UNL     1      42.651   5.560  11.387  0.00  0.00    +0.000 A 
ATOM     11  N   UNL     1      43.020   6.875  11.278  0.00  0.00    +0.000 N 
ATOM     12  C   UNL     1      44.260   7.334  11.648  0.00  0.00    +0.000 A 
ATOM     13  O   UNL     1      44.613   8.479  11.392  0.00  0.00    +0.000 OA
ATOM     14  C   UNL     1      45.099   6.339  12.288  0.00  0.00    +0.000 A 
ATOM     15  H   UNL     1      42.413   7.547  10.830  0.00  0.00    +0.000 HD
ENDBRANCH   2   5
BRANCH   3  16
ATOM     16  C   UNL     1      48.454   9.488  12.031  0.00  0.00    +0.000 C 
BRANCH  16  17
ATOM     17  C   UNL     1      49.811   9.254  11.418  0.00  0.00    +0.000 A 
ATOM     18  C   UNL     1      50.554  10.332  10.921  0.00  0.00    +0.000 A 
ATOM     19  C   UNL     1      51.846  10.139  10.421  0.00  0.00    +0.000 A 
ATOM     20  C   UNL     1      52.413   8.858  10.385  0.00  0.00    +0.000 A 
ATOM     21  C   UNL     1      51.660   7.776  10.862  0.00  0.00    +0.000 A 
ATOM     22  C   UNL     1      50.367   7.969  11.360  0.00  0.00    +0.000 A 
BRANCH  20  23
ATOM     23  C   UNL     1      53.805   8.648   9.837  0.00  0.00    +0.000 C 
BRANCH  23  24
ATOM     24  O   UNL     1      53.746   8.411   8.430  0.00  0.00    +0.000 OA
BRANCH  24  25
ATOM     25  C   UNL     1      53.777   7.103   8.028  0.00  0.00    +0.000 A 
ATOM     26  C   UNL     1      54.697   6.138   8.427  0.00  0.00    +0.000 A 
ATOM     27  C   UNL     1      54.594   4.834   7.927  0.00  0.00    +0.000 A 
ATOM     28  C   UNL     1      53.568   4.542   7.044  0.00  0.00    +0.000 A 
ATOM     29  N   UNL     1      52.665   5.451   6.629  0.00  0.00    +0.000 NA
ATOM     30  C   UNL     1      52.791   6.706   7.130  0.00  0.00    +0.000 A 
ENDBRANCH  24  25
ENDBRANCH  23  24
ENDBRANCH  20  23
ENDBRANCH  16  17
ENDBRANCH   3  16
TORSDOF 6
ENDMDL
MODEL 9
REMARK VINA RESULT:    -5.841      4.064      9.901
REMARK INTER + INTRA:          -8.723
REMARK INTER:                  -7.486
REMARK INTRA:                  -1.237
REMARK UNBOUND:                -0.834
REMARK  Name = 
REMARK  6 active torsions:
REMARK  status: ('A' for Active; 'I' for Inactive)
REMARK    1  A    between atoms: C_2  and  C_19
REMARK    2  A    between atoms: N_3  and  C_4
REMARK    3  A    between atoms: C_4  and  C_5
REMARK    4  A    between atoms: C_8  and  C_9
REMARK    5  A    between atoms: C_9  and  O_10
REMARK    6  A    between atoms: O_10  and  C_11
REMARK                            x       y       z     vdW  Elec       q    Type
REMARK                         _______ _______ _______ _____ _____    ______ ____
ROOT
ATOM      1  O   UNL     1      47.537   3.246  13.659  0.00  0.00    +0.000 OA
ATOM      2  C   UNL     1      46.727   4.093  14.024  0.00  0.00    +0.000 C 
ATOM      3  N   UNL     1      46.561   4.439  15.340  0.00  0.00    +0.000 N 
ATOM      4  H   UNL     1      45.775   5.018  15.612  0.00  0.00    +0.000 HD
ENDROOT
BRANCH   2   5
ATOM      5  C   UNL     1      45.915   4.833  13.053  0.00  0.00    +0.000 A 
ATOM      6  C   UNL     1      44.995   4.159  12.261  0.00  0.00    +0.000 A 
ATOM      7  S   UNL     1      44.118   5.182  11.215  0.00  0.00    +0.000 S 
ATOM      8  C   UNL     1      44.921   6.562  11.807  0.00  0.00    +0.000 A 
ATOM      9  N   UNL     1      44.607   7.804  11.351  0.00  0.00    +0.000 NA
ATOM     10  C   UNL     1      45.267   8.761  11.916  0.00  0.00    +0.000 A 
ATOM     11  N   UNL     1      46.226   8.586  12.878  0.00  0.00    +0.000 N 
ATOM     12  C   UNL     1      46.635   7.347  13.307  0.00  0.00    +0.000 A 
ATOM     13  O   UNL     1      47.601   7.221  14.050  0.00  0.00    +0.000 OA
ATOM     14  C   UNL     1      45.874   6.242  12.755  0.00  0.00    +0.000 A 
ATOM     15  H   UNL     1      46.739   9.375  13.247  0.00  0.00    +0.000 HD
ENDBRANCH   2   5
BRANCH   3  16
ATOM     16  C   UNL     1      47.297   3.806  16.403  0.00  0.00    +0.000 C 
BRANCH  16  17
ATOM     17  C   UNL     1      48.048   4.794  17.256  0.00  0.00    +0.000 A 
ATOM     18  C   UNL     1      49.135   5.500  16.725  0.00  0.00    +0.000 A 
ATOM     19  C   UNL     1      49.792   6.476  17.480  0.00  0.00    +0.000 A 
ATOM     20  C   UNL     1      49.391   6.750  18.794  0.00  0.00    +0.000 A 
ATOM     21  C   UNL     1      48.317   6.029  19.334  0.00  0.00    +0.000 A 
ATOM     22  C   UNL     1      47.661   5.050  18.579  0.00  0.00    +0.000 A 
BRANCH  20  23
ATOM     23  C   UNL     1      50.105   7.798  19.615  0.00  0.00    +0.000 C 
BRANCH  23  24
ATOM     24  O   UNL     1      50.542   7.236  20.853  0.00  0.00    +0.000 OA
BRANCH  24  25
ATOM     25  C   UNL     1      51.605   6.375  20.791  0.00  0.00    +0.000 A 
ATOM     26  C   UNL     1      51.597   5.028  21.139  0.00  0.00    +0.000 A 
ATOM     27  C   UNL     1      52.770   4.274  21.017  0.00  0.00    +0.000 A 
ATOM     28  C   UNL     1      53.914   4.899  20.548  0.00  0.00    +0.000 A 
ATOM     29  N   UNL     1      53.963   6.202  20.211  0.00  0.00    +0.000 NA
ATOM     30  C   UNL     1      52.809   6.907  20.340  0.00  0.00    +0.000 A 
ENDBRANCH  24  25
ENDBRANCH  23  24
ENDBRANCH  20  23
ENDBRANCH  16  17
ENDBRANCH   3  16
TORSDOF 6
ENDMDL
