MODEL 1
REMARK VINA RESULT:    -7.672      0.000      0.000
REMARK INTER + INTRA:         -11.294
REMARK INTER:                  -9.915
REMARK INTRA:                  -1.379
REMARK UNBOUND:                -1.379
REMARK  Name = 
REMARK  8 active torsions:
REMARK  status: ('A' for Active; 'I' for Inactive)
REMARK    1  A    between atoms: C_1  and  C_2
REMARK    2  A    between atoms: C_2  and  N_3
REMARK    3  A    between atoms: C_2  and  C_16
REMARK    4  A    between atoms: C_4  and  C_6
REMARK    5  A    between atoms: C_19  and  C_20
REMARK    6  A    between atoms: C_20  and  C_21
REMARK    7  A    between atoms: C_20  and  C_22
REMARK    8  A    between atoms: C_20  and  C_23
REMARK                            x       y       z     vdW  Elec       q    Type
REMARK                         _______ _______ _______ _____ _____    ______ ____
ROOT
ATOM      1  C   UNL     1      48.465   8.514  13.824  0.00  0.00    +0.000 C 
ATOM      2  C   UNL     1      48.463   7.017  14.163  0.00  0.00    +0.000 C 
ENDROOT
BRANCH   2   3
ATOM      3  C   UNL     1      47.363   6.312  13.382  0.00  0.00    +0.000 A 
ATOM      4  C   UNL     1      46.714   6.942  12.315  0.00  0.00    +0.000 A 
ATOM      5  C   UNL     1      45.739   6.263  11.568  0.00  0.00    +0.000 A 
ATOM      6  C   UNL     1      45.378   4.932  11.856  0.00  0.00    +0.000 A 
ATOM      7  C   UNL     1      45.999   4.336  12.968  0.00  0.00    +0.000 A 
ATOM      8  C   UNL     1      46.983   5.003  13.702  0.00  0.00    +0.000 A 
BRANCH   6   9
ATOM      9  C   UNL     1      44.338   4.148  11.013  0.00  0.00    +0.000 C 
ATOM     10  C   UNL     1      43.699   2.978  11.815  0.00  0.00    +0.000 C 
ATOM     11  C   UNL     1      43.127   5.079  10.694  0.00  0.00    +0.000 C 
BRANCH   9  12
ATOM     12  C   UNL     1      44.992   3.572   9.737  0.00  0.00    +0.000 A 
ATOM     13  C   UNL     1      45.077   2.182   9.547  0.00  0.00    +0.000 A 
ATOM     14  C   UNL     1      45.675   1.680   8.398  0.00  0.00    +0.000 A 
ATOM     15  N   UNL     1      46.189   2.449   7.420  0.00  0.00    +0.000 NA
ATOM     16  C   UNL     1      46.104   3.780   7.605  0.00  0.00    +0.000 A 
ATOM     17  C   UNL     1      45.527   4.377   8.721  0.00  0.00    +0.000 A 
ENDBRANCH   9  12
ENDBRANCH   6   9
ENDBRANCH   2   3
BRANCH   2  18
ATOM     18  N   UNL     1      48.273   6.756  15.585  0.00  0.00    +0.000 N 
ATOM     19  C   UNL     1      49.282   6.339  16.417  0.00  0.00    +0.000 C 
ATOM     20  O   UNL     1      50.443   6.212  16.039  0.00  0.00    +0.000 OA
ATOM     21  H   UNL     1      47.318   6.552  15.868  0.00  0.00    +0.000 HD
BRANCH  19  22
ATOM     22  C   UNL     1      48.921   6.114  17.822  0.00  0.00    +0.000 A 
ATOM     23  C   UNL     1      49.108   4.859  18.384  0.00  0.00    +0.000 A 
ATOM     24  S   UNL     1      48.638   4.762  20.019  0.00  0.00    +0.000 S 
ATOM     25  C   UNL     1      48.130   6.386  20.025  0.00  0.00    +0.000 A 
ATOM     26  N   UNL     1      47.574   6.941  21.134  0.00  0.00    +0.000 NA
ATOM     27  C   UNL     1      47.208   8.172  20.988  0.00  0.00    +0.000 A 
ATOM     28  N   UNL     1      47.363   8.901  19.836  0.00  0.00    +0.000 N 
ATOM     29  C   UNL     1      47.951   8.392  18.702  0.00  0.00    +0.000 A 
ATOM     30  O   UNL     1      48.136   9.085  17.707  0.00  0.00    +0.000 OA
ATOM     31  C   UNL     1      48.351   7.004  18.804  0.00  0.00    +0.000 A 
ATOM     32  H   UNL     1      47.072   9.867  19.796  0.00  0.00    +0.000 HD
ENDBRANCH  19  22
ENDBRANCH   2  18
TORSDOF 5
ENDMDL
MODEL 2
REMARK VINA RESULT:    -7.657      1.452      2.215
REMARK INTER + INTRA:         -11.274
REMARK INTER:                  -9.969
REMARK INTRA:                  -1.305
REMARK UNBOUND:                -1.379
REMARK  Name = 
REMARK  8 active torsions:
REMARK  status: ('A' for Active; 'I' for Inactive)
REMARK    1  A    between atoms: C_1  and  C_2
REMARK    2  A    between atoms: C_2  and  N_3
REMARK    3  A    between atoms: C_2  and  C_16
REMARK    4  A    between atoms: C_4  and  C_6
REMARK    5  A    between atoms: C_19  and  C_20
REMARK    6  A    between atoms: C_20  and  C_21
REMARK    7  A    between atoms: C_20  and  C_22
REMARK    8  A    between atoms: C_20  and  C_23
REMARK                            x       y       z     vdW  Elec       q    Type
REMARK                         _______ _______ _______ _____ _____    ______ ____
ROOT
ATOM      1  C   UNL     1      48.403   9.133  13.499  0.00  0.00    +0.000 C 
ATOM      2  C   UNL     1      48.429   7.704  14.058  0.00  0.00    +0.000 C 
ENDROOT
BRANCH   2   3
ATOM      3  C   UNL     1      47.277   6.899  13.473  0.00  0.00    +0.000 A 
ATOM      4  C   UNL     1      46.180   7.530  12.881  0.00  0.00    +0.000 A 
ATOM      5  C   UNL     1      45.149   6.777  12.296  0.00  0.00    +0.000 A 
ATOM      6  C   UNL     1      45.178   5.369  12.280  0.00  0.00    +0.000 A 
ATOM      7  C   UNL     1      46.261   4.752  12.931  0.00  0.00    +0.000 A 
ATOM      8  C   UNL     1      47.297   5.499  13.496  0.00  0.00    +0.000 A 
BRANCH   6   9
ATOM      9  C   UNL     1      44.073   4.519  11.598  0.00  0.00    +0.000 C 
ATOM     10  C   UNL     1      43.550   3.387  12.528  0.00  0.00    +0.000 C 
ATOM     11  C   UNL     1      42.814   5.409  11.357  0.00  0.00    +0.000 C 
BRANCH   9  12
ATOM     12  C   UNL     1      44.604   3.880  10.295  0.00  0.00    +0.000 A 
ATOM     13  C   UNL     1      45.211   4.675   9.308  0.00  0.00    +0.000 A 
ATOM     14  C   UNL     1      45.676   4.085   8.140  0.00  0.00    +0.000 A 
ATOM     15  N   UNL     1      45.593   2.767   7.877  0.00  0.00    +0.000 NA
ATOM     16  C   UNL     1      45.012   2.009   8.826  0.00  0.00    +0.000 A 
ATOM     17  C   UNL     1      44.515   2.506  10.025  0.00  0.00    +0.000 A 
ENDBRANCH   9  12
ENDBRANCH   6   9
ENDBRANCH   2   3
BRANCH   2  18
ATOM     18  N   UNL     1      48.345   7.660  15.513  0.00  0.00    +0.000 N 
ATOM     19  C   UNL     1      49.206   6.935  16.297  0.00  0.00    +0.000 C 
ATOM     20  O   UNL     1      50.158   6.312  15.836  0.00  0.00    +0.000 OA
ATOM     21  H   UNL     1      47.435   7.890  15.904  0.00  0.00    +0.000 HD
BRANCH  19  22
ATOM     22  C   UNL     1      48.978   6.993  17.746  0.00  0.00    +0.000 A 
ATOM     23  C   UNL     1      48.931   8.226  18.384  0.00  0.00    +0.000 A 
ATOM     24  S   UNL     1      48.661   8.120  20.063  0.00  0.00    +0.000 S 
ATOM     25  C   UNL     1      48.637   6.420  20.006  0.00  0.00    +0.000 A 
ATOM     26  N   UNL     1      48.482   5.684  21.139  0.00  0.00    +0.000 NA
ATOM     27  C   UNL     1      48.510   4.405  20.953  0.00  0.00    +0.000 A 
ATOM     28  N   UNL     1      48.665   3.798  19.732  0.00  0.00    +0.000 N 
ATOM     29  C   UNL     1      48.790   4.501  18.557  0.00  0.00    +0.000 A 
ATOM     30  O   UNL     1      48.862   3.932  17.472  0.00  0.00    +0.000 OA
ATOM     31  C   UNL     1      48.795   5.940  18.716  0.00  0.00    +0.000 A 
ATOM     32  H   UNL     1      48.659   2.791  19.655  0.00  0.00    +0.000 HD
ENDBRANCH  19  22
ENDBRANCH   2  18
TORSDOF 5
ENDMDL
MODEL 3
REMARK VINA RESULT:    -7.373      3.924      8.667
REMARK INTER + INTRA:         -10.907
REMARK INTER:                  -9.423
REMARK INTRA:                  -1.484
REMARK UNBOUND:                -1.379
REMARK  Name = 
REMARK  8 active torsions:
REMARK  status: ('A' for Active; 'I' for Inactive)
REMARK    1  A    between atoms: C_1  and  C_2
REMARK    2  A    between atoms: C_2  and  N_3
REMARK    3  A    between atoms: C_2  and  C_16
REMARK    4  A    between atoms: C_4  and  C_6
REMARK    5  A    between atoms: C_19  and  C_20
REMARK    6  A    between atoms: C_20  and  C_21
REMARK    7  A    between atoms: C_20  and  C_22
REMARK    8  A    between atoms: C_20  and  C_23
REMARK                            x       y       z     vdW  Elec       q    Type
REMARK                         _______ _______ _______ _____ _____    ______ ____
ROOT
ATOM      1  C   UNL     1      49.334   7.954  12.531  0.00  0.00    +0.000 C 
ATOM      2  C   UNL     1      48.145   7.333  13.276  0.00  0.00    +0.000 C 
ENDROOT
BRANCH   2   3
ATOM      3  C   UNL     1      48.631   6.648  14.545  0.00  0.00    +0.000 A 
ATOM      4  C   UNL     1      49.828   7.027  15.160  0.00  0.00    +0.000 A 
ATOM      5  C   UNL     1      50.239   6.424  16.360  0.00  0.00    +0.000 A 
ATOM      6  C   UNL     1      49.471   5.426  16.989  0.00  0.00    +0.000 A 
ATOM      7  C   UNL     1      48.300   5.018  16.326  0.00  0.00    +0.000 A 
ATOM      8  C   UNL     1      47.879   5.628  15.142  0.00  0.00    +0.000 A 
BRANCH   6   9
ATOM      9  C   UNL     1      49.884   4.782  18.340  0.00  0.00    +0.000 C 
ATOM     10  C   UNL     1      50.559   5.808  19.294  0.00  0.00    +0.000 C 
ATOM     11  C   UNL     1      48.602   4.347  19.115  0.00  0.00    +0.000 C 
BRANCH   9  12
ATOM     12  C   UNL     1      50.861   3.608  18.107  0.00  0.00    +0.000 A 
ATOM     13  C   UNL     1      52.207   3.715  18.497  0.00  0.00    +0.000 A 
ATOM     14  C   UNL     1      53.075   2.654  18.275  0.00  0.00    +0.000 A 
ATOM     15  N   UNL     1      52.710   1.491  17.702  0.00  0.00    +0.000 NA
ATOM     16  C   UNL     1      51.419   1.392  17.331  0.00  0.00    +0.000 A 
ATOM     17  C   UNL     1      50.477   2.399  17.510  0.00  0.00    +0.000 A 
ENDBRANCH   9  12
ENDBRANCH   6   9
ENDBRANCH   2   3
BRANCH   2  18
ATOM     18  N   UNL     1      47.410   6.367  12.469  0.00  0.00    +0.000 N 
ATOM     19  C   UNL     1      46.309   6.693  11.717  0.00  0.00    +0.000 C 
ATOM     20  O   UNL     1      45.892   7.844  11.617  0.00  0.00    +0.000 OA
ATOM     21  H   UNL     1      47.515   5.395  12.749  0.00  0.00    +0.000 HD
BRANCH  19  22
ATOM     22  C   UNL     1      45.680   5.598  10.969  0.00  0.00    +0.000 A 
ATOM     23  C   UNL     1      45.762   5.581   9.583  0.00  0.00    +0.000 A 
ATOM     24  S   UNL     1      44.979   4.247   8.866  0.00  0.00    +0.000 S 
ATOM     25  C   UNL     1      44.468   3.665  10.381  0.00  0.00    +0.000 A 
ATOM     26  N   UNL     1      43.700   2.547  10.478  0.00  0.00    +0.000 NA
ATOM     27  C   UNL     1      43.362   2.235  11.685  0.00  0.00    +0.000 A 
ATOM     28  N   UNL     1      43.735   2.934  12.805  0.00  0.00    +0.000 N 
ATOM     29  C   UNL     1      44.538   4.049  12.758  0.00  0.00    +0.000 A 
ATOM     30  O   UNL     1      44.910   4.618  13.780  0.00  0.00    +0.000 OA
ATOM     31  C   UNL     1      44.921   4.458  11.423  0.00  0.00    +0.000 A 
ATOM     32  H   UNL     1      43.451   2.624  13.724  0.00  0.00    +0.000 HD
ENDBRANCH  19  22
ENDBRANCH   2  18
TORSDOF 5
ENDMDL
MODEL 4
REMARK VINA RESULT:    -6.981      3.861      5.809
REMARK INTER + INTRA:         -10.400
REMARK INTER:                  -9.144
REMARK INTRA:                  -1.256
REMARK UNBOUND:                -1.379
REMARK  Name = 
REMARK  8 active torsions:
REMARK  status: ('A' for Active; 'I' for Inactive)
REMARK    1  A    between atoms: C_1  and  C_2
REMARK    2  A    between atoms: C_2  and  N_3
REMARK    3  A    between atoms: C_2  and  C_16
REMARK    4  A    between atoms: C_4  and  C_6
REMARK    5  A    between atoms: C_19  and  C_20
REMARK    6  A    between atoms: C_20  and  C_21
REMARK    7  A    between atoms: C_20  and  C_22
REMARK    8  A    between atoms: C_20  and  C_23
REMARK                            x       y       z     vdW  Elec       q    Type
REMARK                         _______ _______ _______ _____ _____    ______ ____
ROOT
ATOM      1  C   UNL     1      47.552   2.872  17.661  0.00  0.00    +0.000 C 
ATOM      2  C   UNL     1      48.434   4.106  17.430  0.00  0.00    +0.000 C 
ENDROOT
BRANCH   2   3
ATOM      3  C   UNL     1      48.040   4.786  16.127  0.00  0.00    +0.000 A 
ATOM      4  C   UNL     1      47.161   4.175  15.227  0.00  0.00    +0.000 A 
ATOM      5  C   UNL     1      46.763   4.835  14.054  0.00  0.00    +0.000 A 
ATOM      6  C   UNL     1      47.224   6.127  13.738  0.00  0.00    +0.000 A 
ATOM      7  C   UNL     1      48.153   6.702  14.625  0.00  0.00    +0.000 A 
ATOM      8  C   UNL     1      48.536   6.055  15.802  0.00  0.00    +0.000 A 
BRANCH   6   9
ATOM      9  C   UNL     1      46.759   6.893  12.470  0.00  0.00    +0.000 C 
ATOM     10  C   UNL     1      46.320   8.349  12.797  0.00  0.00    +0.000 C 
ATOM     11  C   UNL     1      47.974   7.082  11.509  0.00  0.00    +0.000 C 
BRANCH   9  12
ATOM     12  C   UNL     1      45.578   6.162  11.794  0.00  0.00    +0.000 A 
ATOM     13  C   UNL     1      44.289   6.230  12.348  0.00  0.00    +0.000 A 
ATOM     14  C   UNL     1      43.239   5.561  11.732  0.00  0.00    +0.000 A 
ATOM     15  N   UNL     1      43.367   4.836  10.605  0.00  0.00    +0.000 NA
ATOM     16  C   UNL     1      44.604   4.776  10.075  0.00  0.00    +0.000 A 
ATOM     17  C   UNL     1      45.716   5.408  10.619  0.00  0.00    +0.000 A 
ENDBRANCH   9  12
ENDBRANCH   6   9
ENDBRANCH   2   3
BRANCH   2  18
ATOM     18  N   UNL     1      49.856   3.789  17.387  0.00  0.00    +0.000 N 
ATOM     19  C   UNL     1      50.731   4.103  18.396  0.00  0.00    +0.000 C 
ATOM     20  O   UNL     1      50.370   4.625  19.447  0.00  0.00    +0.000 OA
ATOM     21  H   UNL     1      50.244   3.650  16.457  0.00  0.00    +0.000 HD
BRANCH  19  22
ATOM     22  C   UNL     1      52.133   3.720  18.190  0.00  0.00    +0.000 A 
ATOM     23  C   UNL     1      53.134   4.668  18.358  0.00  0.00    +0.000 A 
ATOM     24  S   UNL     1      54.703   4.065  18.080  0.00  0.00    +0.000 S 
ATOM     25  C   UNL     1      54.100   2.524  17.685  0.00  0.00    +0.000 A 
ATOM     26  N   UNL     1      54.935   1.522  17.304  0.00  0.00    +0.000 NA
ATOM     27  C   UNL     1      54.339   0.414  17.006  0.00  0.00    +0.000 A 
ATOM     28  N   UNL     1      52.983   0.216  17.071  0.00  0.00    +0.000 N 
ATOM     29  C   UNL     1      52.104   1.189  17.485  0.00  0.00    +0.000 A 
ATOM     30  O   UNL     1      50.902   0.965  17.596  0.00  0.00    +0.000 OA
ATOM     31  C   UNL     1      52.720   2.461  17.801  0.00  0.00    +0.000 A 
ATOM     32  H   UNL     1      52.583  -0.683  16.843  0.00  0.00    +0.000 HD
ENDBRANCH  19  22
ENDBRANCH   2  18
TORSDOF 5
ENDMDL
MODEL 5
REMARK VINA RESULT:    -6.836      3.042      9.345
REMARK INTER + INTRA:         -10.213
REMARK INTER:                  -8.809
REMARK INTRA:                  -1.404
REMARK UNBOUND:                -1.379
REMARK  Name = 
REMARK  8 active torsions:
REMARK  status: ('A' for Active; 'I' for Inactive)
REMARK    1  A    between atoms: C_1  and  C_2
REMARK    2  A    between atoms: C_2  and  N_3
REMARK    3  A    between atoms: C_2  and  C_16
REMARK    4  A    between atoms: C_4  and  C_6
REMARK    5  A    between atoms: C_19  and  C_20
REMARK    6  A    between atoms: C_20  and  C_21
REMARK    7  A    between atoms: C_20  and  C_22
REMARK    8  A    between atoms: C_20  and  C_23
REMARK                            x       y       z     vdW  Elec       q    Type
REMARK                         _______ _______ _______ _____ _____    ______ ____
ROOT
ATOM      1  C   UNL     1      48.825   7.884  11.583  0.00  0.00    +0.000 C 
ATOM      2  C   UNL     1      47.804   7.445  12.641  0.00  0.00    +0.000 C 
ENDROOT
BRANCH   2   3
ATOM      3  C   UNL     1      48.521   7.096  13.938  0.00  0.00    +0.000 A 
ATOM      4  C   UNL     1      47.978   6.179  14.842  0.00  0.00    +0.000 A 
ATOM      5  C   UNL     1      48.674   5.825  16.009  0.00  0.00    +0.000 A 
ATOM      6  C   UNL     1      49.937   6.370  16.313  0.00  0.00    +0.000 A 
ATOM      7  C   UNL     1      50.440   7.334  15.420  0.00  0.00    +0.000 A 
ATOM      8  C   UNL     1      49.759   7.674  14.250  0.00  0.00    +0.000 A 
BRANCH   6   9
ATOM      9  C   UNL     1      50.744   5.956  17.572  0.00  0.00    +0.000 C 
ATOM     10  C   UNL     1      51.430   4.571  17.396  0.00  0.00    +0.000 C 
ATOM     11  C   UNL     1      51.941   6.938  17.761  0.00  0.00    +0.000 C 
BRANCH   9  12
ATOM     12  C   UNL     1      49.825   5.897  18.813  0.00  0.00    +0.000 A 
ATOM     13  C   UNL     1      49.283   7.075  19.354  0.00  0.00    +0.000 A 
ATOM     14  C   UNL     1      48.465   7.005  20.474  0.00  0.00    +0.000 A 
ATOM     15  N   UNL     1      48.136   5.857  21.095  0.00  0.00    +0.000 NA
ATOM     16  C   UNL     1      48.655   4.730  20.572  0.00  0.00    +0.000 A 
ATOM     17  C   UNL     1      49.484   4.698  19.457  0.00  0.00    +0.000 A 
ENDBRANCH   9  12
ENDBRANCH   6   9
ENDBRANCH   2   3
BRANCH   2  18
ATOM     18  N   UNL     1      47.004   6.301  12.221  0.00  0.00    +0.000 N 
ATOM     19  C   UNL     1      45.633   6.320  12.160  0.00  0.00    +0.000 C 
ATOM     20  O   UNL     1      44.973   7.327  12.397  0.00  0.00    +0.000 OA
ATOM     21  H   UNL     1      47.457   5.395  12.312  0.00  0.00    +0.000 HD
BRANCH  19  22
ATOM     22  C   UNL     1      44.981   5.079  11.724  0.00  0.00    +0.000 A 
ATOM     23  C   UNL     1      44.214   4.355  12.626  0.00  0.00    +0.000 A 
ATOM     24  S   UNL     1      43.528   2.942  11.965  0.00  0.00    +0.000 S 
ATOM     25  C   UNL     1      44.264   3.225  10.458  0.00  0.00    +0.000 A 
ATOM     26  N   UNL     1      44.114   2.349   9.429  0.00  0.00    +0.000 NA
ATOM     27  C   UNL     1      44.750   2.675   8.353  0.00  0.00    +0.000 A 
ATOM     28  N   UNL     1      45.512   3.807   8.209  0.00  0.00    +0.000 N 
ATOM     29  C   UNL     1      45.664   4.738   9.210  0.00  0.00    +0.000 A 
ATOM     30  O   UNL     1      46.298   5.774   9.033  0.00  0.00    +0.000 OA
ATOM     31  C   UNL     1      44.994   4.404  10.449  0.00  0.00    +0.000 A 
ATOM     32  H   UNL     1      45.969   4.012   7.332  0.00  0.00    +0.000 HD
ENDBRANCH  19  22
ENDBRANCH   2  18
TORSDOF 5
ENDMDL
MODEL 6
REMARK VINA RESULT:    -6.594      3.336      9.059
REMARK INTER + INTRA:          -9.901
REMARK INTER:                  -8.507
REMARK INTRA:                  -1.394
REMARK UNBOUND:                -1.379
REMARK  Name = 
REMARK  8 active torsions:
REMARK  status: ('A' for Active; 'I' for Inactive)
REMARK    1  A    between atoms: C_1  and  C_2
REMARK    2  A    between atoms: C_2  and  N_3
REMARK    3  A    between atoms: C_2  and  C_16
REMARK    4  A    between atoms: C_4  and  C_6
REMARK    5  A    between atoms: C_19  and  C_20
REMARK    6  A    between atoms: C_20  and  C_21
REMARK    7  A    between atoms: C_20  and  C_22
REMARK    8  A    between atoms: C_20  and  C_23
REMARK                            x       y       z     vdW  Elec       q    Type
REMARK                         _______ _______ _______ _____ _____    ______ ____
ROOT
ATOM      1  C   UNL     1      49.368   8.305  11.798  0.00  0.00    +0.000 C 
ATOM      2  C   UNL     1      48.213   7.711  12.616  0.00  0.00    +0.000 C 
ENDROOT
BRANCH   2   3
ATOM      3  C   UNL     1      48.745   7.142  13.924  0.00  0.00    +0.000 A 
ATOM      4  C   UNL     1      49.936   7.612  14.487  0.00  0.00    +0.000 A 
ATOM      5  C   UNL     1      50.389   7.118  15.721  0.00  0.00    +0.000 A 
ATOM      6  C   UNL     1      49.670   6.142  16.437  0.00  0.00    +0.000 A 
ATOM      7  C   UNL     1      48.506   5.639  15.827  0.00  0.00    +0.000 A 
ATOM      8  C   UNL     1      48.043   6.142  14.609  0.00  0.00    +0.000 A 
BRANCH   6   9
ATOM      9  C   UNL     1      50.129   5.617  17.824  0.00  0.00    +0.000 C 
ATOM     10  C   UNL     1      49.742   4.126  18.040  0.00  0.00    +0.000 C 
ATOM     11  C   UNL     1      51.688   5.605  17.879  0.00  0.00    +0.000 C 
BRANCH   9  12
ATOM     12  C   UNL     1      49.502   6.458  18.959  0.00  0.00    +0.000 A 
ATOM     13  C   UNL     1      48.174   6.234  19.360  0.00  0.00    +0.000 A 
ATOM     14  C   UNL     1      47.624   7.004  20.377  0.00  0.00    +0.000 A 
ATOM     15  N   UNL     1      48.291   7.973  21.032  0.00  0.00    +0.000 NA
ATOM     16  C   UNL     1      49.564   8.182  20.646  0.00  0.00    +0.000 A 
ATOM     17  C   UNL     1      50.200   7.467  19.639  0.00  0.00    +0.000 A 
ENDBRANCH   9  12
ENDBRANCH   6   9
ENDBRANCH   2   3
BRANCH   2  18
ATOM     18  N   UNL     1      47.492   6.663  11.904  0.00  0.00    +0.000 N 
ATOM     19  C   UNL     1      46.160   6.745  11.587  0.00  0.00    +0.000 C 
ATOM     20  O   UNL     1      45.481   7.741  11.826  0.00  0.00    +0.000 OA
ATOM     21  H   UNL     1      47.904   5.735  11.959  0.00  0.00    +0.000 HD
BRANCH  19  22
ATOM     22  C   UNL     1      45.584   5.598  10.874  0.00  0.00    +0.000 A 
ATOM     23  C   UNL     1      45.682   5.532   9.491  0.00  0.00    +0.000 A 
ATOM     24  S   UNL     1      44.962   4.141   8.819  0.00  0.00    +0.000 S 
ATOM     25  C   UNL     1      44.459   3.595  10.349  0.00  0.00    +0.000 A 
ATOM     26  N   UNL     1      43.737   2.451  10.482  0.00  0.00    +0.000 NA
ATOM     27  C   UNL     1      43.398   2.171  11.697  0.00  0.00    +0.000 A 
ATOM     28  N   UNL     1      43.730   2.927  12.793  0.00  0.00    +0.000 N 
ATOM     29  C   UNL     1      44.487   4.072  12.711  0.00  0.00    +0.000 A 
ATOM     30  O   UNL     1      44.825   4.693  13.714  0.00  0.00    +0.000 OA
ATOM     31  C   UNL     1      44.867   4.445  11.365  0.00  0.00    +0.000 A 
ATOM     32  H   UNL     1      43.448   2.640  13.720  0.00  0.00    +0.000 HD
ENDBRANCH  19  22
ENDBRANCH   2  18
TORSDOF 5
ENDMDL
MODEL 7
REMARK VINA RESULT:    -6.587      3.296      9.204
REMARK INTER + INTRA:          -9.892
REMARK INTER:                  -8.553
REMARK INTRA:                  -1.339
REMARK UNBOUND:                -1.379
REMARK  Name = 
REMARK  8 active torsions:
REMARK  status: ('A' for Active; 'I' for Inactive)
REMARK    1  A    between atoms: C_1  and  C_2
REMARK    2  A    between atoms: C_2  and  N_3
REMARK    3  A    between atoms: C_2  and  C_16
REMARK    4  A    between atoms: C_4  and  C_6
REMARK    5  A    between atoms: C_19  and  C_20
REMARK    6  A    between atoms: C_20  and  C_21
REMARK    7  A    between atoms: C_20  and  C_22
REMARK    8  A    between atoms: C_20  and  C_23
REMARK                            x       y       z     vdW  Elec       q    Type
REMARK                         _______ _______ _______ _____ _____    ______ ____
ROOT
ATOM      1  C   UNL     1      48.889   7.809  11.369  0.00  0.00    +0.000 C 
ATOM      2  C   UNL     1      47.606   7.702  12.203  0.00  0.00    +0.000 C 
ENDROOT
BRANCH   2   3
ATOM      3  C   UNL     1      47.949   7.738  13.686  0.00  0.00    +0.000 A 
ATOM      4  C   UNL     1      48.320   6.579  14.373  0.00  0.00    +0.000 A 
ATOM      5  C   UNL     1      48.685   6.634  15.727  0.00  0.00    +0.000 A 
ATOM      6  C   UNL     1      48.697   7.846  16.442  0.00  0.00    +0.000 A 
ATOM      7  C   UNL     1      48.265   8.993  15.750  0.00  0.00    +0.000 A 
ATOM      8  C   UNL     1      47.919   8.944  14.398  0.00  0.00    +0.000 A 
BRANCH   6   9
ATOM      9  C   UNL     1      49.144   7.937  17.926  0.00  0.00    +0.000 C 
ATOM     10  C   UNL     1      49.760   9.324  18.267  0.00  0.00    +0.000 C 
ATOM     11  C   UNL     1      47.887   7.856  18.847  0.00  0.00    +0.000 C 
BRANCH   9  12
ATOM     12  C   UNL     1      50.185   6.842  18.249  0.00  0.00    +0.000 A 
ATOM     13  C   UNL     1      49.805   5.682  18.945  0.00  0.00    +0.000 A 
ATOM     14  C   UNL     1      50.755   4.711  19.234  0.00  0.00    +0.000 A 
ATOM     15  N   UNL     1      52.051   4.797  18.880  0.00  0.00    +0.000 NA
ATOM     16  C   UNL     1      52.411   5.909  18.210  0.00  0.00    +0.000 A 
ATOM     17  C   UNL     1      51.534   6.936  17.878  0.00  0.00    +0.000 A 
ENDBRANCH   9  12
ENDBRANCH   6   9
ENDBRANCH   2   3
BRANCH   2  18
ATOM     18  N   UNL     1      46.845   6.489  11.924  0.00  0.00    +0.000 N 
ATOM     19  C   UNL     1      45.479   6.467  11.799  0.00  0.00    +0.000 C 
ATOM     20  O   UNL     1      44.792   7.483  11.853  0.00  0.00    +0.000 OA
ATOM     21  H   UNL     1      47.308   5.618  12.170  0.00  0.00    +0.000 HD
BRANCH  19  22
ATOM     22  C   UNL     1      44.868   5.161  11.525  0.00  0.00    +0.000 A 
ATOM     23  C   UNL     1      44.119   4.535  12.512  0.00  0.00    +0.000 A 
ATOM     24  S   UNL     1      43.482   3.027  12.037  0.00  0.00    +0.000 S 
ATOM     25  C   UNL     1      44.217   3.138  10.507  0.00  0.00    +0.000 A 
ATOM     26  N   UNL     1      44.100   2.132   9.600  0.00  0.00    +0.000 NA
ATOM     27  C   UNL     1      44.732   2.337   8.492  0.00  0.00    +0.000 A 
ATOM     28  N   UNL     1      45.459   3.465   8.205  0.00  0.00    +0.000 N 
ATOM     29  C   UNL     1      45.576   4.521   9.077  0.00  0.00    +0.000 A 
ATOM     30  O   UNL     1      46.178   5.545   8.769  0.00  0.00    +0.000 OA
ATOM     31  C   UNL     1      44.909   4.328  10.348  0.00  0.00    +0.000 A 
ATOM     32  H   UNL     1      45.913   3.569   7.309  0.00  0.00    +0.000 HD
ENDBRANCH  19  22
ENDBRANCH   2  18
TORSDOF 5
ENDMDL
MODEL 8
REMARK VINA RESULT:    -6.268      3.616      5.400
REMARK INTER + INTRA:          -9.480
REMARK INTER:                  -8.737
REMARK INTRA:                  -0.742
REMARK UNBOUND:                -1.379
REMARK  Name = 
REMARK  8 active torsions:
REMARK  status: ('A' for Active; 'I' for Inactive)
REMARK    1  A    between atoms: C_1  and  C_2
REMARK    2  A    between atoms: C_2  and  N_3
REMARK    3  A    between atoms: C_2  and  C_16
REMARK    4  A    between atoms: C_4  and  C_6
REMARK    5  A    between atoms: C_19  and  C_20
REMARK    6  A    between atoms: C_20  and  C_21
REMARK    7  A    between atoms: C_20  and  C_22
REMARK    8  A    between atoms: C_20  and  C_23
REMARK                            x       y       z     vdW  Elec       q    Type
REMARK                         _______ _______ _______ _____ _____    ______ ____
ROOT
ATOM      1  C   UNL     1      47.203   2.528  17.773  0.00  0.00    +0.000 C 
ATOM      2  C   UNL     1      48.107   3.767  17.746  0.00  0.00    +0.000 C 
ENDROOT
BRANCH   2   3
ATOM      3  C   UNL     1      47.898   4.531  16.446  0.00  0.00    +0.000 A 
ATOM      4  C   UNL     1      47.104   4.011  15.419  0.00  0.00    +0.000 A 
ATOM      5  C   UNL     1      46.875   4.748  14.247  0.00  0.00    +0.000 A 
ATOM      6  C   UNL     1      47.427   6.030  14.058  0.00  0.00    +0.000 A 
ATOM      7  C   UNL     1      48.269   6.512  15.076  0.00  0.00    +0.000 A 
ATOM      8  C   UNL     1      48.483   5.789  16.252  0.00  0.00    +0.000 A 
BRANCH   6   9
ATOM      9  C   UNL     1      47.147   6.881  12.790  0.00  0.00    +0.000 C 
ATOM     10  C   UNL     1      46.845   8.366  13.140  0.00  0.00    +0.000 C 
ATOM     11  C   UNL     1      48.446   6.962  11.929  0.00  0.00    +0.000 C 
BRANCH   9  12
ATOM     12  C   UNL     1      45.949   6.307  12.002  0.00  0.00    +0.000 A 
ATOM     13  C   UNL     1      44.639   6.458  12.487  0.00  0.00    +0.000 A 
ATOM     14  C   UNL     1      43.574   5.930  11.770  0.00  0.00    +0.000 A 
ATOM     15  N   UNL     1      43.706   5.270  10.604  0.00  0.00    +0.000 NA
ATOM     16  C   UNL     1      44.962   5.129  10.141  0.00  0.00    +0.000 A 
ATOM     17  C   UNL     1      46.091   5.619  10.787  0.00  0.00    +0.000 A 
ENDBRANCH   9  12
ENDBRANCH   6   9
ENDBRANCH   2   3
BRANCH   2  18
ATOM     18  N   UNL     1      49.522   3.443  17.882  0.00  0.00    +0.000 N 
ATOM     19  C   UNL     1      50.141   2.452  17.163  0.00  0.00    +0.000 C 
ATOM     20  O   UNL     1      49.562   1.798  16.299  0.00  0.00    +0.000 OA
ATOM     21  H   UNL     1      49.952   3.724  18.759  0.00  0.00    +0.000 HD
BRANCH  19  22
ATOM     22  C   UNL     1      51.571   2.249  17.425  0.00  0.00    +0.000 A 
ATOM     23  C   UNL     1      52.073   0.959  17.523  0.00  0.00    +0.000 A 
ATOM     24  S   UNL     1      53.748   0.895  17.832  0.00  0.00    +0.000 S 
ATOM     25  C   UNL     1      53.857   2.592  17.886  0.00  0.00    +0.000 A 
ATOM     26  N   UNL     1      55.037   3.209  18.157  0.00  0.00    +0.000 NA
ATOM     27  C   UNL     1      54.968   4.499  18.194  0.00  0.00    +0.000 A 
ATOM     28  N   UNL     1      53.827   5.227  17.970  0.00  0.00    +0.000 N 
ATOM     29  C   UNL     1      52.620   4.647  17.658  0.00  0.00    +0.000 A 
ATOM     30  O   UNL     1      51.629   5.324  17.398  0.00  0.00    +0.000 OA
ATOM     31  C   UNL     1      52.637   3.200  17.634  0.00  0.00    +0.000 A 
ATOM     32  H   UNL     1      53.847   6.236  17.995  0.00  0.00    +0.000 HD
ENDBRANCH  19  22
ENDBRANCH   2  18
TORSDOF 5
ENDMDL
MODEL 9
REMARK VINA RESULT:    -6.153      3.494      9.477
REMARK INTER + INTRA:          -9.330
REMARK INTER:                  -7.881
REMARK INTRA:                  -1.450
REMARK UNBOUND:                -1.379
REMARK  Name = 
REMARK  8 active torsions:
REMARK  status: ('A' for Active; 'I' for Inactive)
REMARK    1  A    between atoms: C_1  and  C_2
REMARK    2  A    between atoms: C_2  and  N_3
REMARK    3  A    between atoms: C_2  and  C_16
REMARK    4  A    between atoms: C_4  and  C_6
REMARK    5  A    between atoms: C_19  and  C_20
REMARK    6  A    between atoms: C_20  and  C_21
REMARK    7  A    between atoms: C_20  and  C_22
REMARK    8  A    between atoms: C_20  and  C_23
REMARK                            x       y       z     vdW  Elec       q    Type
REMARK                         _______ _______ _______ _____ _____    ______ ____
ROOT
ATOM      1  C   UNL     1      47.177   2.927  17.371  0.00  0.00    +0.000 C 
ATOM      2  C   UNL     1      47.633   4.112  16.510  0.00  0.00    +0.000 C 
ENDROOT
BRANCH   2   3
ATOM      3  C   UNL     1      47.898   5.322  17.395  0.00  0.00    +0.000 A 
ATOM      4  C   UNL     1      48.669   6.396  16.941  0.00  0.00    +0.000 A 
ATOM      5  C   UNL     1      48.862   7.530  17.747  0.00  0.00    +0.000 A 
ATOM      6  C   UNL     1      48.293   7.633  19.030  0.00  0.00    +0.000 A 
ATOM      7  C   UNL     1      47.570   6.518  19.492  0.00  0.00    +0.000 A 
ATOM      8  C   UNL     1      47.360   5.397  18.686  0.00  0.00    +0.000 A 
BRANCH   6   9
ATOM      9  C   UNL     1      48.455   8.896  19.917  0.00  0.00    +0.000 C 
ATOM     10  C   UNL     1      47.986  10.187  19.186  0.00  0.00    +0.000 C 
ATOM     11  C   UNL     1      47.490   8.794  21.139  0.00  0.00    +0.000 C 
BRANCH   9  12
ATOM     12  C   UNL     1      49.929   9.079  20.341  0.00  0.00    +0.000 A 
ATOM     13  C   UNL     1      50.697   7.972  20.740  0.00  0.00    +0.000 A 
ATOM     14  C   UNL     1      52.019   8.154  21.125  0.00  0.00    +0.000 A 
ATOM     15  N   UNL     1      52.641   9.348  21.138  0.00  0.00    +0.000 NA
ATOM     16  C   UNL     1      51.903  10.406  20.753  0.00  0.00    +0.000 A 
ATOM     17  C   UNL     1      50.574  10.325  20.354  0.00  0.00    +0.000 A 
ENDBRANCH   9  12
ENDBRANCH   6   9
ENDBRANCH   2   3
BRANCH   2  18
ATOM     18  N   UNL     1      46.661   4.479  15.487  0.00  0.00    +0.000 N 
ATOM     19  C   UNL     1      46.731   4.043  14.188  0.00  0.00    +0.000 C 
ATOM     20  O   UNL     1      47.588   3.254  13.799  0.00  0.00    +0.000 OA
ATOM     21  H   UNL     1      46.140   5.334  15.667  0.00  0.00    +0.000 HD
BRANCH  19  22
ATOM     22  C   UNL     1      45.676   4.513  13.282  0.00  0.00    +0.000 A 
ATOM     23  C   UNL     1      44.735   3.613  12.802  0.00  0.00    +0.000 A 
ATOM     24  S   UNL     1      43.583   4.315  11.761  0.00  0.00    +0.000 S 
ATOM     25  C   UNL     1      44.324   5.841  11.882  0.00  0.00    +0.000 A 
ATOM     26  N   UNL     1      43.848   6.908  11.187  0.00  0.00    +0.000 NA
ATOM     27  C   UNL     1      44.524   7.997  11.351  0.00  0.00    +0.000 A 
ATOM     28  N   UNL     1      45.625   8.117  12.160  0.00  0.00    +0.000 N 
ATOM     29  C   UNL     1      46.121   7.075  12.909  0.00  0.00    +0.000 A 
ATOM     30  O   UNL     1      47.068   7.227  13.674  0.00  0.00    +0.000 OA
ATOM     31  C   UNL     1      45.415   5.823  12.736  0.00  0.00    +0.000 A 
ATOM     32  H   UNL     1      46.097   9.005  12.259  0.00  0.00    +0.000 HD
ENDBRANCH  19  22
ENDBRANCH   2  18
TORSDOF 5
ENDMDL
