MODEL 1
REMARK VINA RESULT:    -8.162      0.000      0.000
REMARK INTER + INTRA:         -13.452
REMARK INTER:                 -11.979
REMARK INTRA:                  -1.474
REMARK UNBOUND:                -1.474
REMARK  Name = 
REMARK  9 active torsions:
REMARK  status: ('A' for Active; 'I' for Inactive)
REMARK    1  A    between atoms: C_1  and  O_2
REMARK    2  A    between atoms: O_2  and  C_3
REMARK    3  A    between atoms: C_10  and  C_11
REMARK    4  A    between atoms: N_13  and  C_14
REMARK    5  A    between atoms: C_14  and  C_15
REMARK    6  A    between atoms: C_18  and  C_19
REMARK    7  A    between atoms: C_19  and  O_20
REMARK    8  A    between atoms: O_20  and  C_21
REMARK    9  A    between atoms: C_21  and  C_22
REMARK                            x       y       z     vdW  Elec       q    Type
REMARK                         _______ _______ _______ _____ _____    ______ ____
ROOT
ATOM      1  C   UNL     1      48.417   6.580  13.405  0.00  0.00    +0.000 C 
ENDROOT
BRANCH   1   2
ATOM      2  C   UNL     1      47.074   6.210  12.836  0.00  0.00    +0.000 A 
ATOM      3  C   UNL     1      46.609   6.801  11.653  0.00  0.00    +0.000 A 
ATOM      4  C   UNL     1      45.390   6.408  11.093  0.00  0.00    +0.000 A 
ATOM      5  C   UNL     1      44.605   5.422  11.709  0.00  0.00    +0.000 A 
ATOM      6  C   UNL     1      45.048   4.868  12.917  0.00  0.00    +0.000 A 
ATOM      7  C   UNL     1      46.266   5.261  13.477  0.00  0.00    +0.000 A 
BRANCH   5   8
ATOM      8  C   UNL     1      43.316   4.960  11.074  0.00  0.00    +0.000 C 
BRANCH   8   9
ATOM      9  O   UNL     1      43.608   4.397   9.797  0.00  0.00    +0.000 OA
BRANCH   9  10
ATOM     10  C   UNL     1      44.114   3.067   9.907  0.00  0.00    +0.000 C 
BRANCH  10  11
ATOM     11  C   UNL     1      45.158   2.809   8.845  0.00  0.00    +0.000 A 
ATOM     12  C   UNL     1      45.696   3.854   8.076  0.00  0.00    +0.000 A 
ATOM     13  C   UNL     1      46.690   3.607   7.125  0.00  0.00    +0.000 A 
ATOM     14  C   UNL     1      47.168   2.314   6.936  0.00  0.00    +0.000 A 
ATOM     15  C   UNL     1      46.649   1.279   7.705  0.00  0.00    +0.000 A 
ATOM     16  F   UNL     1      47.113   0.033   7.533  0.00  0.00    +0.000 F 
ATOM     17  C   UNL     1      45.659   1.512   8.654  0.00  0.00    +0.000 A 
ENDBRANCH  10  11
ENDBRANCH   9  10
ENDBRANCH   8   9
ENDBRANCH   5   8
ENDBRANCH   1   2
BRANCH   1  20
ATOM     18  C   UNL     1      49.425   7.156  15.557  0.00  0.00    +0.000 C 
ATOM     19  O   UNL     1      50.378   7.685  14.986  0.00  0.00    +0.000 OA
ATOM     20  N   UNL     1      48.413   6.572  14.846  0.00  0.00    +0.000 N 
ATOM     21  H   UNL     1      47.654   6.101  15.319  0.00  0.00    +0.000 HD
BRANCH  18  29
ATOM     22  C   UNL     1      48.940   4.656  17.886  0.00  0.00    +0.000 A 
ATOM     23  N   UNL     1      48.703   3.913  18.989  0.00  0.00    +0.000 NA
ATOM     24  C   UNL     1      48.656   4.534  20.170  0.00  0.00    +0.000 A 
ATOM     25  N   UNL     1      48.823   5.832  20.399  0.00  0.00    +0.000 NA
ATOM     26  C   UNL     1      49.043   6.538  19.278  0.00  0.00    +0.000 A 
ATOM     27  S   UNL     1      49.286   8.214  19.386  0.00  0.00    +0.000 S 
ATOM     28  C   UNL     1      49.456   8.347  17.703  0.00  0.00    +0.000 A 
ATOM     29  C   UNL     1      49.333   7.138  17.026  0.00  0.00    +0.000 A 
ATOM     30  C   UNL     1      49.108   6.050  17.975  0.00  0.00    +0.000 A 
BRANCH  22  32
ATOM     31  C   UNL     1      47.885   3.244  16.331  0.00  0.00    +0.000 C 
ATOM     32  O   UNL     1      49.040   4.010  16.670  0.00  0.00    +0.000 OA
ENDBRANCH  22  32
ENDBRANCH  18  29
ENDBRANCH   1  20
TORSDOF 8
ENDMDL
MODEL 2
REMARK VINA RESULT:    -7.874      1.726      2.846
REMARK INTER + INTRA:         -13.030
REMARK INTER:                 -11.782
REMARK INTRA:                  -1.248
REMARK UNBOUND:                -1.474
REMARK  Name = 
REMARK  9 active torsions:
REMARK  status: ('A' for Active; 'I' for Inactive)
REMARK    1  A    between atoms: C_1  and  O_2
REMARK    2  A    between atoms: O_2  and  C_3
REMARK    3  A    between atoms: C_10  and  C_11
REMARK    4  A    between atoms: N_13  and  C_14
REMARK    5  A    between atoms: C_14  and  C_15
REMARK    6  A    between atoms: C_18  and  C_19
REMARK    7  A    between atoms: C_19  and  O_20
REMARK    8  A    between atoms: O_20  and  C_21
REMARK    9  A    between atoms: C_21  and  C_22
REMARK                            x       y       z     vdW  Elec       q    Type
REMARK                         _______ _______ _______ _____ _____    ______ ____
ROOT
ATOM      1  C   UNL     1      48.600   6.688  14.140  0.00  0.00    +0.000 C 
ENDROOT
BRANCH   1   2
ATOM      2  C   UNL     1      47.440   6.226  13.301  0.00  0.00    +0.000 A 
ATOM      3  C   UNL     1      46.591   5.205  13.751  0.00  0.00    +0.000 A 
ATOM      4  C   UNL     1      45.477   4.824  12.998  0.00  0.00    +0.000 A 
ATOM      5  C   UNL     1      45.192   5.449  11.775  0.00  0.00    +0.000 A 
ATOM      6  C   UNL     1      46.068   6.435  11.304  0.00  0.00    +0.000 A 
ATOM      7  C   UNL     1      47.183   6.816  12.057  0.00  0.00    +0.000 A 
BRANCH   5   8
ATOM      8  C   UNL     1      43.959   5.073  10.991  0.00  0.00    +0.000 C 
BRANCH   8   9
ATOM      9  O   UNL     1      44.353   4.661   9.683  0.00  0.00    +0.000 OA
BRANCH   9  10
ATOM     10  C   UNL     1      44.294   3.243   9.533  0.00  0.00    +0.000 C 
BRANCH  10  11
ATOM     11  C   UNL     1      45.355   2.770   8.566  0.00  0.00    +0.000 A 
ATOM     12  C   UNL     1      46.067   3.672   7.758  0.00  0.00    +0.000 A 
ATOM     13  C   UNL     1      47.073   3.225   6.897  0.00  0.00    +0.000 A 
ATOM     14  C   UNL     1      47.390   1.871   6.840  0.00  0.00    +0.000 A 
ATOM     15  C   UNL     1      46.699   0.976   7.648  0.00  0.00    +0.000 A 
ATOM     16  F   UNL     1      47.007  -0.327   7.603  0.00  0.00    +0.000 F 
ATOM     17  C   UNL     1      45.694   1.410   8.509  0.00  0.00    +0.000 A 
ENDBRANCH  10  11
ENDBRANCH   9  10
ENDBRANCH   8   9
ENDBRANCH   5   8
ENDBRANCH   1   2
BRANCH   1  20
ATOM     18  C   UNL     1      48.748   6.165  16.524  0.00  0.00    +0.000 C 
ATOM     19  O   UNL     1      49.548   5.260  16.292  0.00  0.00    +0.000 OA
ATOM     20  N   UNL     1      48.219   6.916  15.510  0.00  0.00    +0.000 N 
ATOM     21  H   UNL     1      47.529   7.629  15.702  0.00  0.00    +0.000 HD
BRANCH  18  29
ATOM     22  C   UNL     1      47.812   9.075  18.127  0.00  0.00    +0.000 A 
ATOM     23  N   UNL     1      47.481  10.044  19.008  0.00  0.00    +0.000 NA
ATOM     24  C   UNL     1      47.277   9.697  20.280  0.00  0.00    +0.000 A 
ATOM     25  N   UNL     1      47.357   8.477  20.800  0.00  0.00    +0.000 NA
ATOM     26  C   UNL     1      47.701   7.544  19.898  0.00  0.00    +0.000 A 
ATOM     27  S   UNL     1      47.844   5.926  20.388  0.00  0.00    +0.000 S 
ATOM     28  C   UNL     1      48.284   5.440  18.823  0.00  0.00    +0.000 A 
ATOM     29  C   UNL     1      48.335   6.481  17.902  0.00  0.00    +0.000 A 
ATOM     30  C   UNL     1      47.962   7.739  18.543  0.00  0.00    +0.000 A 
BRANCH  22  32
ATOM     31  C   UNL     1      48.869  10.517  16.601  0.00  0.00    +0.000 C 
ATOM     32  O   UNL     1      47.974   9.423  16.801  0.00  0.00    +0.000 OA
ENDBRANCH  22  32
ENDBRANCH  18  29
ENDBRANCH   1  20
TORSDOF 8
ENDMDL
MODEL 3
REMARK VINA RESULT:    -7.696      1.757      3.256
REMARK INTER + INTRA:         -12.769
REMARK INTER:                 -11.271
REMARK INTRA:                  -1.498
REMARK UNBOUND:                -1.474
REMARK  Name = 
REMARK  9 active torsions:
REMARK  status: ('A' for Active; 'I' for Inactive)
REMARK    1  A    between atoms: C_1  and  O_2
REMARK    2  A    between atoms: O_2  and  C_3
REMARK    3  A    between atoms: C_10  and  C_11
REMARK    4  A    between atoms: N_13  and  C_14
REMARK    5  A    between atoms: C_14  and  C_15
REMARK    6  A    between atoms: C_18  and  C_19
REMARK    7  A    between atoms: C_19  and  O_20
REMARK    8  A    between atoms: O_20  and  C_21
REMARK    9  A    between atoms: C_21  and  C_22
REMARK                            x       y       z     vdW  Elec       q    Type
REMARK                         _______ _______ _______ _____ _____    ______ ____
ROOT
ATOM      1  C   UNL     1      47.504   4.144  14.998  0.00  0.00    +0.000 C 
ENDROOT
BRANCH   1   2
ATOM      2  C   UNL     1      46.588   4.310  13.816  0.00  0.00    +0.000 A 
ATOM      3  C   UNL     1      46.105   3.193  13.121  0.00  0.00    +0.000 A 
ATOM      4  C   UNL     1      45.204   3.348  12.064  0.00  0.00    +0.000 A 
ATOM      5  C   UNL     1      44.773   4.624  11.672  0.00  0.00    +0.000 A 
ATOM      6  C   UNL     1      45.296   5.742  12.336  0.00  0.00    +0.000 A 
ATOM      7  C   UNL     1      46.198   5.587  13.393  0.00  0.00    +0.000 A 
BRANCH   5   8
ATOM      8  C   UNL     1      43.760   4.787  10.567  0.00  0.00    +0.000 C 
BRANCH   8   9
ATOM      9  O   UNL     1      44.002   3.796   9.571  0.00  0.00    +0.000 OA
BRANCH   9  10
ATOM     10  C   UNL     1      44.814   4.297   8.509  0.00  0.00    +0.000 C 
BRANCH  10  11
ATOM     11  C   UNL     1      45.674   3.195   7.936  0.00  0.00    +0.000 A 
ATOM     12  C   UNL     1      45.711   1.915   8.515  0.00  0.00    +0.000 A 
ATOM     13  C   UNL     1      46.481   0.894   7.952  0.00  0.00    +0.000 A 
ATOM     14  C   UNL     1      47.215   1.133   6.794  0.00  0.00    +0.000 A 
ATOM     15  C   UNL     1      47.171   2.392   6.209  0.00  0.00    +0.000 A 
ATOM     16  F   UNL     1      47.870   2.624   5.089  0.00  0.00    +0.000 F 
ATOM     17  C   UNL     1      46.409   3.418   6.762  0.00  0.00    +0.000 A 
ENDBRANCH  10  11
ENDBRANCH   9  10
ENDBRANCH   8   9
ENDBRANCH   5   8
ENDBRANCH   1   2
BRANCH   1  20
ATOM     18  C   UNL     1      48.607   5.507  16.703  0.00  0.00    +0.000 C 
ATOM     19  O   UNL     1      49.404   4.599  16.935  0.00  0.00    +0.000 OA
ATOM     20  N   UNL     1      47.623   5.358  15.763  0.00  0.00    +0.000 N 
ATOM     21  H   UNL     1      46.944   6.090  15.607  0.00  0.00    +0.000 HD
BRANCH  18  29
ATOM     22  C   UNL     1      48.695   8.805  15.689  0.00  0.00    +0.000 A 
ATOM     23  N   UNL     1      48.810  10.146  15.584  0.00  0.00    +0.000 NA
ATOM     24  C   UNL     1      48.943  10.858  16.705  0.00  0.00    +0.000 A 
ATOM     25  N   UNL     1      48.971  10.393  17.949  0.00  0.00    +0.000 NA
ATOM     26  C   UNL     1      48.867   9.055  18.012  0.00  0.00    +0.000 A 
ATOM     27  S   UNL     1      48.878   8.291  19.527  0.00  0.00    +0.000 S 
ATOM     28  C   UNL     1      48.741   6.759  18.809  0.00  0.00    +0.000 A 
ATOM     29  C   UNL     1      48.685   6.790  17.420  0.00  0.00    +0.000 A 
ATOM     30  C   UNL     1      48.738   8.170  16.944  0.00  0.00    +0.000 A 
BRANCH  22  32
ATOM     31  C   UNL     1      49.724   7.665  13.909  0.00  0.00    +0.000 C 
ATOM     32  O   UNL     1      48.508   8.071  14.534  0.00  0.00    +0.000 OA
ENDBRANCH  22  32
ENDBRANCH  18  29
ENDBRANCH   1  20
TORSDOF 8
ENDMDL
MODEL 4
REMARK VINA RESULT:    -6.767      2.017      2.817
REMARK INTER + INTRA:         -11.406
REMARK INTER:                 -10.376
REMARK INTRA:                  -1.029
REMARK UNBOUND:                -1.474
REMARK  Name = 
REMARK  9 active torsions:
REMARK  status: ('A' for Active; 'I' for Inactive)
REMARK    1  A    between atoms: C_1  and  O_2
REMARK    2  A    between atoms: O_2  and  C_3
REMARK    3  A    between atoms: C_10  and  C_11
REMARK    4  A    between atoms: N_13  and  C_14
REMARK    5  A    between atoms: C_14  and  C_15
REMARK    6  A    between atoms: C_18  and  C_19
REMARK    7  A    between atoms: C_19  and  O_20
REMARK    8  A    between atoms: O_20  and  C_21
REMARK    9  A    between atoms: C_21  and  C_22
REMARK                            x       y       z     vdW  Elec       q    Type
REMARK                         _______ _______ _______ _____ _____    ______ ____
ROOT
ATOM      1  C   UNL     1      47.242   4.363  15.622  0.00  0.00    +0.000 C 
ENDROOT
BRANCH   1   2
ATOM      2  C   UNL     1      46.707   4.650  14.246  0.00  0.00    +0.000 A 
ATOM      3  C   UNL     1      47.061   5.825  13.569  0.00  0.00    +0.000 A 
ATOM      4  C   UNL     1      46.613   6.057  12.266  0.00  0.00    +0.000 A 
ATOM      5  C   UNL     1      45.794   5.124  11.613  0.00  0.00    +0.000 A 
ATOM      6  C   UNL     1      45.401   3.973  12.309  0.00  0.00    +0.000 A 
ATOM      7  C   UNL     1      45.848   3.742  13.613  0.00  0.00    +0.000 A 
BRANCH   5   8
ATOM      8  C   UNL     1      45.356   5.351  10.188  0.00  0.00    +0.000 C 
BRANCH   8   9
ATOM      9  O   UNL     1      44.636   4.205   9.739  0.00  0.00    +0.000 OA
BRANCH   9  10
ATOM     10  C   UNL     1      44.596   4.128   8.314  0.00  0.00    +0.000 C 
BRANCH  10  11
ATOM     11  C   UNL     1      45.586   3.103   7.812  0.00  0.00    +0.000 A 
ATOM     12  C   UNL     1      45.741   1.859   8.449  0.00  0.00    +0.000 A 
ATOM     13  C   UNL     1      46.632   0.905   7.950  0.00  0.00    +0.000 A 
ATOM     14  C   UNL     1      47.372   1.174   6.802  0.00  0.00    +0.000 A 
ATOM     15  C   UNL     1      47.210   2.396   6.160  0.00  0.00    +0.000 A 
ATOM     16  F   UNL     1      47.913   2.655   5.049  0.00  0.00    +0.000 F 
ATOM     17  C   UNL     1      46.327   3.355   6.648  0.00  0.00    +0.000 A 
ENDBRANCH  10  11
ENDBRANCH   9  10
ENDBRANCH   8   9
ENDBRANCH   5   8
ENDBRANCH   1   2
BRANCH   1  20
ATOM     18  C   UNL     1      48.340   5.494  17.492  0.00  0.00    +0.000 C 
ATOM     19  O   UNL     1      48.188   4.501  18.201  0.00  0.00    +0.000 OA
ATOM     20  N   UNL     1      47.889   5.513  16.200  0.00  0.00    +0.000 N 
ATOM     21  H   UNL     1      47.976   6.347  15.635  0.00  0.00    +0.000 HD
BRANCH  18  29
ATOM     22  C   UNL     1      51.654   6.360  17.916  0.00  0.00    +0.000 A 
ATOM     23  N   UNL     1      52.833   6.930  18.247  0.00  0.00    +0.000 NA
ATOM     24  C   UNL     1      52.814   8.140  18.810  0.00  0.00    +0.000 A 
ATOM     25  N   UNL     1      51.743   8.876  19.088  0.00  0.00    +0.000 NA
ATOM     26  C   UNL     1      50.590   8.271  18.757  0.00  0.00    +0.000 A 
ATOM     27  S   UNL     1      49.121   9.073  19.036  0.00  0.00    +0.000 S 
ATOM     28  C   UNL     1      48.234   7.761  18.425  0.00  0.00    +0.000 A 
ATOM     29  C   UNL     1      49.021   6.696  18.000  0.00  0.00    +0.000 A 
ATOM     30  C   UNL     1      50.436   7.013  18.179  0.00  0.00    +0.000 A 
BRANCH  22  32
ATOM     31  C   UNL     1      51.938   4.041  18.170  0.00  0.00    +0.000 C 
ATOM     32  O   UNL     1      51.675   5.131  17.288  0.00  0.00    +0.000 OA
ENDBRANCH  22  32
ENDBRANCH  18  29
ENDBRANCH   1  20
TORSDOF 8
ENDMDL
MODEL 5
REMARK VINA RESULT:    -6.727      3.561      5.438
REMARK INTER + INTRA:         -11.346
REMARK INTER:                  -9.852
REMARK INTRA:                  -1.494
REMARK UNBOUND:                -1.474
REMARK  Name = 
REMARK  9 active torsions:
REMARK  status: ('A' for Active; 'I' for Inactive)
REMARK    1  A    between atoms: C_1  and  O_2
REMARK    2  A    between atoms: O_2  and  C_3
REMARK    3  A    between atoms: C_10  and  C_11
REMARK    4  A    between atoms: N_13  and  C_14
REMARK    5  A    between atoms: C_14  and  C_15
REMARK    6  A    between atoms: C_18  and  C_19
REMARK    7  A    between atoms: C_19  and  O_20
REMARK    8  A    between atoms: O_20  and  C_21
REMARK    9  A    between atoms: C_21  and  C_22
REMARK                            x       y       z     vdW  Elec       q    Type
REMARK                         _______ _______ _______ _____ _____    ______ ____
ROOT
ATOM      1  C   UNL     1      48.124   3.262  17.775  0.00  0.00    +0.000 C 
ENDROOT
BRANCH   1   2
ATOM      2  C   UNL     1      47.949   4.199  16.611  0.00  0.00    +0.000 A 
ATOM      3  C   UNL     1      48.589   5.446  16.590  0.00  0.00    +0.000 A 
ATOM      4  C   UNL     1      48.475   6.286  15.479  0.00  0.00    +0.000 A 
ATOM      5  C   UNL     1      47.710   5.902  14.368  0.00  0.00    +0.000 A 
ATOM      6  C   UNL     1      47.031   4.678  14.411  0.00  0.00    +0.000 A 
ATOM      7  C   UNL     1      47.144   3.838  15.522  0.00  0.00    +0.000 A 
BRANCH   5   8
ATOM      8  C   UNL     1      47.632   6.786  13.148  0.00  0.00    +0.000 C 
BRANCH   8   9
ATOM      9  O   UNL     1      46.311   7.313  13.045  0.00  0.00    +0.000 OA
BRANCH   9  10
ATOM     10  C   UNL     1      45.738   7.062  11.763  0.00  0.00    +0.000 C 
BRANCH  10  11
ATOM     11  C   UNL     1      44.900   5.805  11.795  0.00  0.00    +0.000 A 
ATOM     12  C   UNL     1      44.068   5.506  12.887  0.00  0.00    +0.000 A 
ATOM     13  C   UNL     1      43.268   4.359  12.888  0.00  0.00    +0.000 A 
ATOM     14  C   UNL     1      43.279   3.501  11.792  0.00  0.00    +0.000 A 
ATOM     15  C   UNL     1      44.089   3.801  10.703  0.00  0.00    +0.000 A 
ATOM     16  F   UNL     1      44.096   2.982   9.641  0.00  0.00    +0.000 F 
ATOM     17  C   UNL     1      44.891   4.939  10.692  0.00  0.00    +0.000 A 
ENDBRANCH  10  11
ENDBRANCH   9  10
ENDBRANCH   8   9
ENDBRANCH   5   8
ENDBRANCH   1   2
BRANCH   1  20
ATOM     18  C   UNL     1      50.273   2.227  17.235  0.00  0.00    +0.000 C 
ATOM     19  O   UNL     1      49.785   1.698  16.238  0.00  0.00    +0.000 OA
ATOM     20  N   UNL     1      49.514   3.011  18.060  0.00  0.00    +0.000 N 
ATOM     21  H   UNL     1      49.908   3.408  18.902  0.00  0.00    +0.000 HD
BRANCH  18  29
ATOM     22  C   UNL     1      52.821   4.397  18.079  0.00  0.00    +0.000 A 
ATOM     23  N   UNL     1      53.996   5.000  18.362  0.00  0.00    +0.000 NA
ATOM     24  C   UNL     1      55.081   4.236  18.500  0.00  0.00    +0.000 A 
ATOM     25  N   UNL     1      55.146   2.913  18.394  0.00  0.00    +0.000 NA
ATOM     26  C   UNL     1      53.962   2.351  18.100  0.00  0.00    +0.000 A 
ATOM     27  S   UNL     1      53.861   0.665  17.936  0.00  0.00    +0.000 S 
ATOM     28  C   UNL     1      52.204   0.751  17.578  0.00  0.00    +0.000 A 
ATOM     29  C   UNL     1      51.694   2.046  17.574  0.00  0.00    +0.000 A 
ATOM     30  C   UNL     1      52.746   3.002  17.911  0.00  0.00    +0.000 A 
BRANCH  22  32
ATOM     31  C   UNL     1      51.367   5.869  19.194  0.00  0.00    +0.000 C 
ATOM     32  O   UNL     1      51.688   5.181  17.986  0.00  0.00    +0.000 OA
ENDBRANCH  22  32
ENDBRANCH  18  29
ENDBRANCH   1  20
TORSDOF 8
ENDMDL
MODEL 6
REMARK VINA RESULT:    -6.665      4.225      8.319
REMARK INTER + INTRA:         -11.255
REMARK INTER:                  -9.389
REMARK INTRA:                  -1.866
REMARK UNBOUND:                -1.474
REMARK  Name = 
REMARK  9 active torsions:
REMARK  status: ('A' for Active; 'I' for Inactive)
REMARK    1  A    between atoms: C_1  and  O_2
REMARK    2  A    between atoms: O_2  and  C_3
REMARK    3  A    between atoms: C_10  and  C_11
REMARK    4  A    between atoms: N_13  and  C_14
REMARK    5  A    between atoms: C_14  and  C_15
REMARK    6  A    between atoms: C_18  and  C_19
REMARK    7  A    between atoms: C_19  and  O_20
REMARK    8  A    between atoms: O_20  and  C_21
REMARK    9  A    between atoms: C_21  and  C_22
REMARK                            x       y       z     vdW  Elec       q    Type
REMARK                         _______ _______ _______ _____ _____    ______ ____
ROOT
ATOM      1  C   UNL     1      48.195   7.982  11.978  0.00  0.00    +0.000 C 
ENDROOT
BRANCH   1   2
ATOM      2  C   UNL     1      48.389   7.881  13.466  0.00  0.00    +0.000 A 
ATOM      3  C   UNL     1      48.978   6.744  14.037  0.00  0.00    +0.000 A 
ATOM      4  C   UNL     1      49.216   6.680  15.412  0.00  0.00    +0.000 A 
ATOM      5  C   UNL     1      48.861   7.748  16.250  0.00  0.00    +0.000 A 
ATOM      6  C   UNL     1      48.228   8.863  15.685  0.00  0.00    +0.000 A 
ATOM      7  C   UNL     1      47.990   8.926  14.309  0.00  0.00    +0.000 A 
BRANCH   5   8
ATOM      8  C   UNL     1      49.167   7.700  17.726  0.00  0.00    +0.000 C 
BRANCH   8   9
ATOM      9  O   UNL     1      48.031   7.183  18.416  0.00  0.00    +0.000 OA
BRANCH   9  10
ATOM     10  C   UNL     1      48.373   6.071  19.242  0.00  0.00    +0.000 C 
BRANCH  10  11
ATOM     11  C   UNL     1      48.480   4.810  18.416  0.00  0.00    +0.000 A 
ATOM     12  C   UNL     1      47.366   4.273  17.749  0.00  0.00    +0.000 A 
ATOM     13  C   UNL     1      47.487   3.128  16.956  0.00  0.00    +0.000 A 
ATOM     14  C   UNL     1      48.726   2.511  16.808  0.00  0.00    +0.000 A 
ATOM     15  C   UNL     1      49.834   3.047  17.453  0.00  0.00    +0.000 A 
ATOM     16  F   UNL     1      51.030   2.462  17.306  0.00  0.00    +0.000 F 
ATOM     17  C   UNL     1      49.725   4.186  18.246  0.00  0.00    +0.000 A 
ENDBRANCH  10  11
ENDBRANCH   9  10
ENDBRANCH   8   9
ENDBRANCH   5   8
ENDBRANCH   1   2
BRANCH   1  20
ATOM     18  C   UNL     1      46.167   6.857  11.202  0.00  0.00    +0.000 C 
ATOM     19  O   UNL     1      45.497   7.857  11.456  0.00  0.00    +0.000 OA
ATOM     20  N   UNL     1      47.514   6.831  11.443  0.00  0.00    +0.000 N 
ATOM     21  H   UNL     1      48.053   5.993  11.274  0.00  0.00    +0.000 HD
BRANCH  18  29
ATOM     22  C   UNL     1      44.352   4.235  12.523  0.00  0.00    +0.000 A 
ATOM     23  N   UNL     1      43.694   3.082  12.766  0.00  0.00    +0.000 NA
ATOM     24  C   UNL     1      43.458   2.261  11.740  0.00  0.00    +0.000 A 
ATOM     25  N   UNL     1      43.799   2.450  10.470  0.00  0.00    +0.000 NA
ATOM     26  C   UNL     1      44.463   3.601  10.270  0.00  0.00    +0.000 A 
ATOM     27  S   UNL     1      44.969   4.008   8.702  0.00  0.00    +0.000 S 
ATOM     28  C   UNL     1      45.677   5.449   9.253  0.00  0.00    +0.000 A 
ATOM     29  C   UNL     1      45.549   5.653  10.623  0.00  0.00    +0.000 A 
ATOM     30  C   UNL     1      44.800   4.555  11.228  0.00  0.00    +0.000 A 
BRANCH  22  32
ATOM     31  C   UNL     1      45.838   4.990  14.180  0.00  0.00    +0.000 C 
ATOM     32  O   UNL     1      44.552   5.109  13.574  0.00  0.00    +0.000 OA
ENDBRANCH  22  32
ENDBRANCH  18  29
ENDBRANCH   1  20
TORSDOF 8
ENDMDL
MODEL 7
REMARK VINA RESULT:    -6.594      4.238      8.986
REMARK INTER + INTRA:         -11.152
REMARK INTER:                  -9.817
REMARK INTRA:                  -1.334
REMARK UNBOUND:                -1.474
REMARK  Name = 
REMARK  9 active torsions:
REMARK  status: ('A' for Active; 'I' for Inactive)
REMARK    1  A    between atoms: C_1  and  O_2
REMARK    2  A    between atoms: O_2  and  C_3
REMARK    3  A    between atoms: C_10  and  C_11
REMARK    4  A    between atoms: N_13  and  C_14
REMARK    5  A    between atoms: C_14  and  C_15
REMARK    6  A    between atoms: C_18  and  C_19
REMARK    7  A    between atoms: C_19  and  O_20
REMARK    8  A    between atoms: O_20  and  C_21
REMARK    9  A    between atoms: C_21  and  C_22
REMARK                            x       y       z     vdW  Elec       q    Type
REMARK                         _______ _______ _______ _____ _____    ______ ____
ROOT
ATOM      1  C   UNL     1      47.244   3.312  16.751  0.00  0.00    +0.000 C 
ENDROOT
BRANCH   1   2
ATOM      2  C   UNL     1      48.724   3.304  17.023  0.00  0.00    +0.000 A 
ATOM      3  C   UNL     1      49.380   4.466  17.455  0.00  0.00    +0.000 A 
ATOM      4  C   UNL     1      50.741   4.439  17.769  0.00  0.00    +0.000 A 
ATOM      5  C   UNL     1      51.480   3.253  17.648  0.00  0.00    +0.000 A 
ATOM      6  C   UNL     1      50.834   2.105  17.169  0.00  0.00    +0.000 A 
ATOM      7  C   UNL     1      49.473   2.132  16.855  0.00  0.00    +0.000 A 
BRANCH   5   8
ATOM      8  C   UNL     1      52.937   3.213  18.038  0.00  0.00    +0.000 C 
BRANCH   8   9
ATOM      9  O   UNL     1      53.407   4.550  18.200  0.00  0.00    +0.000 OA
BRANCH   9  10
ATOM     10  C   UNL     1      54.548   4.813  17.384  0.00  0.00    +0.000 C 
BRANCH  10  11
ATOM     11  C   UNL     1      54.232   5.878  16.360  0.00  0.00    +0.000 A 
ATOM     12  C   UNL     1      55.043   6.073  15.229  0.00  0.00    +0.000 A 
ATOM     13  C   UNL     1      54.718   7.035  14.270  0.00  0.00    +0.000 A 
ATOM     14  C   UNL     1      53.571   7.810  14.420  0.00  0.00    +0.000 A 
ATOM     15  C   UNL     1      52.758   7.611  15.529  0.00  0.00    +0.000 A 
ATOM     16  F   UNL     1      51.648   8.348  15.673  0.00  0.00    +0.000 F 
ATOM     17  C   UNL     1      53.072   6.656  16.492  0.00  0.00    +0.000 A 
ENDBRANCH  10  11
ENDBRANCH   9  10
ENDBRANCH   8   9
ENDBRANCH   5   8
ENDBRANCH   1   2
BRANCH   1  20
ATOM     18  C   UNL     1      46.868   4.237  14.519  0.00  0.00    +0.000 C 
ATOM     19  O   UNL     1      47.220   3.177  14.004  0.00  0.00    +0.000 OA
ATOM     20  N   UNL     1      46.861   4.392  15.879  0.00  0.00    +0.000 N 
ATOM     21  H   UNL     1      46.613   5.278  16.296  0.00  0.00    +0.000 HD
BRANCH  18  29
ATOM     22  C   UNL     1      44.041   4.881  12.646  0.00  0.00    +0.000 A 
ATOM     23  N   UNL     1      43.104   5.364  11.803  0.00  0.00    +0.000 NA
ATOM     24  C   UNL     1      43.319   6.552  11.233  0.00  0.00    +0.000 A 
ATOM     25  N   UNL     1      44.374   7.342  11.405  0.00  0.00    +0.000 NA
ATOM     26  C   UNL     1      45.288   6.823  12.240  0.00  0.00    +0.000 A 
ATOM     27  S   UNL     1      46.699   7.703  12.581  0.00  0.00    +0.000 S 
ATOM     28  C   UNL     1      47.281   6.471  13.593  0.00  0.00    +0.000 A 
ATOM     29  C   UNL     1      46.431   5.375  13.695  0.00  0.00    +0.000 A 
ATOM     30  C   UNL     1      45.225   5.598  12.901  0.00  0.00    +0.000 A 
BRANCH  22  32
ATOM     31  C   UNL     1      43.579   2.593  12.372  0.00  0.00    +0.000 C 
ATOM     32  O   UNL     1      43.797   3.676  13.275  0.00  0.00    +0.000 OA
ENDBRANCH  22  32
ENDBRANCH  18  29
ENDBRANCH   1  20
TORSDOF 8
ENDMDL
MODEL 8
REMARK VINA RESULT:    -6.548      4.196      9.007
REMARK INTER + INTRA:         -11.084
REMARK INTER:                  -9.031
REMARK INTRA:                  -2.053
REMARK UNBOUND:                -1.474
REMARK  Name = 
REMARK  9 active torsions:
REMARK  status: ('A' for Active; 'I' for Inactive)
REMARK    1  A    between atoms: C_1  and  O_2
REMARK    2  A    between atoms: O_2  and  C_3
REMARK    3  A    between atoms: C_10  and  C_11
REMARK    4  A    between atoms: N_13  and  C_14
REMARK    5  A    between atoms: C_14  and  C_15
REMARK    6  A    between atoms: C_18  and  C_19
REMARK    7  A    between atoms: C_19  and  O_20
REMARK    8  A    between atoms: O_20  and  C_21
REMARK    9  A    between atoms: C_21  and  C_22
REMARK                            x       y       z     vdW  Elec       q    Type
REMARK                         _______ _______ _______ _____ _____    ______ ____
ROOT
ATOM      1  C   UNL     1      47.254   3.326  16.800  0.00  0.00    +0.000 C 
ENDROOT
BRANCH   1   2
ATOM      2  C   UNL     1      48.517   3.621  17.563  0.00  0.00    +0.000 A 
ATOM      3  C   UNL     1      49.752   3.122  17.126  0.00  0.00    +0.000 A 
ATOM      4  C   UNL     1      50.931   3.451  17.799  0.00  0.00    +0.000 A 
ATOM      5  C   UNL     1      50.901   4.279  18.931  0.00  0.00    +0.000 A 
ATOM      6  C   UNL     1      49.661   4.737  19.395  0.00  0.00    +0.000 A 
ATOM      7  C   UNL     1      48.481   4.407  18.722  0.00  0.00    +0.000 A 
BRANCH   5   8
ATOM      8  C   UNL     1      52.180   4.677  19.625  0.00  0.00    +0.000 C 
BRANCH   8   9
ATOM      9  O   UNL     1      52.256   6.100  19.669  0.00  0.00    +0.000 OA
BRANCH   9  10
ATOM     10  C   UNL     1      52.817   6.639  18.473  0.00  0.00    +0.000 C 
BRANCH  10  11
ATOM     11  C   UNL     1      51.728   7.169  17.569  0.00  0.00    +0.000 A 
ATOM     12  C   UNL     1      51.640   6.783  16.221  0.00  0.00    +0.000 A 
ATOM     13  C   UNL     1      50.605   7.250  15.407  0.00  0.00    +0.000 A 
ATOM     14  C   UNL     1      49.635   8.100  15.931  0.00  0.00    +0.000 A 
ATOM     15  C   UNL     1      49.709   8.472  17.268  0.00  0.00    +0.000 A 
ATOM     16  F   UNL     1      48.772   9.283  17.779  0.00  0.00    +0.000 F 
ATOM     17  C   UNL     1      50.736   8.015  18.088  0.00  0.00    +0.000 A 
ENDBRANCH  10  11
ENDBRANCH   9  10
ENDBRANCH   8   9
ENDBRANCH   5   8
ENDBRANCH   1   2
BRANCH   1  20
ATOM     18  C   UNL     1      46.928   4.259  14.564  0.00  0.00    +0.000 C 
ATOM     19  O   UNL     1      47.299   3.204  14.053  0.00  0.00    +0.000 OA
ATOM     20  N   UNL     1      46.887   4.408  15.924  0.00  0.00    +0.000 N 
ATOM     21  H   UNL     1      46.624   5.291  16.339  0.00  0.00    +0.000 HD
BRANCH  18  29
ATOM     22  C   UNL     1      44.116   4.926  12.676  0.00  0.00    +0.000 A 
ATOM     23  N   UNL     1      43.188   5.416  11.827  0.00  0.00    +0.000 NA
ATOM     24  C   UNL     1      43.417   6.600  11.255  0.00  0.00    +0.000 A 
ATOM     25  N   UNL     1      44.479   7.380  11.430  0.00  0.00    +0.000 NA
ATOM     26  C   UNL     1      45.385   6.854  12.270  0.00  0.00    +0.000 A 
ATOM     27  S   UNL     1      46.802   7.721  12.614  0.00  0.00    +0.000 S 
ATOM     28  C   UNL     1      47.368   6.487  13.633  0.00  0.00    +0.000 A 
ATOM     29  C   UNL     1      46.506   5.400  13.735  0.00  0.00    +0.000 A 
ATOM     30  C   UNL     1      45.306   5.631  12.934  0.00  0.00    +0.000 A 
BRANCH  22  32
ATOM     31  C   UNL     1      43.574   2.654  12.408  0.00  0.00    +0.000 C 
ATOM     32  O   UNL     1      43.858   3.725  13.308  0.00  0.00    +0.000 OA
ENDBRANCH  22  32
ENDBRANCH  18  29
ENDBRANCH   1  20
TORSDOF 8
ENDMDL
