MODEL 1
REMARK VINA RESULT:    -8.313      0.000      0.000
REMARK INTER + INTRA:         -12.979
REMARK INTER:                 -12.201
REMARK INTRA:                  -0.778
REMARK UNBOUND:                -0.778
REMARK  Name = 
REMARK  9 active torsions:
REMARK  status: ('A' for Active; 'I' for Inactive)
REMARK    1  A    between atoms: C_1  and  C_2
REMARK    2  A    between atoms: C_2  and  C_3
REMARK    3  A    between atoms: C_2  and  N_10
REMARK    4  A    between atoms: C_3  and  C_4
REMARK    5  A    between atoms: N_10  and  C_11
REMARK    6  A    between atoms: C_11  and  C_12
REMARK    7  A    between atoms: C_15  and  C_16
REMARK    8  A    between atoms: C_16  and  N_17
REMARK    9  A    between atoms: C_18  and  C_20
REMARK                            x       y       z     vdW  Elec       q    Type
REMARK                         _______ _______ _______ _____ _____    ______ ____
ROOT
ATOM      1  C   UNL     1      44.512   5.712  11.619  0.00  0.00    +0.000 A 
ATOM      2  C   UNL     1      44.534   7.103  11.453  0.00  0.00    +0.000 A 
ATOM      3  C   UNL     1      45.531   7.872  12.059  0.00  0.00    +0.000 A 
ATOM      4  C   UNL     1      46.523   7.264  12.838  0.00  0.00    +0.000 A 
ATOM      5  C   UNL     1      46.465   5.882  13.055  0.00  0.00    +0.000 A 
ATOM      6  C   UNL     1      45.477   5.113  12.443  0.00  0.00    +0.000 A 
ENDROOT
BRANCH   1   7
ATOM      7  C   UNL     1      43.451   4.860  10.964  0.00  0.00    +0.000 C 
BRANCH   7   8
ATOM      8  N   UNL     1      43.523   4.899   9.501  0.00  0.00    +0.000 NA
ATOM      9  H   UNL     1      42.577   4.924   9.124  0.00  0.00    +0.000 HD
BRANCH   8  11
ATOM     10  C   UNL     1      44.378   2.621   9.976  0.00  0.00    +0.000 C 
ATOM     11  C   UNL     1      44.252   3.746   8.936  0.00  0.00    +0.000 C 
BRANCH  11  12
ATOM     12  C   UNL     1      45.650   4.208   8.439  0.00  0.00    +0.000 C 
BRANCH  12  13
ATOM     13  C   UNL     1      46.345   3.187   7.564  0.00  0.00    +0.000 A 
ATOM     14  C   UNL     1      46.522   1.865   7.984  0.00  0.00    +0.000 A 
ATOM     15  C   UNL     1      47.263   1.006   7.186  0.00  0.00    +0.000 A 
ATOM     16  N   UNL     1      47.816   1.361   6.008  0.00  0.00    +0.000 NA
ATOM     17  C   UNL     1      47.607   2.631   5.604  0.00  0.00    +0.000 A 
ATOM     18  C   UNL     1      46.888   3.566   6.333  0.00  0.00    +0.000 A 
ENDBRANCH  12  13
ENDBRANCH  11  12
ENDBRANCH   8  11
ENDBRANCH   7   8
ENDBRANCH   1   7
BRANCH   4  19
ATOM     19  C   UNL     1      47.625   8.073  13.466  0.00  0.00    +0.000 C 
BRANCH  19  20
ATOM     20  N   UNL     1      47.843   7.671  14.829  0.00  0.00    +0.000 N 
ATOM     21  C   UNL     1      49.044   7.141  15.226  0.00  0.00    +0.000 C 
ATOM     22  O   UNL     1      49.992   7.019  14.458  0.00  0.00    +0.000 OA
ATOM     23  H   UNL     1      47.019   7.527  15.403  0.00  0.00    +0.000 HD
BRANCH  21  24
ATOM     24  C   UNL     1      49.154   6.793  16.647  0.00  0.00    +0.000 A 
ATOM     25  C   UNL     1      49.637   7.730  17.549  0.00  0.00    +0.000 A 
ATOM     26  S   UNL     1      49.646   7.182  19.163  0.00  0.00    +0.000 S 
ATOM     27  C   UNL     1      49.054   5.654  18.705  0.00  0.00    +0.000 A 
ATOM     28  N   UNL     1      48.852   4.675  19.630  0.00  0.00    +0.000 NA
ATOM     29  C   UNL     1      48.425   3.561  19.142  0.00  0.00    +0.000 A 
ATOM     30  N   UNL     1      48.172   3.334  17.813  0.00  0.00    +0.000 N 
ATOM     31  C   UNL     1      48.338   4.299  16.847  0.00  0.00    +0.000 A 
ATOM     32  O   UNL     1      48.065   4.078  15.675  0.00  0.00    +0.000 OA
ATOM     33  C   UNL     1      48.831   5.569  17.342  0.00  0.00    +0.000 A 
ATOM     34  H   UNL     1      47.831   2.440  17.496  0.00  0.00    +0.000 HD
ENDBRANCH  21  24
ENDBRANCH  19  20
ENDBRANCH   4  19
TORSDOF 8
ENDMDL
MODEL 2
REMARK VINA RESULT:    -7.881      3.479      8.308
REMARK INTER + INTRA:         -12.344
REMARK INTER:                 -10.642
REMARK INTRA:                  -1.701
REMARK UNBOUND:                -0.778
REMARK  Name = 
REMARK  9 active torsions:
REMARK  status: ('A' for Active; 'I' for Inactive)
REMARK    1  A    between atoms: C_1  and  C_2
REMARK    2  A    between atoms: C_2  and  C_3
REMARK    3  A    between atoms: C_2  and  N_10
REMARK    4  A    between atoms: C_3  and  C_4
REMARK    5  A    between atoms: N_10  and  C_11
REMARK    6  A    between atoms: C_11  and  C_12
REMARK    7  A    between atoms: C_15  and  C_16
REMARK    8  A    between atoms: C_16  and  N_17
REMARK    9  A    between atoms: C_18  and  C_20
REMARK                            x       y       z     vdW  Elec       q    Type
REMARK                         _______ _______ _______ _____ _____    ______ ____
ROOT
ATOM      1  C   UNL     1      48.648   7.676  16.360  0.00  0.00    +0.000 A 
ATOM      2  C   UNL     1      48.525   8.956  15.806  0.00  0.00    +0.000 A 
ATOM      3  C   UNL     1      48.400   9.120  14.424  0.00  0.00    +0.000 A 
ATOM      4  C   UNL     1      48.392   8.008  13.574  0.00  0.00    +0.000 A 
ATOM      5  C   UNL     1      48.578   6.733  14.121  0.00  0.00    +0.000 A 
ATOM      6  C   UNL     1      48.693   6.568  15.500  0.00  0.00    +0.000 A 
ENDROOT
BRANCH   1   7
ATOM      7  C   UNL     1      48.773   7.474  17.851  0.00  0.00    +0.000 C 
BRANCH   7   8
ATOM      8  N   UNL     1      47.570   6.879  18.441  0.00  0.00    +0.000 NA
ATOM      9  H   UNL     1      47.134   7.561  19.059  0.00  0.00    +0.000 HD
BRANCH   8  11
ATOM     10  C   UNL     1      47.683   5.867  20.701  0.00  0.00    +0.000 C 
ATOM     11  C   UNL     1      47.858   5.640  19.192  0.00  0.00    +0.000 C 
BRANCH  11  12
ATOM     12  C   UNL     1      49.297   5.155  18.861  0.00  0.00    +0.000 C 
BRANCH  12  13
ATOM     13  C   UNL     1      49.330   3.919  17.988  0.00  0.00    +0.000 A 
ATOM     14  C   UNL     1      50.505   3.185  17.806  0.00  0.00    +0.000 A 
ATOM     15  C   UNL     1      50.498   2.127  16.907  0.00  0.00    +0.000 A 
ATOM     16  N   UNL     1      49.412   1.745  16.204  0.00  0.00    +0.000 NA
ATOM     17  C   UNL     1      48.278   2.445  16.417  0.00  0.00    +0.000 A 
ATOM     18  C   UNL     1      48.187   3.521  17.287  0.00  0.00    +0.000 A 
ENDBRANCH  12  13
ENDBRANCH  11  12
ENDBRANCH   8  11
ENDBRANCH   7   8
ENDBRANCH   1   7
BRANCH   4  19
ATOM     19  C   UNL     1      48.221   8.165  12.088  0.00  0.00    +0.000 C 
BRANCH  19  20
ATOM     20  N   UNL     1      47.551   7.025  11.525  0.00  0.00    +0.000 N 
ATOM     21  C   UNL     1      46.184   6.985  11.427  0.00  0.00    +0.000 C 
ATOM     22  O   UNL     1      45.475   7.922  11.775  0.00  0.00    +0.000 OA
ATOM     23  H   UNL     1      48.081   6.161  11.471  0.00  0.00    +0.000 HD
BRANCH  21  24
ATOM     24  C   UNL     1      45.618   5.779  10.812  0.00  0.00    +0.000 A 
ATOM     25  C   UNL     1      45.823   5.535   9.462  0.00  0.00    +0.000 A 
ATOM     26  S   UNL     1      45.148   4.065   8.924  0.00  0.00    +0.000 S 
ATOM     27  C   UNL     1      44.514   3.729  10.466  0.00  0.00    +0.000 A 
ATOM     28  N   UNL     1      43.783   2.602  10.693  0.00  0.00    +0.000 NA
ATOM     29  C   UNL     1      43.343   2.485  11.899  0.00  0.00    +0.000 A 
ATOM     30  N   UNL     1      43.571   3.388  12.906  0.00  0.00    +0.000 N 
ATOM     31  C   UNL     1      44.322   4.528  12.730  0.00  0.00    +0.000 A 
ATOM     32  O   UNL     1      44.542   5.293  13.659  0.00  0.00    +0.000 OA
ATOM     33  C   UNL     1      44.830   4.713  11.386  0.00  0.00    +0.000 A 
ATOM     34  H   UNL     1      43.204   3.235  13.832  0.00  0.00    +0.000 HD
ENDBRANCH  21  24
ENDBRANCH  19  20
ENDBRANCH   4  19
TORSDOF 8
ENDMDL
MODEL 3
REMARK VINA RESULT:    -7.871      3.124      8.679
REMARK INTER + INTRA:         -12.330
REMARK INTER:                 -10.565
REMARK INTRA:                  -1.765
REMARK UNBOUND:                -0.778
REMARK  Name = 
REMARK  9 active torsions:
REMARK  status: ('A' for Active; 'I' for Inactive)
REMARK    1  A    between atoms: C_1  and  C_2
REMARK    2  A    between atoms: C_2  and  C_3
REMARK    3  A    between atoms: C_2  and  N_10
REMARK    4  A    between atoms: C_3  and  C_4
REMARK    5  A    between atoms: N_10  and  C_11
REMARK    6  A    between atoms: C_11  and  C_12
REMARK    7  A    between atoms: C_15  and  C_16
REMARK    8  A    between atoms: C_16  and  N_17
REMARK    9  A    between atoms: C_18  and  C_20
REMARK                            x       y       z     vdW  Elec       q    Type
REMARK                         _______ _______ _______ _____ _____    ______ ____
ROOT
ATOM      1  C   UNL     1      49.026   7.863  16.061  0.00  0.00    +0.000 A 
ATOM      2  C   UNL     1      48.270   8.962  15.636  0.00  0.00    +0.000 A 
ATOM      3  C   UNL     1      47.692   8.975  14.364  0.00  0.00    +0.000 A 
ATOM      4  C   UNL     1      47.860   7.889  13.496  0.00  0.00    +0.000 A 
ATOM      5  C   UNL     1      48.668   6.818  13.896  0.00  0.00    +0.000 A 
ATOM      6  C   UNL     1      49.235   6.800  15.168  0.00  0.00    +0.000 A 
ENDROOT
BRANCH   1   7
ATOM      7  C   UNL     1      49.650   7.822  17.435  0.00  0.00    +0.000 C 
BRANCH   7   8
ATOM      8  N   UNL     1      48.657   7.630  18.497  0.00  0.00    +0.000 NA
ATOM      9  H   UNL     1      49.027   8.010  19.367  0.00  0.00    +0.000 HD
BRANCH   8  11
ATOM     10  C   UNL     1      47.479   6.027  19.977  0.00  0.00    +0.000 C 
ATOM     11  C   UNL     1      48.295   6.211  18.688  0.00  0.00    +0.000 C 
BRANCH  11  12
ATOM     12  C   UNL     1      49.585   5.345  18.713  0.00  0.00    +0.000 C 
BRANCH  12  13
ATOM     13  C   UNL     1      49.518   4.139  17.801  0.00  0.00    +0.000 A 
ATOM     14  C   UNL     1      48.363   3.837  17.072  0.00  0.00    +0.000 A 
ATOM     15  C   UNL     1      48.325   2.659  16.341  0.00  0.00    +0.000 A 
ATOM     16  N   UNL     1      49.349   1.783  16.271  0.00  0.00    +0.000 NA
ATOM     17  C   UNL     1      50.467   2.107  16.955  0.00  0.00    +0.000 A 
ATOM     18  C   UNL     1      50.599   3.256  17.719  0.00  0.00    +0.000 A 
ENDBRANCH  12  13
ENDBRANCH  11  12
ENDBRANCH   8  11
ENDBRANCH   7   8
ENDBRANCH   1   7
BRANCH   4  19
ATOM     19  C   UNL     1      47.215   7.871  12.138  0.00  0.00    +0.000 C 
BRANCH  19  20
ATOM     20  N   UNL     1      46.597   6.599  11.879  0.00  0.00    +0.000 N 
ATOM     21  C   UNL     1      45.245   6.496  11.681  0.00  0.00    +0.000 C 
ATOM     22  O   UNL     1      44.507   7.476  11.678  0.00  0.00    +0.000 OA
ATOM     23  H   UNL     1      47.130   5.771  12.126  0.00  0.00    +0.000 HD
BRANCH  21  24
ATOM     24  C   UNL     1      44.736   5.149  11.402  0.00  0.00    +0.000 A 
ATOM     25  C   UNL     1      43.983   4.486  12.360  0.00  0.00    +0.000 A 
ATOM     26  S   UNL     1      43.424   2.958  11.851  0.00  0.00    +0.000 S 
ATOM     27  C   UNL     1      44.214   3.107  10.352  0.00  0.00    +0.000 A 
ATOM     28  N   UNL     1      44.159   2.109   9.428  0.00  0.00    +0.000 NA
ATOM     29  C   UNL     1      44.822   2.344   8.348  0.00  0.00    +0.000 A 
ATOM     30  N   UNL     1      45.532   3.491   8.099  0.00  0.00    +0.000 N 
ATOM     31  C   UNL     1      45.596   4.536   8.992  0.00  0.00    +0.000 A 
ATOM     32  O   UNL     1      46.204   5.563   8.724  0.00  0.00    +0.000 OA
ATOM     33  C   UNL     1      44.877   4.316  10.230  0.00  0.00    +0.000 A 
ATOM     34  H   UNL     1      46.024   3.617   7.229  0.00  0.00    +0.000 HD
ENDBRANCH  21  24
ENDBRANCH  19  20
ENDBRANCH   4  19
TORSDOF 8
ENDMDL
MODEL 4
REMARK VINA RESULT:    -7.308      5.043      9.805
REMARK INTER + INTRA:         -11.504
REMARK INTER:                 -10.357
REMARK INTRA:                  -1.146
REMARK UNBOUND:                -0.778
REMARK  Name = 
REMARK  9 active torsions:
REMARK  status: ('A' for Active; 'I' for Inactive)
REMARK    1  A    between atoms: C_1  and  C_2
REMARK    2  A    between atoms: C_2  and  C_3
REMARK    3  A    between atoms: C_2  and  N_10
REMARK    4  A    between atoms: C_3  and  C_4
REMARK    5  A    between atoms: N_10  and  C_11
REMARK    6  A    between atoms: C_11  and  C_12
REMARK    7  A    between atoms: C_15  and  C_16
REMARK    8  A    between atoms: C_16  and  N_17
REMARK    9  A    between atoms: C_18  and  C_20
REMARK                            x       y       z     vdW  Elec       q    Type
REMARK                         _______ _______ _______ _____ _____    ______ ____
ROOT
ATOM      1  C   UNL     1      51.312   3.378  17.792  0.00  0.00    +0.000 A 
ATOM      2  C   UNL     1      50.560   4.552  17.923  0.00  0.00    +0.000 A 
ATOM      3  C   UNL     1      49.199   4.560  17.606  0.00  0.00    +0.000 A 
ATOM      4  C   UNL     1      48.567   3.395  17.155  0.00  0.00    +0.000 A 
ATOM      5  C   UNL     1      49.332   2.237  16.965  0.00  0.00    +0.000 A 
ATOM      6  C   UNL     1      50.686   2.226  17.290  0.00  0.00    +0.000 A 
ENDROOT
BRANCH   1   7
ATOM      7  C   UNL     1      52.781   3.343  18.140  0.00  0.00    +0.000 C 
BRANCH   7   8
ATOM      8  N   UNL     1      53.155   2.131  18.875  0.00  0.00    +0.000 NA
ATOM      9  H   UNL     1      53.134   2.331  19.874  0.00  0.00    +0.000 HD
BRANCH   8  11
ATOM     10  C   UNL     1      55.509   2.778  18.440  0.00  0.00    +0.000 C 
ATOM     11  C   UNL     1      54.492   1.628  18.498  0.00  0.00    +0.000 C 
BRANCH  11  12
ATOM     12  C   UNL     1      54.403   0.889  17.134  0.00  0.00    +0.000 C 
BRANCH  12  13
ATOM     13  C   UNL     1      54.531  -0.614  17.255  0.00  0.00    +0.000 A 
ATOM     14  C   UNL     1      54.289  -1.274  18.464  0.00  0.00    +0.000 A 
ATOM     15  C   UNL     1      54.530  -2.638  18.538  0.00  0.00    +0.000 A 
ATOM     16  N   UNL     1      54.968  -3.383  17.502  0.00  0.00    +0.000 NA
ATOM     17  C   UNL     1      55.164  -2.735  16.335  0.00  0.00    +0.000 A 
ATOM     18  C   UNL     1      54.960  -1.375  16.163  0.00  0.00    +0.000 A 
ENDBRANCH  12  13
ENDBRANCH  11  12
ENDBRANCH   8  11
ENDBRANCH   7   8
ENDBRANCH   1   7
BRANCH   4  19
ATOM     19  C   UNL     1      47.096   3.377  16.845  0.00  0.00    +0.000 C 
BRANCH  19  20
ATOM     20  N   UNL     1      46.765   4.377  15.867  0.00  0.00    +0.000 N 
ATOM     21  C   UNL     1      46.896   4.126  14.526  0.00  0.00    +0.000 C 
ATOM     22  O   UNL     1      47.262   3.036  14.097  0.00  0.00    +0.000 OA
ATOM     23  H   UNL     1      46.711   5.337  16.192  0.00  0.00    +0.000 HD
BRANCH  21  24
ATOM     24  C   UNL     1      46.505   5.215  13.626  0.00  0.00    +0.000 A 
ATOM     25  C   UNL     1      47.389   6.256  13.380  0.00  0.00    +0.000 A 
ATOM     26  S   UNL     1      46.798   7.406  12.269  0.00  0.00    +0.000 S 
ATOM     27  C   UNL     1      45.318   6.580  12.117  0.00  0.00    +0.000 A 
ATOM     28  N   UNL     1      44.328   7.059  11.315  0.00  0.00    +0.000 NA
ATOM     29  C   UNL     1      43.252   6.348  11.313  0.00  0.00    +0.000 A 
ATOM     30  N   UNL     1      43.075   5.194  12.035  0.00  0.00    +0.000 N 
ATOM     31  C   UNL     1      44.056   4.660  12.839  0.00  0.00    +0.000 A 
ATOM     32  O   UNL     1      43.882   3.608  13.438  0.00  0.00    +0.000 OA
ATOM     33  C   UNL     1      45.282   5.430  12.887  0.00  0.00    +0.000 A 
ATOM     34  H   UNL     1      42.211   4.679  11.984  0.00  0.00    +0.000 HD
ENDBRANCH  21  24
ENDBRANCH  19  20
ENDBRANCH   4  19
TORSDOF 8
ENDMDL
MODEL 5
REMARK VINA RESULT:    -7.146      4.040      9.192
REMARK INTER + INTRA:         -11.266
REMARK INTER:                  -9.240
REMARK INTRA:                  -2.026
REMARK UNBOUND:                -0.778
REMARK  Name = 
REMARK  9 active torsions:
REMARK  status: ('A' for Active; 'I' for Inactive)
REMARK    1  A    between atoms: C_1  and  C_2
REMARK    2  A    between atoms: C_2  and  C_3
REMARK    3  A    between atoms: C_2  and  N_10
REMARK    4  A    between atoms: C_3  and  C_4
REMARK    5  A    between atoms: N_10  and  C_11
REMARK    6  A    between atoms: C_11  and  C_12
REMARK    7  A    between atoms: C_15  and  C_16
REMARK    8  A    between atoms: C_16  and  N_17
REMARK    9  A    between atoms: C_18  and  C_20
REMARK                            x       y       z     vdW  Elec       q    Type
REMARK                         _______ _______ _______ _____ _____    ______ ____
ROOT
ATOM      1  C   UNL     1      51.275   3.806  18.098  0.00  0.00    +0.000 A 
ATOM      2  C   UNL     1      50.357   4.840  18.322  0.00  0.00    +0.000 A 
ATOM      3  C   UNL     1      49.028   4.707  17.913  0.00  0.00    +0.000 A 
ATOM      4  C   UNL     1      48.593   3.538  17.276  0.00  0.00    +0.000 A 
ATOM      5  C   UNL     1      49.524   2.531  16.996  0.00  0.00    +0.000 A 
ATOM      6  C   UNL     1      50.848   2.659  17.413  0.00  0.00    +0.000 A 
ENDROOT
BRANCH   1   7
ATOM      7  C   UNL     1      52.713   3.923  18.542  0.00  0.00    +0.000 C 
BRANCH   7   8
ATOM      8  N   UNL     1      53.268   5.259  18.305  0.00  0.00    +0.000 NA
ATOM      9  H   UNL     1      52.583   5.957  18.590  0.00  0.00    +0.000 HD
BRANCH   8  11
ATOM     10  C   UNL     1      55.082   5.016  16.633  0.00  0.00    +0.000 C 
ATOM     11  C   UNL     1      53.640   5.478  16.892  0.00  0.00    +0.000 C 
BRANCH  11  12
ATOM     12  C   UNL     1      53.459   6.979  16.534  0.00  0.00    +0.000 C 
BRANCH  12  13
ATOM     13  C   UNL     1      52.025   7.452  16.627  0.00  0.00    +0.000 A 
ATOM     14  C   UNL     1      51.094   7.166  15.624  0.00  0.00    +0.000 A 
ATOM     15  C   UNL     1      49.825   7.721  15.714  0.00  0.00    +0.000 A 
ATOM     16  N   UNL     1      49.420   8.511  16.729  0.00  0.00    +0.000 NA
ATOM     17  C   UNL     1      50.321   8.748  17.705  0.00  0.00    +0.000 A 
ATOM     18  C   UNL     1      51.613   8.247  17.701  0.00  0.00    +0.000 A 
ENDBRANCH  12  13
ENDBRANCH  11  12
ENDBRANCH   8  11
ENDBRANCH   7   8
ENDBRANCH   1   7
BRANCH   4  19
ATOM     19  C   UNL     1      47.158   3.365  16.863  0.00  0.00    +0.000 C 
BRANCH  19  20
ATOM     20  N   UNL     1      46.774   4.366  15.906  0.00  0.00    +0.000 N 
ATOM     21  C   UNL     1      46.869   4.131  14.559  0.00  0.00    +0.000 C 
ATOM     22  O   UNL     1      47.246   3.055  14.107  0.00  0.00    +0.000 OA
ATOM     23  H   UNL     1      46.707   5.321  16.243  0.00  0.00    +0.000 HD
BRANCH  21  24
ATOM     24  C   UNL     1      46.425   5.220  13.683  0.00  0.00    +0.000 A 
ATOM     25  C   UNL     1      47.260   6.304  13.455  0.00  0.00    +0.000 A 
ATOM     26  S   UNL     1      46.613   7.448  12.370  0.00  0.00    +0.000 S 
ATOM     27  C   UNL     1      45.171   6.560  12.207  0.00  0.00    +0.000 A 
ATOM     28  N   UNL     1      44.156   7.010  11.420  0.00  0.00    +0.000 NA
ATOM     29  C   UNL     1      43.113   6.252  11.408  0.00  0.00    +0.000 A 
ATOM     30  N   UNL     1      42.992   5.077  12.106  0.00  0.00    +0.000 N 
ATOM     31  C   UNL     1      43.999   4.571  12.895  0.00  0.00    +0.000 A 
ATOM     32  O   UNL     1      43.875   3.500  13.474  0.00  0.00    +0.000 OA
ATOM     33  C   UNL     1      45.190   5.394  12.954  0.00  0.00    +0.000 A 
ATOM     34  H   UNL     1      42.151   4.525  12.048  0.00  0.00    +0.000 HD
ENDBRANCH  21  24
ENDBRANCH  19  20
ENDBRANCH   4  19
TORSDOF 8
ENDMDL
MODEL 6
REMARK VINA RESULT:    -7.049      3.997      9.117
REMARK INTER + INTRA:         -11.124
REMARK INTER:                  -9.112
REMARK INTRA:                  -2.012
REMARK UNBOUND:                -0.778
REMARK  Name = 
REMARK  9 active torsions:
REMARK  status: ('A' for Active; 'I' for Inactive)
REMARK    1  A    between atoms: C_1  and  C_2
REMARK    2  A    between atoms: C_2  and  C_3
REMARK    3  A    between atoms: C_2  and  N_10
REMARK    4  A    between atoms: C_3  and  C_4
REMARK    5  A    between atoms: N_10  and  C_11
REMARK    6  A    between atoms: C_11  and  C_12
REMARK    7  A    between atoms: C_15  and  C_16
REMARK    8  A    between atoms: C_16  and  N_17
REMARK    9  A    between atoms: C_18  and  C_20
REMARK                            x       y       z     vdW  Elec       q    Type
REMARK                         _______ _______ _______ _____ _____    ______ ____
ROOT
ATOM      1  C   UNL     1      49.150   5.663  19.864  0.00  0.00    +0.000 A 
ATOM      2  C   UNL     1      47.808   5.893  19.535  0.00  0.00    +0.000 A 
ATOM      3  C   UNL     1      47.224   5.239  18.447  0.00  0.00    +0.000 A 
ATOM      4  C   UNL     1      47.971   4.343  17.671  0.00  0.00    +0.000 A 
ATOM      5  C   UNL     1      49.328   4.161  17.961  0.00  0.00    +0.000 A 
ATOM      6  C   UNL     1      49.908   4.805  19.052  0.00  0.00    +0.000 A 
ENDROOT
BRANCH   1   7
ATOM      7  C   UNL     1      49.799   6.349  21.042  0.00  0.00    +0.000 C 
BRANCH   7   8
ATOM      8  N   UNL     1      50.101   7.758  20.775  0.00  0.00    +0.000 NA
ATOM      9  H   UNL     1      49.230   8.256  20.598  0.00  0.00    +0.000 HD
BRANCH   8  11
ATOM     10  C   UNL     1      52.400   8.402  20.105  0.00  0.00    +0.000 C 
ATOM     11  C   UNL     1      51.016   7.936  19.628  0.00  0.00    +0.000 C 
BRANCH  11  12
ATOM     12  C   UNL     1      50.399   8.948  18.624  0.00  0.00    +0.000 C 
BRANCH  12  13
ATOM     13  C   UNL     1      50.276   8.401  17.218  0.00  0.00    +0.000 A 
ATOM     14  C   UNL     1      49.124   7.734  16.791  0.00  0.00    +0.000 A 
ATOM     15  C   UNL     1      49.115   7.160  15.528  0.00  0.00    +0.000 A 
ATOM     16  N   UNL     1      50.151   7.221  14.666  0.00  0.00    +0.000 NA
ATOM     17  C   UNL     1      51.242   7.897  15.083  0.00  0.00    +0.000 A 
ATOM     18  C   UNL     1      51.350   8.497  16.328  0.00  0.00    +0.000 A 
ENDBRANCH  12  13
ENDBRANCH  11  12
ENDBRANCH   8  11
ENDBRANCH   7   8
ENDBRANCH   1   7
BRANCH   4  19
ATOM     19  C   UNL     1      47.347   3.604  16.520  0.00  0.00    +0.000 C 
BRANCH  19  20
ATOM     20  N   UNL     1      46.768   4.519  15.575  0.00  0.00    +0.000 N 
ATOM     21  C   UNL     1      46.829   4.277  14.227  0.00  0.00    +0.000 C 
ATOM     22  O   UNL     1      47.342   3.263  13.766  0.00  0.00    +0.000 OA
ATOM     23  H   UNL     1      46.575   5.459  15.905  0.00  0.00    +0.000 HD
BRANCH  21  24
ATOM     24  C   UNL     1      46.181   5.271  13.365  0.00  0.00    +0.000 A 
ATOM     25  C   UNL     1      46.859   6.434  13.025  0.00  0.00    +0.000 A 
ATOM     26  S   UNL     1      45.984   7.451  11.974  0.00  0.00    +0.000 S 
ATOM     27  C   UNL     1      44.648   6.398  11.977  0.00  0.00    +0.000 A 
ATOM     28  N   UNL     1      43.519   6.696  11.277  0.00  0.00    +0.000 NA
ATOM     29  C   UNL     1      42.577   5.823  11.387  0.00  0.00    +0.000 A 
ATOM     30  N   UNL     1      42.659   4.672  12.129  0.00  0.00    +0.000 N 
ATOM     31  C   UNL     1      43.787   4.318  12.833  0.00  0.00    +0.000 A 
ATOM     32  O   UNL     1      43.844   3.264  13.453  0.00  0.00    +0.000 OA
ATOM     33  C   UNL     1      44.873   5.273  12.752  0.00  0.00    +0.000 A 
ATOM     34  H   UNL     1      41.887   4.025  12.169  0.00  0.00    +0.000 HD
ENDBRANCH  21  24
ENDBRANCH  19  20
ENDBRANCH   4  19
TORSDOF 8
ENDMDL
MODEL 7
REMARK VINA RESULT:    -6.359      2.159      2.947
REMARK INTER + INTRA:         -10.111
REMARK INTER:                  -9.341
REMARK INTRA:                  -0.770
REMARK UNBOUND:                -0.778
REMARK  Name = 
REMARK  9 active torsions:
REMARK  status: ('A' for Active; 'I' for Inactive)
REMARK    1  A    between atoms: C_1  and  C_2
REMARK    2  A    between atoms: C_2  and  C_3
REMARK    3  A    between atoms: C_2  and  N_10
REMARK    4  A    between atoms: C_3  and  C_4
REMARK    5  A    between atoms: N_10  and  C_11
REMARK    6  A    between atoms: C_11  and  C_12
REMARK    7  A    between atoms: C_15  and  C_16
REMARK    8  A    between atoms: C_16  and  N_17
REMARK    9  A    between atoms: C_18  and  C_20
REMARK                            x       y       z     vdW  Elec       q    Type
REMARK                         _______ _______ _______ _____ _____    ______ ____
ROOT
ATOM      1  C   UNL     1      44.493   6.241  11.513  0.00  0.00    +0.000 A 
ATOM      2  C   UNL     1      44.322   7.630  11.564  0.00  0.00    +0.000 A 
ATOM      3  C   UNL     1      45.380   8.460  11.947  0.00  0.00    +0.000 A 
ATOM      4  C   UNL     1      46.625   7.915  12.281  0.00  0.00    +0.000 A 
ATOM      5  C   UNL     1      46.778   6.524  12.290  0.00  0.00    +0.000 A 
ATOM      6  C   UNL     1      45.727   5.697  11.899  0.00  0.00    +0.000 A 
ENDROOT
BRANCH   1   7
ATOM      7  C   UNL     1      43.368   5.327  11.091  0.00  0.00    +0.000 C 
BRANCH   7   8
ATOM      8  N   UNL     1      43.644   4.643   9.824  0.00  0.00    +0.000 NA
ATOM      9  H   UNL     1      42.838   4.748   9.210  0.00  0.00    +0.000 HD
BRANCH   8  11
ATOM     10  C   UNL     1      43.403   2.705  11.351  0.00  0.00    +0.000 C 
ATOM     11  C   UNL     1      43.947   3.209  10.006  0.00  0.00    +0.000 C 
BRANCH  11  12
ATOM     12  C   UNL     1      45.481   2.985   9.902  0.00  0.00    +0.000 C 
BRANCH  12  13
ATOM     13  C   UNL     1      45.948   2.656   8.500  0.00  0.00    +0.000 A 
ATOM     14  C   UNL     1      46.369   1.368   8.154  0.00  0.00    +0.000 A 
ATOM     15  C   UNL     1      46.889   1.156   6.886  0.00  0.00    +0.000 A 
ATOM     16  N   UNL     1      46.998   2.118   5.946  0.00  0.00    +0.000 NA
ATOM     17  C   UNL     1      46.556   3.346   6.287  0.00  0.00    +0.000 A 
ATOM     18  C   UNL     1      46.028   3.659   7.530  0.00  0.00    +0.000 A 
ENDBRANCH  12  13
ENDBRANCH  11  12
ENDBRANCH   8  11
ENDBRANCH   7   8
ENDBRANCH   1   7
BRANCH   4  19
ATOM     19  C   UNL     1      47.784   8.797  12.658  0.00  0.00    +0.000 C 
BRANCH  19  20
ATOM     20  N   UNL     1      48.420   8.323  13.858  0.00  0.00    +0.000 N 
ATOM     21  C   UNL     1      49.583   7.600  13.804  0.00  0.00    +0.000 C 
ATOM     22  O   UNL     1      50.153   7.355  12.746  0.00  0.00    +0.000 OA
ATOM     23  H   UNL     1      47.851   8.292  14.697  0.00  0.00    +0.000 HD
BRANCH  21  24
ATOM     24  C   UNL     1      50.149   7.194  15.094  0.00  0.00    +0.000 A 
ATOM     25  C   UNL     1      49.339   6.578  16.037  0.00  0.00    +0.000 A 
ATOM     26  S   UNL     1      50.167   6.121  17.455  0.00  0.00    +0.000 S 
ATOM     27  C   UNL     1      51.627   6.779  16.880  0.00  0.00    +0.000 A 
ATOM     28  N   UNL     1      52.757   6.744  17.637  0.00  0.00    +0.000 NA
ATOM     29  C   UNL     1      53.784   7.300  17.090  0.00  0.00    +0.000 A 
ATOM     30  N   UNL     1      53.789   7.883  15.848  0.00  0.00    +0.000 N 
ATOM     31  C   UNL     1      52.677   7.922  15.038  0.00  0.00    +0.000 A 
ATOM     32  O   UNL     1      52.724   8.413  13.918  0.00  0.00    +0.000 OA
ATOM     33  C   UNL     1      51.491   7.321  15.613  0.00  0.00    +0.000 A 
ATOM     34  H   UNL     1      54.628   8.296  15.473  0.00  0.00    +0.000 HD
ENDBRANCH  21  24
ENDBRANCH  19  20
ENDBRANCH   4  19
TORSDOF 8
ENDMDL
MODEL 8
REMARK VINA RESULT:    -6.172      4.768      7.715
REMARK INTER + INTRA:          -9.837
REMARK INTER:                  -8.503
REMARK INTRA:                  -1.334
REMARK UNBOUND:                -0.778
REMARK  Name = 
REMARK  9 active torsions:
REMARK  status: ('A' for Active; 'I' for Inactive)
REMARK    1  A    between atoms: C_1  and  C_2
REMARK    2  A    between atoms: C_2  and  C_3
REMARK    3  A    between atoms: C_2  and  N_10
REMARK    4  A    between atoms: C_3  and  C_4
REMARK    5  A    between atoms: N_10  and  C_11
REMARK    6  A    between atoms: C_11  and  C_12
REMARK    7  A    between atoms: C_15  and  C_16
REMARK    8  A    between atoms: C_16  and  N_17
REMARK    9  A    between atoms: C_18  and  C_20
REMARK                            x       y       z     vdW  Elec       q    Type
REMARK                         _______ _______ _______ _____ _____    ______ ____
ROOT
ATOM      1  C   UNL     1      49.851   8.778  12.659  0.00  0.00    +0.000 A 
ATOM      2  C   UNL     1      49.043   8.628  11.525  0.00  0.00    +0.000 A 
ATOM      3  C   UNL     1      47.664   8.442  11.658  0.00  0.00    +0.000 A 
ATOM      4  C   UNL     1      47.070   8.405  12.925  0.00  0.00    +0.000 A 
ATOM      5  C   UNL     1      47.885   8.493  14.060  0.00  0.00    +0.000 A 
ATOM      6  C   UNL     1      49.258   8.688  13.928  0.00  0.00    +0.000 A 
ENDROOT
BRANCH   1   7
ATOM      7  C   UNL     1      51.340   8.991  12.540  0.00  0.00    +0.000 C 
BRANCH   7   8
ATOM      8  N   UNL     1      52.063   7.753  12.236  0.00  0.00    +0.000 NA
ATOM      9  H   UNL     1      52.682   7.532  13.014  0.00  0.00    +0.000 HD
BRANCH   8  11
ATOM     10  C   UNL     1      53.186   9.307  10.665  0.00  0.00    +0.000 C 
ATOM     11  C   UNL     1      52.848   7.844  10.988  0.00  0.00    +0.000 C 
BRANCH  11  12
ATOM     12  C   UNL     1      52.055   7.183   9.827  0.00  0.00    +0.000 C 
BRANCH  12  13
ATOM     13  C   UNL     1      52.930   6.753   8.669  0.00  0.00    +0.000 A 
ATOM     14  C   UNL     1      52.826   7.356   7.412  0.00  0.00    +0.000 A 
ATOM     15  C   UNL     1      53.576   6.843   6.363  0.00  0.00    +0.000 A 
ATOM     16  N   UNL     1      54.425   5.802   6.483  0.00  0.00    +0.000 NA
ATOM     17  C   UNL     1      54.537   5.254   7.711  0.00  0.00    +0.000 A 
ATOM     18  C   UNL     1      53.825   5.689   8.818  0.00  0.00    +0.000 A 
ENDBRANCH  12  13
ENDBRANCH  11  12
ENDBRANCH   8  11
ENDBRANCH   7   8
ENDBRANCH   1   7
BRANCH   4  19
ATOM     19  C   UNL     1      45.583   8.243  13.083  0.00  0.00    +0.000 C 
BRANCH  19  20
ATOM     20  N   UNL     1      45.119   7.070  12.395  0.00  0.00    +0.000 N 
ATOM     21  C   UNL     1      45.397   5.814  12.869  0.00  0.00    +0.000 C 
ATOM     22  O   UNL     1      46.017   5.631  13.911  0.00  0.00    +0.000 OA
ATOM     23  H   UNL     1      44.837   7.187  11.427  0.00  0.00    +0.000 HD
BRANCH  21  24
ATOM     24  C   UNL     1      44.848   4.698  12.093  0.00  0.00    +0.000 A 
ATOM     25  C   UNL     1      44.080   3.731  12.728  0.00  0.00    +0.000 A 
ATOM     26  S   UNL     1      43.474   2.539  11.672  0.00  0.00    +0.000 S 
ATOM     27  C   UNL     1      44.261   3.243  10.337  0.00  0.00    +0.000 A 
ATOM     28  N   UNL     1      44.172   2.686   9.098  0.00  0.00    +0.000 NA
ATOM     29  C   UNL     1      44.836   3.308   8.185  0.00  0.00    +0.000 A 
ATOM     30  N   UNL     1      45.578   4.444   8.393  0.00  0.00    +0.000 N 
ATOM     31  C   UNL     1      45.678   5.054   9.622  0.00  0.00    +0.000 A 
ATOM     32  O   UNL     1      46.315   6.089   9.767  0.00  0.00    +0.000 OA
ATOM     33  C   UNL     1      44.959   4.386  10.688  0.00  0.00    +0.000 A 
ATOM     34  H   UNL     1      46.070   4.888   7.633  0.00  0.00    +0.000 HD
ENDBRANCH  21  24
ENDBRANCH  19  20
ENDBRANCH   4  19
TORSDOF 8
ENDMDL
MODEL 9
REMARK VINA RESULT:    -5.789      4.934      7.547
REMARK INTER + INTRA:          -9.275
REMARK INTER:                  -8.516
REMARK INTRA:                  -0.759
REMARK UNBOUND:                -0.778
REMARK  Name = 
REMARK  9 active torsions:
REMARK  status: ('A' for Active; 'I' for Inactive)
REMARK    1  A    between atoms: C_1  and  C_2
REMARK    2  A    between atoms: C_2  and  C_3
REMARK    3  A    between atoms: C_2  and  N_10
REMARK    4  A    between atoms: C_3  and  C_4
REMARK    5  A    between atoms: N_10  and  C_11
REMARK    6  A    between atoms: C_11  and  C_12
REMARK    7  A    between atoms: C_15  and  C_16
REMARK    8  A    between atoms: C_16  and  N_17
REMARK    9  A    between atoms: C_18  and  C_20
REMARK                            x       y       z     vdW  Elec       q    Type
REMARK                         _______ _______ _______ _____ _____    ______ ____
ROOT
ATOM      1  C   UNL     1      50.873   9.082  12.708  0.00  0.00    +0.000 A 
ATOM      2  C   UNL     1      50.077   9.245  11.568  0.00  0.00    +0.000 A 
ATOM      3  C   UNL     1      48.686   9.131  11.654  0.00  0.00    +0.000 A 
ATOM      4  C   UNL     1      48.070   8.855  12.881  0.00  0.00    +0.000 A 
ATOM      5  C   UNL     1      48.870   8.630  14.007  0.00  0.00    +0.000 A 
ATOM      6  C   UNL     1      50.255   8.753  13.925  0.00  0.00    +0.000 A 
ENDROOT
BRANCH   1   7
ATOM      7  C   UNL     1      52.376   9.211  12.642  0.00  0.00    +0.000 C 
BRANCH   7   8
ATOM      8  N   UNL     1      53.020   8.012  12.098  0.00  0.00    +0.000 NA
ATOM      9  H   UNL     1      53.782   7.737  12.716  0.00  0.00    +0.000 HD
BRANCH   8  11
ATOM     10  C   UNL     1      53.711   9.713  10.432  0.00  0.00    +0.000 C 
ATOM     11  C   UNL     1      53.539   8.216  10.730  0.00  0.00    +0.000 C 
BRANCH  11  12
ATOM     12  C   UNL     1      52.580   7.548   9.706  0.00  0.00    +0.000 C 
BRANCH  12  13
ATOM     13  C   UNL     1      53.258   6.517   8.830  0.00  0.00    +0.000 A 
ATOM     14  C   UNL     1      52.728   6.149   7.590  0.00  0.00    +0.000 A 
ATOM     15  C   UNL     1      53.335   5.119   6.885  0.00  0.00    +0.000 A 
ATOM     16  N   UNL     1      54.428   4.456   7.313  0.00  0.00    +0.000 NA
ATOM     17  C   UNL     1      54.945   4.847   8.496  0.00  0.00    +0.000 A 
ATOM     18  C   UNL     1      54.408   5.858   9.278  0.00  0.00    +0.000 A 
ENDBRANCH  12  13
ENDBRANCH  11  12
ENDBRANCH   8  11
ENDBRANCH   7   8
ENDBRANCH   1   7
BRANCH   4  19
ATOM     19  C   UNL     1      46.573   8.766  12.997  0.00  0.00    +0.000 C 
BRANCH  19  20
ATOM     20  N   UNL     1      46.048   7.760  12.115  0.00  0.00    +0.000 N 
ATOM     21  C   UNL     1      46.422   6.447  12.237  0.00  0.00    +0.000 C 
ATOM     22  O   UNL     1      47.184   6.063  13.118  0.00  0.00    +0.000 OA
ATOM     23  H   UNL     1      45.633   8.082  11.247  0.00  0.00    +0.000 HD
BRANCH  21  24
ATOM     24  C   UNL     1      45.800   5.511  11.296  0.00  0.00    +0.000 A 
ATOM     25  C   UNL     1      45.966   5.696   9.930  0.00  0.00    +0.000 A 
ATOM     26  S   UNL     1      45.227   4.488   8.982  0.00  0.00    +0.000 S 
ATOM     27  C   UNL     1      44.614   3.703  10.362  0.00  0.00    +0.000 A 
ATOM     28  N   UNL     1      43.849   2.583  10.249  0.00  0.00    +0.000 NA
ATOM     29  C   UNL     1      43.431   2.106  11.372  0.00  0.00    +0.000 A 
ATOM     30  N   UNL     1      43.714   2.642  12.603  0.00  0.00    +0.000 N 
ATOM     31  C   UNL     1      44.502   3.758  12.767  0.00  0.00    +0.000 A 
ATOM     32  O   UNL     1      44.769   4.188  13.881  0.00  0.00    +0.000 OA
ATOM     33  C   UNL     1      44.986   4.341  11.533  0.00  0.00    +0.000 A 
ATOM     34  H   UNL     1      43.361   2.217  13.446  0.00  0.00    +0.000 HD
ENDBRANCH  21  24
ENDBRANCH  19  20
ENDBRANCH   4  19
TORSDOF 8
ENDMDL
