MODEL 1
REMARK VINA RESULT:    -7.358      0.000      0.000
REMARK INTER + INTRA:          -9.977
REMARK INTER:                  -9.509
REMARK INTRA:                  -0.469
REMARK UNBOUND:                -0.469
REMARK  Name = 
REMARK  6 active torsions:
REMARK  status: ('A' for Active; 'I' for Inactive)
REMARK    1  A    between atoms: C_1  and  O_2
REMARK    2  A    between atoms: O_2  and  C_3
REMARK    3  A    between atoms: C_5  and  C_6
REMARK    4  A    between atoms: C_11  and  O_12
REMARK    5  A    between atoms: O_12  and  C_13
REMARK    6  A    between atoms: C_13  and  C_14
REMARK                            x       y       z     vdW  Elec       q    Type
REMARK                         _______ _______ _______ _____ _____    ______ ____
ROOT
ATOM      1  C   UNL     1      46.074   4.797  12.862  0.00  0.00    +0.000 A 
ATOM      2  C   UNL     1      46.283   6.118  13.271  0.00  0.00    +0.000 A 
ATOM      3  C   UNL     1      45.551   7.151  12.686  0.00  0.00    +0.000 A 
ATOM      4  C   UNL     1      44.622   6.817  11.710  0.00  0.00    +0.000 A 
ATOM      5  N   UNL     1      44.359   5.545  11.321  0.00  0.00    +0.000 NA
ATOM      6  C   UNL     1      45.076   4.558  11.911  0.00  0.00    +0.000 A 
ENDROOT
BRANCH   3   7
ATOM      7  C   UNL     1      45.749   8.575  13.018  0.00  0.00    +0.000 C 
ATOM      8  N   UNL     1      46.661   8.879  13.990  0.00  0.00    +0.000 N 
ATOM      9  O   UNL     1      45.100   9.453  12.464  0.00  0.00    +0.000 OA
ATOM     10  H   UNL     1      47.064   8.191  14.610  0.00  0.00    +0.000 HD
ATOM     11  H   UNL     1      46.725   9.852  14.263  0.00  0.00    +0.000 HD
ENDBRANCH   3   7
BRANCH   1  13
ATOM     12  C   UNL     1      47.079   4.082  14.888  0.00  0.00    +0.000 C 
ATOM     13  O   UNL     1      46.877   3.887  13.492  0.00  0.00    +0.000 OA
ENDBRANCH   1  13
BRANCH   6  14
ATOM     14  O   UNL     1      44.835   3.269  11.497  0.00  0.00    +0.000 OA
BRANCH  14  15
ATOM     15  C   UNL     1      44.100   3.198  10.274  0.00  0.00    +0.000 C 
BRANCH  15  16
ATOM     16  C   UNL     1      45.073   2.944   9.140  0.00  0.00    +0.000 A 
ATOM     17  C   UNL     1      45.444   3.991   8.294  0.00  0.00    +0.000 A 
ATOM     18  C   UNL     1      46.326   3.738   7.243  0.00  0.00    +0.000 A 
ATOM     19  C   UNL     1      46.816   2.451   7.069  0.00  0.00    +0.000 A 
ATOM     20 CL   UNL     1      47.902   2.093   5.788  0.00  0.00    +0.000 Cl
ATOM     21  C   UNL     1      46.405   1.466   7.951  0.00  0.00    +0.000 A 
ATOM     22  N   UNL     1      45.547   1.681   8.980  0.00  0.00    +0.000 NA
ENDBRANCH  15  16
ENDBRANCH  14  15
ENDBRANCH   6  14
TORSDOF 5
ENDMDL
MODEL 2
REMARK VINA RESULT:    -7.283      1.706      3.224
REMARK INTER + INTRA:          -9.881
REMARK INTER:                  -9.544
REMARK INTRA:                  -0.336
REMARK UNBOUND:                -0.469
REMARK  Name = 
REMARK  6 active torsions:
REMARK  status: ('A' for Active; 'I' for Inactive)
REMARK    1  A    between atoms: C_1  and  O_2
REMARK    2  A    between atoms: O_2  and  C_3
REMARK    3  A    between atoms: C_5  and  C_6
REMARK    4  A    between atoms: C_11  and  O_12
REMARK    5  A    between atoms: O_12  and  C_13
REMARK    6  A    between atoms: C_13  and  C_14
REMARK                            x       y       z     vdW  Elec       q    Type
REMARK                         _______ _______ _______ _____ _____    ______ ____
ROOT
ATOM      1  C   UNL     1      45.997   6.094  12.219  0.00  0.00    +0.000 A 
ATOM      2  C   UNL     1      46.716   5.781  13.377  0.00  0.00    +0.000 A 
ATOM      3  C   UNL     1      46.675   4.486  13.893  0.00  0.00    +0.000 A 
ATOM      4  C   UNL     1      45.914   3.542  13.217  0.00  0.00    +0.000 A 
ATOM      5  N   UNL     1      45.242   3.795  12.068  0.00  0.00    +0.000 NA
ATOM      6  C   UNL     1      45.305   5.059  11.581  0.00  0.00    +0.000 A 
ENDROOT
BRANCH   3   7
ATOM      7  C   UNL     1      47.358   4.087  15.139  0.00  0.00    +0.000 C 
ATOM      8  N   UNL     1      47.482   5.026  16.123  0.00  0.00    +0.000 N 
ATOM      9  O   UNL     1      47.822   2.963  15.276  0.00  0.00    +0.000 OA
ATOM     10  H   UNL     1      47.303   6.010  15.980  0.00  0.00    +0.000 HD
ATOM     11  H   UNL     1      48.024   4.762  16.937  0.00  0.00    +0.000 HD
ENDBRANCH   3   7
BRANCH   1  13
ATOM     12  C   UNL     1      45.601   8.369  12.759  0.00  0.00    +0.000 C 
ATOM     13  O   UNL     1      46.099   7.403  11.838  0.00  0.00    +0.000 OA
ENDBRANCH   1  13
BRANCH   6  14
ATOM     14  O   UNL     1      44.599   5.328  10.432  0.00  0.00    +0.000 OA
BRANCH  14  15
ATOM     15  C   UNL     1      44.040   4.161   9.827  0.00  0.00    +0.000 C 
BRANCH  15  16
ATOM     16  C   UNL     1      45.061   3.576   8.874  0.00  0.00    +0.000 A 
ATOM     17  C   UNL     1      45.321   2.204   8.887  0.00  0.00    +0.000 A 
ATOM     18  C   UNL     1      46.277   1.683   8.016  0.00  0.00    +0.000 A 
ATOM     19  C   UNL     1      46.946   2.542   7.155  0.00  0.00    +0.000 A 
ATOM     20 CL   UNL     1      48.133   1.945   6.068  0.00  0.00    +0.000 Cl
ATOM     21  C   UNL     1      46.632   3.891   7.198  0.00  0.00    +0.000 A 
ATOM     22  N   UNL     1      45.708   4.427   8.035  0.00  0.00    +0.000 NA
ENDBRANCH  15  16
ENDBRANCH  14  15
ENDBRANCH   6  14
TORSDOF 5
ENDMDL
MODEL 3
REMARK VINA RESULT:    -7.142      1.837      2.911
REMARK INTER + INTRA:          -9.699
REMARK INTER:                  -9.184
REMARK INTRA:                  -0.514
REMARK UNBOUND:                -0.469
REMARK  Name = 
REMARK  6 active torsions:
REMARK  status: ('A' for Active; 'I' for Inactive)
REMARK    1  A    between atoms: C_1  and  O_2
REMARK    2  A    between atoms: O_2  and  C_3
REMARK    3  A    between atoms: C_5  and  C_6
REMARK    4  A    between atoms: C_11  and  O_12
REMARK    5  A    between atoms: O_12  and  C_13
REMARK    6  A    between atoms: C_13  and  C_14
REMARK                            x       y       z     vdW  Elec       q    Type
REMARK                         _______ _______ _______ _____ _____    ______ ____
ROOT
ATOM      1  C   UNL     1      45.747   5.600  11.899  0.00  0.00    +0.000 A 
ATOM      2  C   UNL     1      46.556   5.714  13.034  0.00  0.00    +0.000 A 
ATOM      3  C   UNL     1      46.708   4.624  13.891  0.00  0.00    +0.000 A 
ATOM      4  C   UNL     1      46.045   3.448  13.571  0.00  0.00    +0.000 A 
ATOM      5  N   UNL     1      45.291   3.285  12.456  0.00  0.00    +0.000 NA
ATOM      6  C   UNL     1      45.165   4.355  11.634  0.00  0.00    +0.000 A 
ENDROOT
BRANCH   3   7
ATOM      7  C   UNL     1      47.497   4.676  15.138  0.00  0.00    +0.000 C 
ATOM      8  N   UNL     1      47.290   3.690  16.061  0.00  0.00    +0.000 N 
ATOM      9  O   UNL     1      48.288   5.585  15.350  0.00  0.00    +0.000 OA
ATOM     10  H   UNL     1      46.513   3.046  16.024  0.00  0.00    +0.000 HD
ATOM     11  H   UNL     1      47.778   3.785  16.943  0.00  0.00    +0.000 HD
ENDBRANCH   3   7
BRANCH   1  13
ATOM     12  C   UNL     1      45.077   7.874  11.813  0.00  0.00    +0.000 C 
ATOM     13  O   UNL     1      45.659   6.749  11.162  0.00  0.00    +0.000 OA
ENDBRANCH   1  13
BRANCH   6  14
ATOM     14  O   UNL     1      44.375   4.205  10.518  0.00  0.00    +0.000 OA
BRANCH  14  15
ATOM     15  C   UNL     1      44.319   2.858  10.045  0.00  0.00    +0.000 C 
BRANCH  15  16
ATOM     16  C   UNL     1      45.269   2.718   8.874  0.00  0.00    +0.000 A 
ATOM     17  C   UNL     1      45.499   3.806   8.030  0.00  0.00    +0.000 A 
ATOM     18  C   UNL     1      46.363   3.656   6.944  0.00  0.00    +0.000 A 
ATOM     19  C   UNL     1      46.975   2.428   6.733  0.00  0.00    +0.000 A 
ATOM     20 CL   UNL     1      48.043   2.198   5.409  0.00  0.00    +0.000 Cl
ATOM     21  C   UNL     1      46.700   1.396   7.616  0.00  0.00    +0.000 A 
ATOM     22  N   UNL     1      45.863   1.512   8.679  0.00  0.00    +0.000 NA
ENDBRANCH  15  16
ENDBRANCH  14  15
ENDBRANCH   6  14
TORSDOF 5
ENDMDL
MODEL 4
REMARK VINA RESULT:    -6.830      3.230      6.450
REMARK INTER + INTRA:          -9.296
REMARK INTER:                  -9.178
REMARK INTRA:                  -0.118
REMARK UNBOUND:                -0.469
REMARK  Name = 
REMARK  6 active torsions:
REMARK  status: ('A' for Active; 'I' for Inactive)
REMARK    1  A    between atoms: C_1  and  O_2
REMARK    2  A    between atoms: O_2  and  C_3
REMARK    3  A    between atoms: C_5  and  C_6
REMARK    4  A    between atoms: C_11  and  O_12
REMARK    5  A    between atoms: O_12  and  C_13
REMARK    6  A    between atoms: C_13  and  C_14
REMARK                            x       y       z     vdW  Elec       q    Type
REMARK                         _______ _______ _______ _____ _____    ______ ____
ROOT
ATOM      1  C   UNL     1      44.695   2.882   9.320  0.00  0.00    +0.000 A 
ATOM      2  C   UNL     1      45.524   2.045   8.566  0.00  0.00    +0.000 A 
ATOM      3  C   UNL     1      46.502   2.596   7.738  0.00  0.00    +0.000 A 
ATOM      4  C   UNL     1      46.619   3.978   7.704  0.00  0.00    +0.000 A 
ATOM      5  N   UNL     1      45.866   4.820   8.454  0.00  0.00    +0.000 NA
ATOM      6  C   UNL     1      44.929   4.260   9.257  0.00  0.00    +0.000 A 
ENDROOT
BRANCH   3   7
ATOM      7  C   UNL     1      47.380   1.788   6.869  0.00  0.00    +0.000 C 
ATOM      8  N   UNL     1      48.444   2.415   6.284  0.00  0.00    +0.000 N 
ATOM      9  O   UNL     1      47.148   0.605   6.658  0.00  0.00    +0.000 OA
ATOM     10  H   UNL     1      48.556   3.418   6.262  0.00  0.00    +0.000 HD
ATOM     11  H   UNL     1      48.987   1.867   5.628  0.00  0.00    +0.000 HD
ENDBRANCH   3   7
BRANCH   1  13
ATOM     12  C   UNL     1      43.751   2.492  11.460  0.00  0.00    +0.000 C 
ATOM     13  O   UNL     1      43.761   2.215  10.063  0.00  0.00    +0.000 OA
ENDBRANCH   1  13
BRANCH   6  14
ATOM     14  O   UNL     1      44.141   5.111   9.996  0.00  0.00    +0.000 OA
BRANCH  14  15
ATOM     15  C   UNL     1      44.846   6.258  10.474  0.00  0.00    +0.000 C 
BRANCH  15  16
ATOM     16  C   UNL     1      45.555   5.887  11.761  0.00  0.00    +0.000 A 
ATOM     17  C   UNL     1      46.887   6.259  11.953  0.00  0.00    +0.000 A 
ATOM     18  C   UNL     1      47.532   5.895  13.135  0.00  0.00    +0.000 A 
ATOM     19  C   UNL     1      46.832   5.172  14.091  0.00  0.00    +0.000 A 
ATOM     20 CL   UNL     1      47.588   4.700  15.559  0.00  0.00    +0.000 Cl
ATOM     21  C   UNL     1      45.513   4.842  13.830  0.00  0.00    +0.000 A 
ATOM     22  N   UNL     1      44.859   5.182  12.690  0.00  0.00    +0.000 NA
ENDBRANCH  15  16
ENDBRANCH  14  15
ENDBRANCH   6  14
TORSDOF 5
ENDMDL
MODEL 5
REMARK VINA RESULT:    -6.415      4.628      6.750
REMARK INTER + INTRA:          -8.759
REMARK INTER:                  -8.294
REMARK INTRA:                  -0.465
REMARK UNBOUND:                -0.469
REMARK  Name = 
REMARK  6 active torsions:
REMARK  status: ('A' for Active; 'I' for Inactive)
REMARK    1  A    between atoms: C_1  and  O_2
REMARK    2  A    between atoms: O_2  and  C_3
REMARK    3  A    between atoms: C_5  and  C_6
REMARK    4  A    between atoms: C_11  and  O_12
REMARK    5  A    between atoms: O_12  and  C_13
REMARK    6  A    between atoms: C_13  and  C_14
REMARK                            x       y       z     vdW  Elec       q    Type
REMARK                         _______ _______ _______ _____ _____    ______ ____
ROOT
ATOM      1  C   UNL     1      47.356   5.507  13.524  0.00  0.00    +0.000 A 
ATOM      2  C   UNL     1      46.600   6.458  12.831  0.00  0.00    +0.000 A 
ATOM      3  C   UNL     1      45.285   6.170  12.466  0.00  0.00    +0.000 A 
ATOM      4  C   UNL     1      44.769   4.931  12.820  0.00  0.00    +0.000 A 
ATOM      5  N   UNL     1      45.454   4.003  13.532  0.00  0.00    +0.000 NA
ATOM      6  C   UNL     1      46.727   4.310  13.883  0.00  0.00    +0.000 A 
ENDROOT
BRANCH   3   7
ATOM      7  C   UNL     1      44.439   7.094  11.685  0.00  0.00    +0.000 C 
ATOM      8  N   UNL     1      43.208   6.648  11.293  0.00  0.00    +0.000 N 
ATOM      9  O   UNL     1      44.835   8.210  11.377  0.00  0.00    +0.000 OA
ATOM     10  H   UNL     1      42.924   5.680  11.343  0.00  0.00    +0.000 HD
ATOM     11  H   UNL     1      42.674   7.263  10.690  0.00  0.00    +0.000 HD
ENDBRANCH   3   7
BRANCH   1  13
ATOM     12  C   UNL     1      49.070   7.106  13.166  0.00  0.00    +0.000 C 
ATOM     13  O   UNL     1      48.636   5.904  13.794  0.00  0.00    +0.000 OA
ENDBRANCH   1  13
BRANCH   6  14
ATOM     14  O   UNL     1      47.437   3.359  14.578  0.00  0.00    +0.000 OA
BRANCH  14  15
ATOM     15  C   UNL     1      47.368   3.528  15.995  0.00  0.00    +0.000 C 
BRANCH  15  16
ATOM     16  C   UNL     1      48.728   3.213  16.585  0.00  0.00    +0.000 A 
ATOM     17  C   UNL     1      49.380   4.161  17.376  0.00  0.00    +0.000 A 
ATOM     18  C   UNL     1      50.640   3.863  17.897  0.00  0.00    +0.000 A 
ATOM     19  C   UNL     1      51.212   2.630  17.616  0.00  0.00    +0.000 A 
ATOM     20 CL   UNL     1      52.761   2.223  18.233  0.00  0.00    +0.000 Cl
ATOM     21  C   UNL     1      50.503   1.741  16.825  0.00  0.00    +0.000 A 
ATOM     22  N   UNL     1      49.277   2.003  16.304  0.00  0.00    +0.000 NA
ENDBRANCH  15  16
ENDBRANCH  14  15
ENDBRANCH   6  14
TORSDOF 5
ENDMDL
MODEL 6
REMARK VINA RESULT:    -6.384      4.049      7.053
REMARK INTER + INTRA:          -8.719
REMARK INTER:                  -8.255
REMARK INTRA:                  -0.464
REMARK UNBOUND:                -0.469
REMARK  Name = 
REMARK  6 active torsions:
REMARK  status: ('A' for Active; 'I' for Inactive)
REMARK    1  A    between atoms: C_1  and  O_2
REMARK    2  A    between atoms: O_2  and  C_3
REMARK    3  A    between atoms: C_5  and  C_6
REMARK    4  A    between atoms: C_11  and  O_12
REMARK    5  A    between atoms: O_12  and  C_13
REMARK    6  A    between atoms: C_13  and  C_14
REMARK                            x       y       z     vdW  Elec       q    Type
REMARK                         _______ _______ _______ _____ _____    ______ ____
ROOT
ATOM      1  C   UNL     1      46.359   5.856  12.858  0.00  0.00    +0.000 A 
ATOM      2  C   UNL     1      45.475   5.558  11.815  0.00  0.00    +0.000 A 
ATOM      3  C   UNL     1      45.033   4.248  11.630  0.00  0.00    +0.000 A 
ATOM      4  C   UNL     1      45.493   3.278  12.510  0.00  0.00    +0.000 A 
ATOM      5  N   UNL     1      46.312   3.535  13.558  0.00  0.00    +0.000 NA
ATOM      6  C   UNL     1      46.720   4.817  13.723  0.00  0.00    +0.000 A 
ENDROOT
BRANCH   3   7
ATOM      7  C   UNL     1      44.146   3.840  10.524  0.00  0.00    +0.000 C 
ATOM      8  N   UNL     1      44.163   4.595   9.385  0.00  0.00    +0.000 N 
ATOM      9  O   UNL     1      43.401   2.875  10.631  0.00  0.00    +0.000 OA
ATOM     10  H   UNL     1      44.599   5.504   9.326  0.00  0.00    +0.000 HD
ATOM     11  H   UNL     1      43.491   4.351   8.668  0.00  0.00    +0.000 HD
ENDBRANCH   3   7
BRANCH   1  13
ATOM     12  C   UNL     1      45.684   8.129  12.885  0.00  0.00    +0.000 C 
ATOM     13  O   UNL     1      46.736   7.169  12.909  0.00  0.00    +0.000 OA
ENDBRANCH   1  13
BRANCH   6  14
ATOM     14  O   UNL     1      47.576   5.078  14.767  0.00  0.00    +0.000 OA
BRANCH  14  15
ATOM     15  C   UNL     1      47.238   4.373  15.963  0.00  0.00    +0.000 C 
BRANCH  15  16
ATOM     16  C   UNL     1      48.477   3.666  16.473  0.00  0.00    +0.000 A 
ATOM     17  C   UNL     1      49.345   4.325  17.346  0.00  0.00    +0.000 A 
ATOM     18  C   UNL     1      50.492   3.668  17.792  0.00  0.00    +0.000 A 
ATOM     19  C   UNL     1      50.739   2.372  17.359  0.00  0.00    +0.000 A 
ATOM     20 CL   UNL     1      52.139   1.526  17.880  0.00  0.00    +0.000 Cl
ATOM     21  C   UNL     1      49.830   1.784  16.495  0.00  0.00    +0.000 A 
ATOM     22  N   UNL     1      48.707   2.398  16.043  0.00  0.00    +0.000 NA
ENDBRANCH  15  16
ENDBRANCH  14  15
ENDBRANCH   6  14
TORSDOF 5
ENDMDL
MODEL 7
REMARK VINA RESULT:    -6.335      3.228      6.404
REMARK INTER + INTRA:          -8.656
REMARK INTER:                  -8.635
REMARK INTRA:                  -0.021
REMARK UNBOUND:                -0.469
REMARK  Name = 
REMARK  6 active torsions:
REMARK  status: ('A' for Active; 'I' for Inactive)
REMARK    1  A    between atoms: C_1  and  O_2
REMARK    2  A    between atoms: O_2  and  C_3
REMARK    3  A    between atoms: C_5  and  C_6
REMARK    4  A    between atoms: C_11  and  O_12
REMARK    5  A    between atoms: O_12  and  C_13
REMARK    6  A    between atoms: C_13  and  C_14
REMARK                            x       y       z     vdW  Elec       q    Type
REMARK                         _______ _______ _______ _____ _____    ______ ____
ROOT
ATOM      1  C   UNL     1      44.262   3.075   9.865  0.00  0.00    +0.000 A 
ATOM      2  C   UNL     1      45.003   2.031   9.303  0.00  0.00    +0.000 A 
ATOM      3  C   UNL     1      46.011   2.310   8.380  0.00  0.00    +0.000 A 
ATOM      4  C   UNL     1      46.246   3.640   8.059  0.00  0.00    +0.000 A 
ATOM      5  N   UNL     1      45.582   4.681   8.617  0.00  0.00    +0.000 NA
ATOM      6  C   UNL     1      44.613   4.385   9.517  0.00  0.00    +0.000 A 
ENDROOT
BRANCH   3   7
ATOM      7  C   UNL     1      46.801   1.265   7.700  0.00  0.00    +0.000 C 
ATOM      8  N   UNL     1      47.810   1.671   6.873  0.00  0.00    +0.000 N 
ATOM      9  O   UNL     1      46.544   0.078   7.849  0.00  0.00    +0.000 OA
ATOM     10  H   UNL     1      47.926   2.625   6.561  0.00  0.00    +0.000 HD
ATOM     11  H   UNL     1      48.288   0.946   6.351  0.00  0.00    +0.000 HD
ENDBRANCH   3   7
BRANCH   1  13
ATOM     12  C   UNL     1      43.685   2.459  12.081  0.00  0.00    +0.000 C 
ATOM     13  O   UNL     1      43.286   2.663  10.729  0.00  0.00    +0.000 OA
ENDBRANCH   1  13
BRANCH   6  14
ATOM     14  O   UNL     1      43.915   5.436  10.062  0.00  0.00    +0.000 OA
BRANCH  14  15
ATOM     15  C   UNL     1      44.114   5.576  11.470  0.00  0.00    +0.000 C 
BRANCH  15  16
ATOM     16  C   UNL     1      45.232   6.572  11.702  0.00  0.00    +0.000 A 
ATOM     17  C   UNL     1      44.948   7.938  11.756  0.00  0.00    +0.000 A 
ATOM     18  C   UNL     1      45.991   8.844  11.952  0.00  0.00    +0.000 A 
ATOM     19  C   UNL     1      47.285   8.363  12.091  0.00  0.00    +0.000 A 
ATOM     20 CL   UNL     1      48.599   9.441  12.331  0.00  0.00    +0.000 Cl
ATOM     21  C   UNL     1      47.488   6.994  12.029  0.00  0.00    +0.000 A 
ATOM     22  N   UNL     1      46.495   6.089  11.838  0.00  0.00    +0.000 NA
ENDBRANCH  15  16
ENDBRANCH  14  15
ENDBRANCH   6  14
TORSDOF 5
ENDMDL
MODEL 8
REMARK VINA RESULT:    -6.190      4.279      6.635
REMARK INTER + INTRA:          -8.468
REMARK INTER:                  -8.020
REMARK INTRA:                  -0.448
REMARK UNBOUND:                -0.469
REMARK  Name = 
REMARK  6 active torsions:
REMARK  status: ('A' for Active; 'I' for Inactive)
REMARK    1  A    between atoms: C_1  and  O_2
REMARK    2  A    between atoms: O_2  and  C_3
REMARK    3  A    between atoms: C_5  and  C_6
REMARK    4  A    between atoms: C_11  and  O_12
REMARK    5  A    between atoms: O_12  and  C_13
REMARK    6  A    between atoms: C_13  and  C_14
REMARK                            x       y       z     vdW  Elec       q    Type
REMARK                         _______ _______ _______ _____ _____    ______ ____
ROOT
ATOM      1  C   UNL     1      45.485   4.336  13.102  0.00  0.00    +0.000 A 
ATOM      2  C   UNL     1      44.934   5.399  12.379  0.00  0.00    +0.000 A 
ATOM      3  C   UNL     1      45.530   6.659  12.431  0.00  0.00    +0.000 A 
ATOM      4  C   UNL     1      46.672   6.805  13.206  0.00  0.00    +0.000 A 
ATOM      5  N   UNL     1      47.261   5.789  13.882  0.00  0.00    +0.000 NA
ATOM      6  C   UNL     1      46.669   4.573  13.809  0.00  0.00    +0.000 A 
ENDROOT
BRANCH   3   7
ATOM      7  C   UNL     1      44.982   7.845  11.744  0.00  0.00    +0.000 C 
ATOM      8  N   UNL     1      43.764   7.720  11.137  0.00  0.00    +0.000 N 
ATOM      9  O   UNL     1      45.607   8.896  11.696  0.00  0.00    +0.000 OA
ATOM     10  H   UNL     1      43.312   6.832  10.973  0.00  0.00    +0.000 HD
ATOM     11  H   UNL     1      43.441   8.517  10.602  0.00  0.00    +0.000 HD
ENDBRANCH   3   7
BRANCH   1  13
ATOM     12  C   UNL     1      43.721   3.155  12.044  0.00  0.00    +0.000 C 
ATOM     13  O   UNL     1      44.787   3.166  12.988  0.00  0.00    +0.000 OA
ENDBRANCH   1  13
BRANCH   6  14
ATOM     14  O   UNL     1      47.245   3.546  14.519  0.00  0.00    +0.000 OA
BRANCH  14  15
ATOM     15  C   UNL     1      47.241   3.766  15.931  0.00  0.00    +0.000 C 
BRANCH  15  16
ATOM     16  C   UNL     1      48.583   3.340  16.490  0.00  0.00    +0.000 A 
ATOM     17  C   UNL     1      49.301   4.208  17.314  0.00  0.00    +0.000 A 
ATOM     18  C   UNL     1      50.545   3.810  17.806  0.00  0.00    +0.000 A 
ATOM     19  C   UNL     1      51.035   2.557  17.464  0.00  0.00    +0.000 A 
ATOM     20 CL   UNL     1      52.562   2.026  18.043  0.00  0.00    +0.000 Cl
ATOM     21  C   UNL     1      50.264   1.750  16.644  0.00  0.00    +0.000 A 
ATOM     22  N   UNL     1      49.052   2.111  16.149  0.00  0.00    +0.000 NA
ENDBRANCH  15  16
ENDBRANCH  14  15
ENDBRANCH   6  14
TORSDOF 5
ENDMDL
MODEL 9
REMARK VINA RESULT:    -6.091      4.407      7.411
REMARK INTER + INTRA:          -8.340
REMARK INTER:                  -7.728
REMARK INTRA:                  -0.612
REMARK UNBOUND:                -0.469
REMARK  Name = 
REMARK  6 active torsions:
REMARK  status: ('A' for Active; 'I' for Inactive)
REMARK    1  A    between atoms: C_1  and  O_2
REMARK    2  A    between atoms: O_2  and  C_3
REMARK    3  A    between atoms: C_5  and  C_6
REMARK    4  A    between atoms: C_11  and  O_12
REMARK    5  A    between atoms: O_12  and  C_13
REMARK    6  A    between atoms: C_13  and  C_14
REMARK                            x       y       z     vdW  Elec       q    Type
REMARK                         _______ _______ _______ _____ _____    ______ ____
ROOT
ATOM      1  C   UNL     1      46.722   5.518  13.194  0.00  0.00    +0.000 A 
ATOM      2  C   UNL     1      45.778   5.804  12.203  0.00  0.00    +0.000 A 
ATOM      3  C   UNL     1      44.977   4.784  11.690  0.00  0.00    +0.000 A 
ATOM      4  C   UNL     1      45.148   3.505  12.201  0.00  0.00    +0.000 A 
ATOM      5  N   UNL     1      46.019   3.198  13.193  0.00  0.00    +0.000 NA
ATOM      6  C   UNL     1      46.780   4.208  13.682  0.00  0.00    +0.000 A 
ENDROOT
BRANCH   3   7
ATOM      7  C   UNL     1      43.997   4.989  10.606  0.00  0.00    +0.000 C 
ATOM      8  N   UNL     1      44.398   4.715   9.328  0.00  0.00    +0.000 N 
ATOM      9  O   UNL     1      42.873   5.416  10.838  0.00  0.00    +0.000 OA
ATOM     10  H   UNL     1      45.361   4.562   9.067  0.00  0.00    +0.000 HD
ATOM     11  H   UNL     1      43.742   4.939   8.589  0.00  0.00    +0.000 HD
ENDBRANCH   3   7
BRANCH   1  13
ATOM     12  C   UNL     1      48.663   6.840  12.862  0.00  0.00    +0.000 C 
ATOM     13  O   UNL     1      47.461   6.600  13.587  0.00  0.00    +0.000 OA
ENDBRANCH   1  13
BRANCH   6  14
ATOM     14  O   UNL     1      47.687   3.895  14.666  0.00  0.00    +0.000 OA
BRANCH  14  15
ATOM     15  C   UNL     1      47.130   3.942  15.982  0.00  0.00    +0.000 C 
BRANCH  15  16
ATOM     16  C   UNL     1      47.991   4.849  16.837  0.00  0.00    +0.000 A 
ATOM     17  C   UNL     1      47.580   5.182  18.130  0.00  0.00    +0.000 A 
ATOM     18  C   UNL     1      48.374   6.033  18.899  0.00  0.00    +0.000 A 
ATOM     19  C   UNL     1      49.554   6.526  18.359  0.00  0.00    +0.000 A 
ATOM     20 CL   UNL     1      50.560   7.579  19.269  0.00  0.00    +0.000 Cl
ATOM     21  C   UNL     1      49.896   6.149  17.071  0.00  0.00    +0.000 A 
ATOM     22  N   UNL     1      49.144   5.324  16.299  0.00  0.00    +0.000 NA
ENDBRANCH  15  16
ENDBRANCH  14  15
ENDBRANCH   6  14
TORSDOF 5
ENDMDL
