MODEL 1
REMARK VINA RESULT:    -8.536      0.000      0.000
REMARK INTER + INTRA:         -11.794
REMARK INTER:                 -11.031
REMARK INTRA:                  -0.762
REMARK UNBOUND:                -0.762
REMARK  Name = 
REMARK  5 active torsions:
REMARK  status: ('A' for Active; 'I' for Inactive)
REMARK    1  A    between atoms: C_2  and  C_4
REMARK    2  A    between atoms: C_7  and  O_8
REMARK    3  A    between atoms: O_8  and  C_9
REMARK    4  A    between atoms: C_9  and  C_10
REMARK    5  A    between atoms: C_14  and  C_15
REMARK                            x       y       z     vdW  Elec       q    Type
REMARK                         _______ _______ _______ _____ _____    ______ ____
ROOT
ATOM      1  C   UNL     1      43.807   5.165  10.660  0.00  0.00    +0.000 C 
ENDROOT
BRANCH   1   2
ATOM      2  C   UNL     1      44.852   5.153  11.745  0.00  0.00    +0.000 A 
ATOM      3  C   UNL     1      44.773   4.228  12.777  0.00  0.00    +0.000 A 
ATOM      4  N   UNL     1      45.687   4.119  13.763  0.00  0.00    +0.000 NA
ATOM      5  C   UNL     1      46.741   4.970  13.711  0.00  0.00    +0.000 A 
ATOM      6  C   UNL     1      46.956   5.927  12.716  0.00  0.00    +0.000 A 
ATOM      7  C   UNL     1      45.974   5.990  11.716  0.00  0.00    +0.000 A 
BRANCH   6   8
ATOM      8  C   UNL     1      48.140   6.809  12.705  0.00  0.00    +0.000 A 
ATOM      9  C   UNL     1      48.508   7.560  11.579  0.00  0.00    +0.000 A 
ATOM     10  C   UNL     1      49.626   8.393  11.614  0.00  0.00    +0.000 A 
ATOM     11  C   UNL     1      50.356   8.466  12.786  0.00  0.00    +0.000 A 
ATOM     12  N   UNL     1      50.052   7.766  13.895  0.00  0.00    +0.000 NA
ATOM     13  C   UNL     1      48.965   6.958  13.824  0.00  0.00    +0.000 A 
ENDBRANCH   6   8
ENDBRANCH   1   2
BRANCH   1  14
ATOM     14  O   UNL     1      43.582   3.841  10.162  0.00  0.00    +0.000 OA
BRANCH  14  18
ATOM     15  C   UNL     1      46.463   2.630   7.482  0.00  0.00    +0.000 A 
ATOM     16  C   UNL     1      45.931   1.707   8.385  0.00  0.00    +0.000 A 
ATOM     17  C   UNL     1      44.959   2.130   9.295  0.00  0.00    +0.000 A 
ATOM     18  C   UNL     1      44.556   3.456   9.263  0.00  0.00    +0.000 A 
ATOM     19  N   UNL     1      45.064   4.371   8.408  0.00  0.00    +0.000 NA
ATOM     20  C   UNL     1      46.013   3.941   7.544  0.00  0.00    +0.000 A 
BRANCH  15  22
ATOM     21  N   UNL     1      47.495   3.025   5.319  0.00  0.00    +0.000 N 
ATOM     22  C   UNL     1      47.484   2.290   6.471  0.00  0.00    +0.000 C 
ATOM     23  O   UNL     1      48.319   1.419   6.673  0.00  0.00    +0.000 OA
ATOM     24  H   UNL     1      48.277   2.860   4.695  0.00  0.00    +0.000 HD
ATOM     25  H   UNL     1      47.007   3.904   5.229  0.00  0.00    +0.000 HD
ENDBRANCH  15  22
ENDBRANCH  14  18
ENDBRANCH   1  14
TORSDOF 5
ENDMDL
MODEL 2
REMARK VINA RESULT:    -8.304      1.770      2.090
REMARK INTER + INTRA:         -11.494
REMARK INTER:                 -10.707
REMARK INTRA:                  -0.787
REMARK UNBOUND:                -0.762
REMARK  Name = 
REMARK  5 active torsions:
REMARK  status: ('A' for Active; 'I' for Inactive)
REMARK    1  A    between atoms: C_2  and  C_4
REMARK    2  A    between atoms: C_7  and  O_8
REMARK    3  A    between atoms: O_8  and  C_9
REMARK    4  A    between atoms: C_9  and  C_10
REMARK    5  A    between atoms: C_14  and  C_15
REMARK                            x       y       z     vdW  Elec       q    Type
REMARK                         _______ _______ _______ _____ _____    ______ ____
ROOT
ATOM      1  C   UNL     1      43.923   3.756  11.635  0.00  0.00    +0.000 C 
ENDROOT
BRANCH   1   2
ATOM      2  C   UNL     1      45.103   4.463  12.248  0.00  0.00    +0.000 A 
ATOM      3  C   UNL     1      46.012   3.756  13.024  0.00  0.00    +0.000 A 
ATOM      4  N   UNL     1      47.118   4.299  13.572  0.00  0.00    +0.000 NA
ATOM      5  C   UNL     1      47.334   5.615  13.326  0.00  0.00    +0.000 A 
ATOM      6  C   UNL     1      46.517   6.434  12.543  0.00  0.00    +0.000 A 
ATOM      7  C   UNL     1      45.385   5.811  11.996  0.00  0.00    +0.000 A 
BRANCH   6   8
ATOM      8  C   UNL     1      46.823   7.856  12.294  0.00  0.00    +0.000 A 
ATOM      9  C   UNL     1      48.120   8.310  12.014  0.00  0.00    +0.000 A 
ATOM     10  C   UNL     1      48.364   9.661  11.769  0.00  0.00    +0.000 A 
ATOM     11  C   UNL     1      47.297  10.539  11.803  0.00  0.00    +0.000 A 
ATOM     12  N   UNL     1      46.032  10.161  12.069  0.00  0.00    +0.000 NA
ATOM     13  C   UNL     1      45.832   8.842  12.312  0.00  0.00    +0.000 A 
ENDBRANCH   6   8
ENDBRANCH   1   2
BRANCH   1  14
ATOM     14  O   UNL     1      43.726   4.182  10.282  0.00  0.00    +0.000 OA
BRANCH  14  18
ATOM     15  C   UNL     1      46.422   2.443   7.701  0.00  0.00    +0.000 A 
ATOM     16  C   UNL     1      46.217   3.824   7.656  0.00  0.00    +0.000 A 
ATOM     17  C   UNL     1      45.295   4.403   8.531  0.00  0.00    +0.000 A 
ATOM     18  C   UNL     1      44.617   3.579   9.417  0.00  0.00    +0.000 A 
ATOM     19  N   UNL     1      44.788   2.240   9.472  0.00  0.00    +0.000 NA
ATOM     20  C   UNL     1      45.677   1.700   8.606  0.00  0.00    +0.000 A 
BRANCH  15  22
ATOM     21  N   UNL     1      48.489   2.415   6.426  0.00  0.00    +0.000 N 
ATOM     22  C   UNL     1      47.378   1.729   6.832  0.00  0.00    +0.000 C 
ATOM     23  O   UNL     1      47.212   0.556   6.526  0.00  0.00    +0.000 OA
ATOM     24  H   UNL     1      49.190   1.872   5.935  0.00  0.00    +0.000 HD
ATOM     25  H   UNL     1      48.788   3.274   6.863  0.00  0.00    +0.000 HD
ENDBRANCH  15  22
ENDBRANCH  14  18
ENDBRANCH   1  14
TORSDOF 5
ENDMDL
MODEL 3
REMARK VINA RESULT:    -8.124      2.029      3.069
REMARK INTER + INTRA:         -11.261
REMARK INTER:                 -10.556
REMARK INTRA:                  -0.705
REMARK UNBOUND:                -0.762
REMARK  Name = 
REMARK  5 active torsions:
REMARK  status: ('A' for Active; 'I' for Inactive)
REMARK    1  A    between atoms: C_2  and  C_4
REMARK    2  A    between atoms: C_7  and  O_8
REMARK    3  A    between atoms: O_8  and  C_9
REMARK    4  A    between atoms: C_9  and  C_10
REMARK    5  A    between atoms: C_14  and  C_15
REMARK                            x       y       z     vdW  Elec       q    Type
REMARK                         _______ _______ _______ _____ _____    ______ ____
ROOT
ATOM      1  C   UNL     1      43.685   4.539  11.298  0.00  0.00    +0.000 C 
ENDROOT
BRANCH   1   2
ATOM      2  C   UNL     1      44.865   5.274  11.876  0.00  0.00    +0.000 A 
ATOM      3  C   UNL     1      45.263   6.489  11.333  0.00  0.00    +0.000 A 
ATOM      4  N   UNL     1      46.277   7.234  11.817  0.00  0.00    +0.000 NA
ATOM      5  C   UNL     1      46.924   6.747  12.904  0.00  0.00    +0.000 A 
ATOM      6  C   UNL     1      46.611   5.556  13.563  0.00  0.00    +0.000 A 
ATOM      7  C   UNL     1      45.543   4.828  13.017  0.00  0.00    +0.000 A 
BRANCH   6   8
ATOM      8  C   UNL     1      47.341   5.094  14.759  0.00  0.00    +0.000 A 
ATOM      9  C   UNL     1      47.118   3.836  15.338  0.00  0.00    +0.000 A 
ATOM     10  C   UNL     1      47.840   3.430  16.460  0.00  0.00    +0.000 A 
ATOM     11  C   UNL     1      48.784   4.294  16.982  0.00  0.00    +0.000 A 
ATOM     12  N   UNL     1      49.038   5.514  16.471  0.00  0.00    +0.000 NA
ATOM     13  C   UNL     1      48.312   5.881  15.387  0.00  0.00    +0.000 A 
ENDBRANCH   6   8
ENDBRANCH   1   2
BRANCH   1  14
ATOM     14  O   UNL     1      43.653   4.677   9.873  0.00  0.00    +0.000 OA
BRANCH  14  18
ATOM     15  C   UNL     1      46.233   2.064   8.011  0.00  0.00    +0.000 A 
ATOM     16  C   UNL     1      46.301   3.427   7.715  0.00  0.00    +0.000 A 
ATOM     17  C   UNL     1      45.416   4.304   8.347  0.00  0.00    +0.000 A 
ATOM     18  C   UNL     1      44.502   3.784   9.250  0.00  0.00    +0.000 A 
ATOM     19  N   UNL     1      44.408   2.469   9.544  0.00  0.00    +0.000 NA
ATOM     20  C   UNL     1      45.267   1.636   8.910  0.00  0.00    +0.000 A 
BRANCH  15  22
ATOM     21  N   UNL     1      46.820  -0.263   7.633  0.00  0.00    +0.000 N 
ATOM     22  C   UNL     1      47.124   1.051   7.411  0.00  0.00    +0.000 C 
ATOM     23  O   UNL     1      48.070   1.370   6.704  0.00  0.00    +0.000 OA
ATOM     24  H   UNL     1      47.368  -0.939   7.115  0.00  0.00    +0.000 HD
ATOM     25  H   UNL     1      45.920  -0.562   7.980  0.00  0.00    +0.000 HD
ENDBRANCH  15  22
ENDBRANCH  14  18
ENDBRANCH   1  14
TORSDOF 5
ENDMDL
MODEL 4
REMARK VINA RESULT:    -7.652      2.576      6.667
REMARK INTER + INTRA:         -10.651
REMARK INTER:                  -9.949
REMARK INTRA:                  -0.702
REMARK UNBOUND:                -0.762
REMARK  Name = 
REMARK  5 active torsions:
REMARK  status: ('A' for Active; 'I' for Inactive)
REMARK    1  A    between atoms: C_2  and  C_4
REMARK    2  A    between atoms: C_7  and  O_8
REMARK    3  A    between atoms: O_8  and  C_9
REMARK    4  A    between atoms: C_9  and  C_10
REMARK    5  A    between atoms: C_14  and  C_15
REMARK                            x       y       z     vdW  Elec       q    Type
REMARK                         _______ _______ _______ _____ _____    ______ ____
ROOT
ATOM      1  C   UNL     1      43.887   6.188  11.247  0.00  0.00    +0.000 C 
ENDROOT
BRANCH   1   2
ATOM      2  C   UNL     1      44.052   4.762  10.790  0.00  0.00    +0.000 A 
ATOM      3  C   UNL     1      43.316   3.749  11.390  0.00  0.00    +0.000 A 
ATOM      4  N   UNL     1      43.368   2.455  11.013  0.00  0.00    +0.000 NA
ATOM      5  C   UNL     1      44.191   2.157   9.978  0.00  0.00    +0.000 A 
ATOM      6  C   UNL     1      44.965   3.080   9.270  0.00  0.00    +0.000 A 
ATOM      7  C   UNL     1      44.865   4.410   9.705  0.00  0.00    +0.000 A 
BRANCH   6   8
ATOM      8  C   UNL     1      45.824   2.692   8.135  0.00  0.00    +0.000 A 
ATOM      9  C   UNL     1      46.133   3.575   7.090  0.00  0.00    +0.000 A 
ATOM     10  C   UNL     1      46.962   3.174   6.042  0.00  0.00    +0.000 A 
ATOM     11  C   UNL     1      47.475   1.890   6.062  0.00  0.00    +0.000 A 
ATOM     12  N   UNL     1      47.209   1.000   7.037  0.00  0.00    +0.000 NA
ATOM     13  C   UNL     1      46.393   1.419   8.035  0.00  0.00    +0.000 A 
ENDBRANCH   6   8
ENDBRANCH   1   2
BRANCH   1  14
ATOM     14  O   UNL     1      44.132   6.299  12.654  0.00  0.00    +0.000 OA
BRANCH  14  18
ATOM     15  C   UNL     1      48.107   7.024  13.444  0.00  0.00    +0.000 A 
ATOM     16  C   UNL     1      47.609   5.723  13.553  0.00  0.00    +0.000 A 
ATOM     17  C   UNL     1      46.258   5.490  13.289  0.00  0.00    +0.000 A 
ATOM     18  C   UNL     1      45.460   6.563  12.925  0.00  0.00    +0.000 A 
ATOM     19  N   UNL     1      45.914   7.832  12.826  0.00  0.00    +0.000 NA
ATOM     20  C   UNL     1      47.224   8.036  13.098  0.00  0.00    +0.000 A 
BRANCH  15  22
ATOM     21  N   UNL     1      50.347   7.439  12.602  0.00  0.00    +0.000 N 
ATOM     22  C   UNL     1      49.519   7.382  13.688  0.00  0.00    +0.000 C 
ATOM     23  O   UNL     1      49.923   7.664  14.807  0.00  0.00    +0.000 OA
ATOM     24  H   UNL     1      51.277   7.805  12.773  0.00  0.00    +0.000 HD
ATOM     25  H   UNL     1      50.001   7.474  11.655  0.00  0.00    +0.000 HD
ENDBRANCH  15  22
ENDBRANCH  14  18
ENDBRANCH   1  14
TORSDOF 5
ENDMDL
MODEL 5
REMARK VINA RESULT:    -7.108      3.139      7.659
REMARK INTER + INTRA:          -9.948
REMARK INTER:                  -9.388
REMARK INTRA:                  -0.560
REMARK UNBOUND:                -0.762
REMARK  Name = 
REMARK  5 active torsions:
REMARK  status: ('A' for Active; 'I' for Inactive)
REMARK    1  A    between atoms: C_2  and  C_4
REMARK    2  A    between atoms: C_7  and  O_8
REMARK    3  A    between atoms: O_8  and  C_9
REMARK    4  A    between atoms: C_9  and  C_10
REMARK    5  A    between atoms: C_14  and  C_15
REMARK                            x       y       z     vdW  Elec       q    Type
REMARK                         _______ _______ _______ _____ _____    ______ ____
ROOT
ATOM      1  C   UNL     1      45.204   5.334  12.572  0.00  0.00    +0.000 C 
ENDROOT
BRANCH   1   2
ATOM      2  C   UNL     1      44.824   4.197  11.660  0.00  0.00    +0.000 A 
ATOM      3  C   UNL     1      43.696   3.434  11.932  0.00  0.00    +0.000 A 
ATOM      4  N   UNL     1      43.259   2.429  11.145  0.00  0.00    +0.000 NA
ATOM      5  C   UNL     1      43.978   2.178  10.024  0.00  0.00    +0.000 A 
ATOM      6  C   UNL     1      45.113   2.884   9.619  0.00  0.00    +0.000 A 
ATOM      7  C   UNL     1      45.516   3.920  10.474  0.00  0.00    +0.000 A 
BRANCH   6   8
ATOM      8  C   UNL     1      45.838   2.575   8.371  0.00  0.00    +0.000 A 
ATOM      9  C   UNL     1      46.055   3.532   7.370  0.00  0.00    +0.000 A 
ATOM     10  C   UNL     1      46.759   3.204   6.211  0.00  0.00    +0.000 A 
ATOM     11  C   UNL     1      47.242   1.915   6.078  0.00  0.00    +0.000 A 
ATOM     12  N   UNL     1      47.060   0.954   7.004  0.00  0.00    +0.000 NA
ATOM     13  C   UNL     1      46.364   1.305   8.113  0.00  0.00    +0.000 A 
ENDBRANCH   6   8
ENDBRANCH   1   2
BRANCH   1  14
ATOM     14  O   UNL     1      46.628   5.478  12.632  0.00  0.00    +0.000 OA
BRANCH  14  18
ATOM     15  C   UNL     1      48.068   5.050  16.465  0.00  0.00    +0.000 A 
ATOM     16  C   UNL     1      48.479   6.138  15.692  0.00  0.00    +0.000 A 
ATOM     17  C   UNL     1      47.989   6.270  14.390  0.00  0.00    +0.000 A 
ATOM     18  C   UNL     1      47.108   5.312  13.915  0.00  0.00    +0.000 A 
ATOM     19  N   UNL     1      46.706   4.243  14.637  0.00  0.00    +0.000 NA
ATOM     20  C   UNL     1      47.202   4.130  15.891  0.00  0.00    +0.000 A 
BRANCH  15  22
ATOM     21  N   UNL     1      47.543   4.665  18.805  0.00  0.00    +0.000 N 
ATOM     22  C   UNL     1      48.512   4.819  17.853  0.00  0.00    +0.000 C 
ATOM     23  O   UNL     1      49.698   4.720  18.138  0.00  0.00    +0.000 OA
ATOM     24  H   UNL     1      47.864   4.386  19.724  0.00  0.00    +0.000 HD
ATOM     25  H   UNL     1      46.578   4.478  18.573  0.00  0.00    +0.000 HD
ENDBRANCH  15  22
ENDBRANCH  14  18
ENDBRANCH   1  14
TORSDOF 5
ENDMDL
MODEL 6
REMARK VINA RESULT:    -6.710      2.712      6.758
REMARK INTER + INTRA:          -9.433
REMARK INTER:                  -8.749
REMARK INTRA:                  -0.684
REMARK UNBOUND:                -0.762
REMARK  Name = 
REMARK  5 active torsions:
REMARK  status: ('A' for Active; 'I' for Inactive)
REMARK    1  A    between atoms: C_2  and  C_4
REMARK    2  A    between atoms: C_7  and  O_8
REMARK    3  A    between atoms: O_8  and  C_9
REMARK    4  A    between atoms: C_9  and  C_10
REMARK    5  A    between atoms: C_14  and  C_15
REMARK                            x       y       z     vdW  Elec       q    Type
REMARK                         _______ _______ _______ _____ _____    ______ ____
ROOT
ATOM      1  C   UNL     1      44.742   5.294  13.173  0.00  0.00    +0.000 C 
ENDROOT
BRANCH   1   2
ATOM      2  C   UNL     1      44.479   4.189  12.184  0.00  0.00    +0.000 A 
ATOM      3  C   UNL     1      43.451   3.283  12.410  0.00  0.00    +0.000 A 
ATOM      4  N   UNL     1      43.118   2.293  11.556  0.00  0.00    +0.000 NA
ATOM      5  C   UNL     1      43.842   2.207  10.414  0.00  0.00    +0.000 A 
ATOM      6  C   UNL     1      44.882   3.066  10.051  0.00  0.00    +0.000 A 
ATOM      7  C   UNL     1      45.179   4.078  10.976  0.00  0.00    +0.000 A 
BRANCH   6   8
ATOM      8  C   UNL     1      45.617   2.931   8.779  0.00  0.00    +0.000 A 
ATOM      9  C   UNL     1      46.124   1.704   8.328  0.00  0.00    +0.000 A 
ATOM     10  C   UNL     1      46.800   1.616   7.111  0.00  0.00    +0.000 A 
ATOM     11  C   UNL     1      46.952   2.766   6.359  0.00  0.00    +0.000 A 
ATOM     12  N   UNL     1      46.490   3.972   6.743  0.00  0.00    +0.000 NA
ATOM     13  C   UNL     1      45.846   4.023   7.935  0.00  0.00    +0.000 A 
ENDBRANCH   6   8
ENDBRANCH   1   2
BRANCH   1  14
ATOM     14  O   UNL     1      46.122   5.309  13.558  0.00  0.00    +0.000 OA
BRANCH  14  18
ATOM     15  C   UNL     1      48.057   8.734  12.344  0.00  0.00    +0.000 A 
ATOM     16  C   UNL     1      48.795   7.571  12.575  0.00  0.00    +0.000 A 
ATOM     17  C   UNL     1      48.129   6.416  12.993  0.00  0.00    +0.000 A 
ATOM     18  C   UNL     1      46.754   6.470  13.161  0.00  0.00    +0.000 A 
ATOM     19  N   UNL     1      46.019   7.585  12.957  0.00  0.00    +0.000 NA
ATOM     20  C   UNL     1      46.688   8.695  12.564  0.00  0.00    +0.000 A 
BRANCH  15  22
ATOM     21  N   UNL     1      49.704   9.928  11.017  0.00  0.00    +0.000 N 
ATOM     22  C   UNL     1      48.655  10.005  11.890  0.00  0.00    +0.000 C 
ATOM     23  O   UNL     1      48.202  11.086  12.239  0.00  0.00    +0.000 OA
ATOM     24  H   UNL     1      50.019  10.807  10.623  0.00  0.00    +0.000 HD
ATOM     25  H   UNL     1      49.930   9.084  10.510  0.00  0.00    +0.000 HD
ENDBRANCH  15  22
ENDBRANCH  14  18
ENDBRANCH   1  14
TORSDOF 5
ENDMDL
MODEL 7
REMARK VINA RESULT:    -6.675      2.709      6.888
REMARK INTER + INTRA:          -9.388
REMARK INTER:                  -8.688
REMARK INTRA:                  -0.700
REMARK UNBOUND:                -0.762
REMARK  Name = 
REMARK  5 active torsions:
REMARK  status: ('A' for Active; 'I' for Inactive)
REMARK    1  A    between atoms: C_2  and  C_4
REMARK    2  A    between atoms: C_7  and  O_8
REMARK    3  A    between atoms: O_8  and  C_9
REMARK    4  A    between atoms: C_9  and  C_10
REMARK    5  A    between atoms: C_14  and  C_15
REMARK                            x       y       z     vdW  Elec       q    Type
REMARK                         _______ _______ _______ _____ _____    ______ ____
ROOT
ATOM      1  C   UNL     1      44.923   7.215  11.505  0.00  0.00    +0.000 C 
ENDROOT
BRANCH   1   2
ATOM      2  C   UNL     1      44.591   5.814  11.064  0.00  0.00    +0.000 A 
ATOM      3  C   UNL     1      43.473   5.169  11.577  0.00  0.00    +0.000 A 
ATOM      4  N   UNL     1      43.078   3.935  11.204  0.00  0.00    +0.000 NA
ATOM      5  C   UNL     1      43.831   3.314  10.264  0.00  0.00    +0.000 A 
ATOM      6  C   UNL     1      44.961   3.857   9.648  0.00  0.00    +0.000 A 
ATOM      7  C   UNL     1      45.320   5.145  10.073  0.00  0.00    +0.000 A 
BRANCH   6   8
ATOM      8  C   UNL     1      45.725   3.137   8.611  0.00  0.00    +0.000 A 
ATOM      9  C   UNL     1      45.864   1.741   8.612  0.00  0.00    +0.000 A 
ATOM     10  C   UNL     1      46.582   1.097   7.604  0.00  0.00    +0.000 A 
ATOM     11  C   UNL     1      47.147   1.866   6.604  0.00  0.00    +0.000 A 
ATOM     12  N   UNL     1      47.050   3.208   6.555  0.00  0.00    +0.000 NA
ATOM     13  C   UNL     1      46.353   3.803   7.554  0.00  0.00    +0.000 A 
ENDBRANCH   6   8
ENDBRANCH   1   2
BRANCH   1  14
ATOM     14  O   UNL     1      45.446   7.214  12.838  0.00  0.00    +0.000 OA
BRANCH  14  18
ATOM     15  C   UNL     1      49.497   7.951  12.861  0.00  0.00    +0.000 A 
ATOM     16  C   UNL     1      48.702   8.503  11.854  0.00  0.00    +0.000 A 
ATOM     17  C   UNL     1      47.330   8.241  11.852  0.00  0.00    +0.000 A 
ATOM     18  C   UNL     1      46.808   7.441  12.856  0.00  0.00    +0.000 A 
ATOM     19  N   UNL     1      47.556   6.884  13.834  0.00  0.00    +0.000 NA
ATOM     20  C   UNL     1      48.885   7.142  13.809  0.00  0.00    +0.000 A 
BRANCH  15  22
ATOM     21  N   UNL     1      51.712   7.878  11.868  0.00  0.00    +0.000 N 
ATOM     22  C   UNL     1      50.953   8.171  12.967  0.00  0.00    +0.000 C 
ATOM     23  O   UNL     1      51.457   8.641  13.977  0.00  0.00    +0.000 OA
ATOM     24  H   UNL     1      52.687   8.151  11.918  0.00  0.00    +0.000 HD
ATOM     25  H   UNL     1      51.314   7.744  10.951  0.00  0.00    +0.000 HD
ENDBRANCH  15  22
ENDBRANCH  14  18
ENDBRANCH   1  14
TORSDOF 5
ENDMDL
MODEL 8
REMARK VINA RESULT:    -6.495      3.375      7.606
REMARK INTER + INTRA:          -9.156
REMARK INTER:                  -8.588
REMARK INTRA:                  -0.568
REMARK UNBOUND:                -0.762
REMARK  Name = 
REMARK  5 active torsions:
REMARK  status: ('A' for Active; 'I' for Inactive)
REMARK    1  A    between atoms: C_2  and  C_4
REMARK    2  A    between atoms: C_7  and  O_8
REMARK    3  A    between atoms: O_8  and  C_9
REMARK    4  A    between atoms: C_9  and  C_10
REMARK    5  A    between atoms: C_14  and  C_15
REMARK                            x       y       z     vdW  Elec       q    Type
REMARK                         _______ _______ _______ _____ _____    ______ ____
ROOT
ATOM      1  C   UNL     1      46.259   6.896  13.158  0.00  0.00    +0.000 C 
ENDROOT
BRANCH   1   2
ATOM      2  C   UNL     1      45.356   6.095  12.257  0.00  0.00    +0.000 A 
ATOM      3  C   UNL     1      43.982   6.115  12.453  0.00  0.00    +0.000 A 
ATOM      4  N   UNL     1      43.099   5.465  11.667  0.00  0.00    +0.000 NA
ATOM      5  C   UNL     1      43.613   4.766  10.625  0.00  0.00    +0.000 A 
ATOM      6  C   UNL     1      44.969   4.684  10.299  0.00  0.00    +0.000 A 
ATOM      7  C   UNL     1      45.837   5.385  11.150  0.00  0.00    +0.000 A 
BRANCH   6   8
ATOM      8  C   UNL     1      45.462   3.924   9.134  0.00  0.00    +0.000 A 
ATOM      9  C   UNL     1      45.417   2.524   9.076  0.00  0.00    +0.000 A 
ATOM     10  C   UNL     1      45.880   1.843   7.950  0.00  0.00    +0.000 A 
ATOM     11  C   UNL     1      46.376   2.582   6.892  0.00  0.00    +0.000 A 
ATOM     12  N   UNL     1      46.447   3.927   6.894  0.00  0.00    +0.000 NA
ATOM     13  C   UNL     1      45.997   4.556   8.008  0.00  0.00    +0.000 A 
ENDBRANCH   6   8
ENDBRANCH   1   2
BRANCH   1  14
ATOM     14  O   UNL     1      47.561   6.303  13.224  0.00  0.00    +0.000 OA
BRANCH  14  18
ATOM     15  C   UNL     1      48.297   4.596  16.897  0.00  0.00    +0.000 A 
ATOM     16  C   UNL     1      47.370   4.005  16.036  0.00  0.00    +0.000 A 
ATOM     17  C   UNL     1      47.122   4.596  14.795  0.00  0.00    +0.000 A 
ATOM     18  C   UNL     1      47.813   5.752  14.464  0.00  0.00    +0.000 A 
ATOM     19  N   UNL     1      48.706   6.349  15.283  0.00  0.00    +0.000 NA
ATOM     20  C   UNL     1      48.920   5.765  16.486  0.00  0.00    +0.000 A 
BRANCH  15  22
ATOM     21  N   UNL     1      49.343   2.876  18.257  0.00  0.00    +0.000 N 
ATOM     22  C   UNL     1      48.644   4.050  18.225  0.00  0.00    +0.000 C 
ATOM     23  O   UNL     1      48.362   4.647  19.255  0.00  0.00    +0.000 OA
ATOM     24  H   UNL     1      49.677   2.584  19.168  0.00  0.00    +0.000 HD
ATOM     25  H   UNL     1      49.814   2.500  17.447  0.00  0.00    +0.000 HD
ENDBRANCH  15  22
ENDBRANCH  14  18
ENDBRANCH   1  14
TORSDOF 5
ENDMDL
MODEL 9
REMARK VINA RESULT:    -6.239      4.993      6.865
REMARK INTER + INTRA:          -8.825
REMARK INTER:                  -8.254
REMARK INTRA:                  -0.571
REMARK UNBOUND:                -0.762
REMARK  Name = 
REMARK  5 active torsions:
REMARK  status: ('A' for Active; 'I' for Inactive)
REMARK    1  A    between atoms: C_2  and  C_4
REMARK    2  A    between atoms: C_7  and  O_8
REMARK    3  A    between atoms: O_8  and  C_9
REMARK    4  A    between atoms: C_9  and  C_10
REMARK    5  A    between atoms: C_14  and  C_15
REMARK                            x       y       z     vdW  Elec       q    Type
REMARK                         _______ _______ _______ _____ _____    ______ ____
ROOT
ATOM      1  C   UNL     1      47.149   3.738  16.133  0.00  0.00    +0.000 C 
ENDROOT
BRANCH   1   2
ATOM      2  C   UNL     1      48.333   4.033  17.015  0.00  0.00    +0.000 A 
ATOM      3  C   UNL     1      48.278   5.078  17.928  0.00  0.00    +0.000 A 
ATOM      4  N   UNL     1      49.273   5.383  18.786  0.00  0.00    +0.000 NA
ATOM      5  C   UNL     1      50.378   4.598  18.738  0.00  0.00    +0.000 A 
ATOM      6  C   UNL     1      50.552   3.502  17.891  0.00  0.00    +0.000 A 
ATOM      7  C   UNL     1      49.482   3.231  17.025  0.00  0.00    +0.000 A 
BRANCH   6   8
ATOM      8  C   UNL     1      51.772   2.672  17.906  0.00  0.00    +0.000 A 
ATOM      9  C   UNL     1      51.778   1.334  17.486  0.00  0.00    +0.000 A 
ATOM     10  C   UNL     1      52.956   0.588  17.502  0.00  0.00    +0.000 A 
ATOM     11  C   UNL     1      54.117   1.200  17.935  0.00  0.00    +0.000 A 
ATOM     12  N   UNL     1      54.171   2.480  18.353  0.00  0.00    +0.000 NA
ATOM     13  C   UNL     1      53.006   3.173  18.333  0.00  0.00    +0.000 A 
ENDBRANCH   6   8
ENDBRANCH   1   2
BRANCH   1  14
ATOM     14  O   UNL     1      47.581   3.296  14.840  0.00  0.00    +0.000 OA
BRANCH  14  18
ATOM     15  C   UNL     1      45.183   4.766  11.834  0.00  0.00    +0.000 A 
ATOM     16  C   UNL     1      45.921   5.652  12.622  0.00  0.00    +0.000 A 
ATOM     17  C   UNL     1      46.726   5.143  13.644  0.00  0.00    +0.000 A 
ATOM     18  C   UNL     1      46.763   3.770  13.835  0.00  0.00    +0.000 A 
ATOM     19  N   UNL     1      46.049   2.894  13.095  0.00  0.00    +0.000 NA
ATOM     20  C   UNL     1      45.267   3.410  12.119  0.00  0.00    +0.000 A 
BRANCH  15  22
ATOM     21  N   UNL     1      43.474   6.249  10.951  0.00  0.00    +0.000 N 
ATOM     22  C   UNL     1      44.310   5.192  10.722  0.00  0.00    +0.000 C 
ATOM     23  O   UNL     1      44.365   4.656   9.624  0.00  0.00    +0.000 OA
ATOM     24  H   UNL     1      42.976   6.604  10.142  0.00  0.00    +0.000 HD
ATOM     25  H   UNL     1      43.587   6.872  11.737  0.00  0.00    +0.000 HD
ENDBRANCH  15  22
ENDBRANCH  14  18
ENDBRANCH   1  14
TORSDOF 5
ENDMDL
