MODEL 1
REMARK VINA RESULT:    -8.389      0.000      0.000
REMARK INTER + INTRA:         -12.779
REMARK INTER:                 -11.822
REMARK INTRA:                  -0.957
REMARK UNBOUND:                -0.957
REMARK  Name = 
REMARK  7 active torsions:
REMARK  status: ('A' for Active; 'I' for Inactive)
REMARK    1  A    between atoms: C_2  and  C_4
REMARK    2  A    between atoms: C_7  and  N_8
REMARK    3  A    between atoms: N_8  and  C_9
REMARK    4  A    between atoms: C_9  and  C_10
REMARK    5  A    between atoms: C_10  and  C_13
REMARK    6  A    between atoms: C_17  and  S_18
REMARK    7  A    between atoms: S_18  and  C_19
REMARK                            x       y       z     vdW  Elec       q    Type
REMARK                         _______ _______ _______ _____ _____    ______ ____
ROOT
ATOM      1  C   UNL     1      44.377   5.814  10.925  0.00  0.00    +0.000 C 
ENDROOT
BRANCH   1   2
ATOM      2  C   UNL     1      44.894   5.436  12.340  0.00  0.00    +0.000 C 
ATOM      3  F   UNL     1      43.966   5.868  13.251  0.00  0.00    +0.000 F 
ATOM      4  F   UNL     1      44.865   4.070  12.433  0.00  0.00    +0.000 F 
BRANCH   2   5
ATOM      5  C   UNL     1      46.277   5.985  12.636  0.00  0.00    +0.000 A 
ATOM      6  C   UNL     1      46.984   6.718  11.674  0.00  0.00    +0.000 A 
ATOM      7  C   UNL     1      48.240   7.249  11.975  0.00  0.00    +0.000 A 
ATOM      8  C   UNL     1      48.805   7.059  13.241  0.00  0.00    +0.000 A 
ATOM      9  C   UNL     1      48.120   6.323  14.211  0.00  0.00    +0.000 A 
ATOM     10  C   UNL     1      46.864   5.789  13.898  0.00  0.00    +0.000 A 
BRANCH   9  11
ATOM     11  S   UNL     1      48.690   6.172  15.891  0.00  0.00    +0.000 S 
BRANCH  11  12
ATOM     12  C   UNL     1      47.869   4.635  16.428  0.00  0.00    +0.000 C 
ATOM     13  C   UNL     1      47.207   4.679  17.807  0.00  0.00    +0.000 C 
ATOM     14  O   UNL     1      48.042   3.595  18.292  0.00  0.00    +0.000 OA
ATOM     15  C   UNL     1      48.874   3.690  17.110  0.00  0.00    +0.000 C 
ENDBRANCH  11  12
ENDBRANCH   9  11
ENDBRANCH   2   5
ENDBRANCH   1   2
BRANCH   1  16
ATOM     16  N   UNL     1      43.786   4.684  10.180  0.00  0.00    +0.000 N 
ATOM     17  H   UNL     1      43.168   4.107  10.752  0.00  0.00    +0.000 HD
BRANCH  16  21
ATOM     18  C   UNL     1      46.454   2.532   7.703  0.00  0.00    +0.000 A 
ATOM     19  C   UNL     1      46.367   3.925   7.644  0.00  0.00    +0.000 A 
ATOM     20  C   UNL     1      45.443   4.604   8.451  0.00  0.00    +0.000 A 
ATOM     21  C   UNL     1      44.586   3.913   9.326  0.00  0.00    +0.000 A 
ATOM     22  C   UNL     1      44.700   2.512   9.357  0.00  0.00    +0.000 A 
ATOM     23  F   UNL     1      43.922   1.779  10.169  0.00  0.00    +0.000 F 
ATOM     24  C   UNL     1      45.600   1.823   8.548  0.00  0.00    +0.000 A 
BRANCH  18  26
ATOM     25  N   UNL     1      48.532   2.448   6.443  0.00  0.00    +0.000 N 
ATOM     26  C   UNL     1      47.440   1.764   6.901  0.00  0.00    +0.000 C 
ATOM     27  O   UNL     1      47.313   0.563   6.700  0.00  0.00    +0.000 OA
ATOM     28  H   UNL     1      49.262   1.888   6.020  0.00  0.00    +0.000 HD
ATOM     29  H   UNL     1      48.793   3.353   6.808  0.00  0.00    +0.000 HD
ENDBRANCH  18  26
ENDBRANCH  16  21
ENDBRANCH   1  16
TORSDOF 7
ENDMDL
MODEL 2
REMARK VINA RESULT:    -7.691      2.386      3.357
REMARK INTER + INTRA:         -11.795
REMARK INTER:                 -10.923
REMARK INTRA:                  -0.872
REMARK UNBOUND:                -0.957
REMARK  Name = 
REMARK  7 active torsions:
REMARK  status: ('A' for Active; 'I' for Inactive)
REMARK    1  A    between atoms: C_2  and  C_4
REMARK    2  A    between atoms: C_7  and  N_8
REMARK    3  A    between atoms: N_8  and  C_9
REMARK    4  A    between atoms: C_9  and  C_10
REMARK    5  A    between atoms: C_10  and  C_13
REMARK    6  A    between atoms: C_17  and  S_18
REMARK    7  A    between atoms: S_18  and  C_19
REMARK                            x       y       z     vdW  Elec       q    Type
REMARK                         _______ _______ _______ _____ _____    ______ ____
ROOT
ATOM      1  C   UNL     1      44.075   5.287  11.039  0.00  0.00    +0.000 C 
ENDROOT
BRANCH   1   2
ATOM      2  C   UNL     1      44.244   4.919  12.539  0.00  0.00    +0.000 C 
ATOM      3  F   UNL     1      43.131   5.363  13.203  0.00  0.00    +0.000 F 
ATOM      4  F   UNL     1      44.185   3.554  12.633  0.00  0.00    +0.000 F 
BRANCH   2   5
ATOM      5  C   UNL     1      45.522   5.464  13.148  0.00  0.00    +0.000 A 
ATOM      6  C   UNL     1      46.292   4.687  14.023  0.00  0.00    +0.000 A 
ATOM      7  C   UNL     1      47.487   5.188  14.545  0.00  0.00    +0.000 A 
ATOM      8  C   UNL     1      47.929   6.469  14.198  0.00  0.00    +0.000 A 
ATOM      9  C   UNL     1      47.171   7.264  13.335  0.00  0.00    +0.000 A 
ATOM     10  C   UNL     1      45.971   6.755  12.820  0.00  0.00    +0.000 A 
BRANCH   9  11
ATOM     11  S   UNL     1      47.738   8.834  12.716  0.00  0.00    +0.000 S 
BRANCH  11  12
ATOM     12  C   UNL     1      49.547   8.605  12.717  0.00  0.00    +0.000 C 
ATOM     13  C   UNL     1      50.360   9.713  12.043  0.00  0.00    +0.000 C 
ATOM     14  O   UNL     1      50.929   8.778  11.090  0.00  0.00    +0.000 OA
ATOM     15  C   UNL     1      49.990   7.758  11.511  0.00  0.00    +0.000 C 
ENDBRANCH  11  12
ENDBRANCH   9  11
ENDBRANCH   2   5
ENDBRANCH   1   2
BRANCH   1  16
ATOM     16  N   UNL     1      43.672   4.152  10.184  0.00  0.00    +0.000 N 
ATOM     17  H   UNL     1      43.186   3.416  10.698  0.00  0.00    +0.000 HD
BRANCH  16  21
ATOM     18  C   UNL     1      46.612   2.758   7.482  0.00  0.00    +0.000 A 
ATOM     19  C   UNL     1      46.386   4.124   7.672  0.00  0.00    +0.000 A 
ATOM     20  C   UNL     1      45.376   4.551   8.546  0.00  0.00    +0.000 A 
ATOM     21  C   UNL     1      44.570   3.632   9.242  0.00  0.00    +0.000 A 
ATOM     22  C   UNL     1      44.824   2.266   9.023  0.00  0.00    +0.000 A 
ATOM     23  F   UNL     1      44.104   1.326   9.653  0.00  0.00    +0.000 F 
ATOM     24  C   UNL     1      45.812   1.827   8.145  0.00  0.00    +0.000 A 
BRANCH  18  26
ATOM     25  N   UNL     1      47.969   2.976   5.476  0.00  0.00    +0.000 N 
ATOM     26  C   UNL     1      47.693   2.249   6.600  0.00  0.00    +0.000 C 
ATOM     27  O   UNL     1      48.345   1.254   6.888  0.00  0.00    +0.000 OA
ATOM     28  H   UNL     1      48.795   2.699   4.959  0.00  0.00    +0.000 HD
ATOM     29  H   UNL     1      47.638   3.922   5.351  0.00  0.00    +0.000 HD
ENDBRANCH  18  26
ENDBRANCH  16  21
ENDBRANCH   1  16
TORSDOF 7
ENDMDL
MODEL 3
REMARK VINA RESULT:    -7.690      1.989      2.203
REMARK INTER + INTRA:         -11.794
REMARK INTER:                 -11.011
REMARK INTRA:                  -0.784
REMARK UNBOUND:                -0.957
REMARK  Name = 
REMARK  7 active torsions:
REMARK  status: ('A' for Active; 'I' for Inactive)
REMARK    1  A    between atoms: C_2  and  C_4
REMARK    2  A    between atoms: C_7  and  N_8
REMARK    3  A    between atoms: N_8  and  C_9
REMARK    4  A    between atoms: C_9  and  C_10
REMARK    5  A    between atoms: C_10  and  C_13
REMARK    6  A    between atoms: C_17  and  S_18
REMARK    7  A    between atoms: S_18  and  C_19
REMARK                            x       y       z     vdW  Elec       q    Type
REMARK                         _______ _______ _______ _____ _____    ______ ____
ROOT
ATOM      1  C   UNL     1      44.854   6.117  10.760  0.00  0.00    +0.000 C 
ENDROOT
BRANCH   1   2
ATOM      2  C   UNL     1      45.354   5.746  12.183  0.00  0.00    +0.000 C 
ATOM      3  F   UNL     1      44.403   6.157  13.079  0.00  0.00    +0.000 F 
ATOM      4  F   UNL     1      45.348   4.378  12.273  0.00  0.00    +0.000 F 
BRANCH   2   5
ATOM      5  C   UNL     1      46.722   6.319  12.504  0.00  0.00    +0.000 A 
ATOM      6  C   UNL     1      47.446   7.036  11.543  0.00  0.00    +0.000 A 
ATOM      7  C   UNL     1      48.687   7.591  11.865  0.00  0.00    +0.000 A 
ATOM      8  C   UNL     1      49.218   7.440  13.151  0.00  0.00    +0.000 A 
ATOM      9  C   UNL     1      48.515   6.719  14.121  0.00  0.00    +0.000 A 
ATOM     10  C   UNL     1      47.274   6.162  13.786  0.00  0.00    +0.000 A 
BRANCH   9  11
ATOM     11  S   UNL     1      49.039   6.618  15.819  0.00  0.00    +0.000 S 
BRANCH  11  12
ATOM     12  C   UNL     1      49.416   8.361  16.199  0.00  0.00    +0.000 C 
ATOM     13  C   UNL     1      49.476   8.722  17.685  0.00  0.00    +0.000 C 
ATOM     14  O   UNL     1      48.410   9.697  17.537  0.00  0.00    +0.000 OA
ATOM     15  C   UNL     1      48.132   9.208  16.202  0.00  0.00    +0.000 C 
ENDBRANCH  11  12
ENDBRANCH   9  11
ENDBRANCH   2   5
ENDBRANCH   1   2
BRANCH   1  16
ATOM     16  N   UNL     1      44.052   5.060  10.111  0.00  0.00    +0.000 N 
ATOM     17  H   UNL     1      43.305   4.700  10.707  0.00  0.00    +0.000 HD
BRANCH  16  21
ATOM     18  C   UNL     1      46.257   2.127   8.008  0.00  0.00    +0.000 A 
ATOM     19  C   UNL     1      46.392   3.487   7.719  0.00  0.00    +0.000 A 
ATOM     20  C   UNL     1      45.617   4.430   8.408  0.00  0.00    +0.000 A 
ATOM     21  C   UNL     1      44.690   4.040   9.392  0.00  0.00    +0.000 A 
ATOM     22  C   UNL     1      44.578   2.663   9.653  0.00  0.00    +0.000 A 
ATOM     23  F   UNL     1      43.721   2.209  10.581  0.00  0.00    +0.000 F 
ATOM     24  C   UNL     1      45.329   1.714   8.964  0.00  0.00    +0.000 A 
BRANCH  18  26
ATOM     25  N   UNL     1      46.796  -0.215   7.635  0.00  0.00    +0.000 N 
ATOM     26  C   UNL     1      47.081   1.089   7.338  0.00  0.00    +0.000 C 
ATOM     27  O   UNL     1      47.943   1.379   6.519  0.00  0.00    +0.000 OA
ATOM     28  H   UNL     1      47.266  -0.912   7.071  0.00  0.00    +0.000 HD
ATOM     29  H   UNL     1      45.937  -0.488   8.092  0.00  0.00    +0.000 HD
ENDBRANCH  18  26
ENDBRANCH  16  21
ENDBRANCH   1  16
TORSDOF 7
ENDMDL
MODEL 4
REMARK VINA RESULT:    -7.119      3.749      7.234
REMARK INTER + INTRA:         -10.989
REMARK INTER:                 -10.197
REMARK INTRA:                  -0.792
REMARK UNBOUND:                -0.957
REMARK  Name = 
REMARK  7 active torsions:
REMARK  status: ('A' for Active; 'I' for Inactive)
REMARK    1  A    between atoms: C_2  and  C_4
REMARK    2  A    between atoms: C_7  and  N_8
REMARK    3  A    between atoms: N_8  and  C_9
REMARK    4  A    between atoms: C_9  and  C_10
REMARK    5  A    between atoms: C_10  and  C_13
REMARK    6  A    between atoms: C_17  and  S_18
REMARK    7  A    between atoms: S_18  and  C_19
REMARK                            x       y       z     vdW  Elec       q    Type
REMARK                         _______ _______ _______ _____ _____    ______ ____
ROOT
ATOM      1  C   UNL     1      43.985   5.592  12.943  0.00  0.00    +0.000 C 
ENDROOT
BRANCH   1   2
ATOM      2  C   UNL     1      43.336   5.446  11.539  0.00  0.00    +0.000 C 
ATOM      3  F   UNL     1      41.988   5.283  11.719  0.00  0.00    +0.000 F 
ATOM      4  F   UNL     1      43.460   6.655  10.905  0.00  0.00    +0.000 F 
BRANCH   2   5
ATOM      5  C   UNL     1      43.939   4.323  10.717  0.00  0.00    +0.000 A 
ATOM      6  C   UNL     1      43.587   2.987  10.953  0.00  0.00    +0.000 A 
ATOM      7  C   UNL     1      44.120   1.967  10.163  0.00  0.00    +0.000 A 
ATOM      8  C   UNL     1      45.008   2.267   9.124  0.00  0.00    +0.000 A 
ATOM      9  C   UNL     1      45.380   3.591   8.878  0.00  0.00    +0.000 A 
ATOM     10  C   UNL     1      44.843   4.607   9.680  0.00  0.00    +0.000 A 
BRANCH   9  11
ATOM     11  S   UNL     1      46.371   4.074   7.481  0.00  0.00    +0.000 S 
BRANCH  11  12
ATOM     12  C   UNL     1      46.614   2.482   6.626  0.00  0.00    +0.000 C 
ATOM     13  C   UNL     1      47.865   1.695   7.024  0.00  0.00    +0.000 C 
ATOM     14  O   UNL     1      48.370   1.723   5.663  0.00  0.00    +0.000 OA
ATOM     15  C   UNL     1      47.354   2.687   5.293  0.00  0.00    +0.000 C 
ENDBRANCH  11  12
ENDBRANCH   9  11
ENDBRANCH   2   5
ENDBRANCH   1   2
BRANCH   1  16
ATOM     16  N   UNL     1      44.670   6.884  13.156  0.00  0.00    +0.000 N 
ATOM     17  H   UNL     1      44.125   7.684  12.834  0.00  0.00    +0.000 HD
BRANCH  16  21
ATOM     18  C   UNL     1      48.764   7.572  12.351  0.00  0.00    +0.000 A 
ATOM     19  C   UNL     1      47.776   8.452  11.905  0.00  0.00    +0.000 A 
ATOM     20  C   UNL     1      46.425   8.173  12.155  0.00  0.00    +0.000 A 
ATOM     21  C   UNL     1      46.031   7.014  12.847  0.00  0.00    +0.000 A 
ATOM     22  C   UNL     1      47.052   6.150  13.278  0.00  0.00    +0.000 A 
ATOM     23  F   UNL     1      46.761   5.025  13.951  0.00  0.00    +0.000 F 
ATOM     24  C   UNL     1      48.397   6.405  13.022  0.00  0.00    +0.000 A 
BRANCH  18  26
ATOM     25  N   UNL     1      51.019   7.733  13.249  0.00  0.00    +0.000 N 
ATOM     26  C   UNL     1      50.211   7.837  12.151  0.00  0.00    +0.000 C 
ATOM     27  O   UNL     1      50.673   8.089  11.045  0.00  0.00    +0.000 OA
ATOM     28  H   UNL     1      52.015   7.778  13.074  0.00  0.00    +0.000 HD
ATOM     29  H   UNL     1      50.716   7.277  14.098  0.00  0.00    +0.000 HD
ENDBRANCH  18  26
ENDBRANCH  16  21
ENDBRANCH   1  16
TORSDOF 7
ENDMDL
MODEL 5
REMARK VINA RESULT:    -7.027      3.202      8.083
REMARK INTER + INTRA:         -10.859
REMARK INTER:                  -9.842
REMARK INTRA:                  -1.017
REMARK UNBOUND:                -0.957
REMARK  Name = 
REMARK  7 active torsions:
REMARK  status: ('A' for Active; 'I' for Inactive)
REMARK    1  A    between atoms: C_2  and  C_4
REMARK    2  A    between atoms: C_7  and  N_8
REMARK    3  A    between atoms: N_8  and  C_9
REMARK    4  A    between atoms: C_9  and  C_10
REMARK    5  A    between atoms: C_10  and  C_13
REMARK    6  A    between atoms: C_17  and  S_18
REMARK    7  A    between atoms: S_18  and  C_19
REMARK                            x       y       z     vdW  Elec       q    Type
REMARK                         _______ _______ _______ _____ _____    ______ ____
ROOT
ATOM      1  C   UNL     1      46.660   6.725  12.190  0.00  0.00    +0.000 C 
ENDROOT
BRANCH   1   2
ATOM      2  C   UNL     1      45.139   6.483  11.985  0.00  0.00    +0.000 C 
ATOM      3  F   UNL     1      44.527   6.628  13.202  0.00  0.00    +0.000 F 
ATOM      4  F   UNL     1      44.660   7.520  11.228  0.00  0.00    +0.000 F 
BRANCH   2   5
ATOM      5  C   UNL     1      44.828   5.141  11.350  0.00  0.00    +0.000 A 
ATOM      6  C   UNL     1      44.148   4.146  12.064  0.00  0.00    +0.000 A 
ATOM      7  C   UNL     1      43.835   2.929  11.453  0.00  0.00    +0.000 A 
ATOM      8  C   UNL     1      44.192   2.693  10.121  0.00  0.00    +0.000 A 
ATOM      9  C   UNL     1      44.879   3.669   9.394  0.00  0.00    +0.000 A 
ATOM     10  C   UNL     1      45.194   4.884  10.018  0.00  0.00    +0.000 A 
BRANCH   9  11
ATOM     11  S   UNL     1      45.226   3.515   7.656  0.00  0.00    +0.000 S 
BRANCH  11  12
ATOM     12  C   UNL     1      46.833   2.653   7.670  0.00  0.00    +0.000 C 
ATOM     13  C   UNL     1      47.437   2.344   6.297  0.00  0.00    +0.000 C 
ATOM     14  O   UNL     1      47.443   0.919   6.571  0.00  0.00    +0.000 OA
ATOM     15  C   UNL     1      46.634   1.130   7.754  0.00  0.00    +0.000 C 
ENDBRANCH  11  12
ENDBRANCH   9  11
ENDBRANCH   2   5
ENDBRANCH   1   2
BRANCH   1  16
ATOM     16  N   UNL     1      47.379   5.570  12.764  0.00  0.00    +0.000 N 
ATOM     17  H   UNL     1      47.103   4.679  12.349  0.00  0.00    +0.000 HD
BRANCH  16  21
ATOM     18  C   UNL     1      47.990   4.969  16.906  0.00  0.00    +0.000 A 
ATOM     19  C   UNL     1      47.138   4.143  16.167  0.00  0.00    +0.000 A 
ATOM     20  C   UNL     1      46.927   4.395  14.804  0.00  0.00    +0.000 A 
ATOM     21  C   UNL     1      47.553   5.473  14.152  0.00  0.00    +0.000 A 
ATOM     22  C   UNL     1      48.401   6.283  14.927  0.00  0.00    +0.000 A 
ATOM     23  F   UNL     1      49.040   7.328  14.379  0.00  0.00    +0.000 F 
ATOM     24  C   UNL     1      48.606   6.056  16.286  0.00  0.00    +0.000 A 
BRANCH  18  26
ATOM     25  N   UNL     1      47.351   5.158  19.244  0.00  0.00    +0.000 N 
ATOM     26  C   UNL     1      48.281   4.725  18.341  0.00  0.00    +0.000 C 
ATOM     27  O   UNL     1      49.282   4.120  18.702  0.00  0.00    +0.000 OA
ATOM     28  H   UNL     1      47.492   4.864  20.203  0.00  0.00    +0.000 HD
ATOM     29  H   UNL     1      46.413   5.416  18.970  0.00  0.00    +0.000 HD
ENDBRANCH  18  26
ENDBRANCH  16  21
ENDBRANCH   1  16
TORSDOF 7
ENDMDL
MODEL 6
REMARK VINA RESULT:    -6.839      2.482      3.616
REMARK INTER + INTRA:         -10.595
REMARK INTER:                  -9.959
REMARK INTRA:                  -0.635
REMARK UNBOUND:                -0.957
REMARK  Name = 
REMARK  7 active torsions:
REMARK  status: ('A' for Active; 'I' for Inactive)
REMARK    1  A    between atoms: C_2  and  C_4
REMARK    2  A    between atoms: C_7  and  N_8
REMARK    3  A    between atoms: N_8  and  C_9
REMARK    4  A    between atoms: C_9  and  C_10
REMARK    5  A    between atoms: C_10  and  C_13
REMARK    6  A    between atoms: C_17  and  S_18
REMARK    7  A    between atoms: S_18  and  C_19
REMARK                            x       y       z     vdW  Elec       q    Type
REMARK                         _______ _______ _______ _____ _____    ______ ____
ROOT
ATOM      1  C   UNL     1      44.879   4.857  11.686  0.00  0.00    +0.000 C 
ENDROOT
BRANCH   1   2
ATOM      2  C   UNL     1      45.176   6.344  12.020  0.00  0.00    +0.000 C 
ATOM      3  F   UNL     1      44.993   7.072  10.873  0.00  0.00    +0.000 F 
ATOM      4  F   UNL     1      44.192   6.777  12.868  0.00  0.00    +0.000 F 
BRANCH   2   5
ATOM      5  C   UNL     1      46.556   6.559  12.613  0.00  0.00    +0.000 A 
ATOM      6  C   UNL     1      46.898   6.018  13.859  0.00  0.00    +0.000 A 
ATOM      7  C   UNL     1      48.184   6.191  14.374  0.00  0.00    +0.000 A 
ATOM      8  C   UNL     1      49.146   6.905  13.651  0.00  0.00    +0.000 A 
ATOM      9  C   UNL     1      48.823   7.461  12.411  0.00  0.00    +0.000 A 
ATOM     10  C   UNL     1      47.528   7.286  11.905  0.00  0.00    +0.000 A 
BRANCH   9  11
ATOM     11  S   UNL     1      50.027   8.240  11.357  0.00  0.00    +0.000 S 
BRANCH  11  12
ATOM     12  C   UNL     1      49.818  10.000  11.785  0.00  0.00    +0.000 C 
ATOM     13  C   UNL     1      49.803  10.326  13.281  0.00  0.00    +0.000 C 
ATOM     14  O   UNL     1      48.471  10.895  13.189  0.00  0.00    +0.000 OA
ATOM     15  C   UNL     1      48.327  10.373  11.846  0.00  0.00    +0.000 C 
ENDBRANCH  11  12
ENDBRANCH   9  11
ENDBRANCH   2   5
ENDBRANCH   1   2
BRANCH   1  16
ATOM     16  N   UNL     1      44.252   4.652  10.365  0.00  0.00    +0.000 N 
ATOM     17  H   UNL     1      43.287   4.324  10.426  0.00  0.00    +0.000 HD
BRANCH  16  21
ATOM     18  C   UNL     1      46.666   2.853   7.395  0.00  0.00    +0.000 A 
ATOM     19  C   UNL     1      46.640   4.239   7.572  0.00  0.00    +0.000 A 
ATOM     20  C   UNL     1      45.798   4.805   8.540  0.00  0.00    +0.000 A 
ATOM     21  C   UNL     1      44.964   4.007   9.344  0.00  0.00    +0.000 A 
ATOM     22  C   UNL     1      45.015   2.618   9.135  0.00  0.00    +0.000 A 
ATOM     23  F   UNL     1      44.254   1.787   9.865  0.00  0.00    +0.000 F 
ATOM     24  C   UNL     1      45.833   2.043   8.166  0.00  0.00    +0.000 A 
BRANCH  18  26
ATOM     25  N   UNL     1      47.956   2.941   5.335  0.00  0.00    +0.000 N 
ATOM     26  C   UNL     1      47.567   2.197   6.414  0.00  0.00    +0.000 C 
ATOM     27  O   UNL     1      47.987   1.059   6.585  0.00  0.00    +0.000 OA
ATOM     28  H   UNL     1      48.676   2.534   4.751  0.00  0.00    +0.000 HD
ATOM     29  H   UNL     1      47.844   3.944   5.305  0.00  0.00    +0.000 HD
ENDBRANCH  18  26
ENDBRANCH  16  21
ENDBRANCH   1  16
TORSDOF 7
ENDMDL
MODEL 7
REMARK VINA RESULT:    -6.565      3.630      8.318
REMARK INTER + INTRA:         -10.209
REMARK INTER:                  -9.642
REMARK INTRA:                  -0.566
REMARK UNBOUND:                -0.957
REMARK  Name = 
REMARK  7 active torsions:
REMARK  status: ('A' for Active; 'I' for Inactive)
REMARK    1  A    between atoms: C_2  and  C_4
REMARK    2  A    between atoms: C_7  and  N_8
REMARK    3  A    between atoms: N_8  and  C_9
REMARK    4  A    between atoms: C_9  and  C_10
REMARK    5  A    between atoms: C_10  and  C_13
REMARK    6  A    between atoms: C_17  and  S_18
REMARK    7  A    between atoms: S_18  and  C_19
REMARK                            x       y       z     vdW  Elec       q    Type
REMARK                         _______ _______ _______ _____ _____    ______ ____
ROOT
ATOM      1  C   UNL     1      46.464   4.390  13.923  0.00  0.00    +0.000 C 
ENDROOT
BRANCH   1   2
ATOM      2  C   UNL     1      45.170   4.830  13.185  0.00  0.00    +0.000 C 
ATOM      3  F   UNL     1      44.146   4.037  13.632  0.00  0.00    +0.000 F 
ATOM      4  F   UNL     1      44.856   6.088  13.628  0.00  0.00    +0.000 F 
BRANCH   2   5
ATOM      5  C   UNL     1      45.301   4.790  11.674  0.00  0.00    +0.000 A 
ATOM      6  C   UNL     1      45.763   5.903  10.960  0.00  0.00    +0.000 A 
ATOM      7  C   UNL     1      45.914   5.838   9.573  0.00  0.00    +0.000 A 
ATOM      8  C   UNL     1      45.610   4.660   8.882  0.00  0.00    +0.000 A 
ATOM      9  C   UNL     1      45.138   3.541   9.575  0.00  0.00    +0.000 A 
ATOM     10  C   UNL     1      44.985   3.619  10.965  0.00  0.00    +0.000 A 
BRANCH   9  11
ATOM     11  S   UNL     1      44.884   1.960   8.799  0.00  0.00    +0.000 S 
BRANCH  11  12
ATOM     12  C   UNL     1      46.548   1.586   8.155  0.00  0.00    +0.000 C 
ATOM     13  C   UNL     1      46.788   1.934   6.684  0.00  0.00    +0.000 C 
ATOM     14  O   UNL     1      47.099   0.554   6.361  0.00  0.00    +0.000 OA
ATOM     15  C   UNL     1      46.628   0.131   7.664  0.00  0.00    +0.000 C 
ENDBRANCH  11  12
ENDBRANCH   9  11
ENDBRANCH   2   5
ENDBRANCH   1   2
BRANCH   1  16
ATOM     16  N   UNL     1      46.380   4.492  15.394  0.00  0.00    +0.000 N 
ATOM     17  H   UNL     1      45.757   5.236  15.709  0.00  0.00    +0.000 HD
BRANCH  16  21
ATOM     18  C   UNL     1      49.987   4.014  17.550  0.00  0.00    +0.000 A 
ATOM     19  C   UNL     1      49.090   2.955  17.386  0.00  0.00    +0.000 A 
ATOM     20  C   UNL     1      47.885   3.159  16.699  0.00  0.00    +0.000 A 
ATOM     21  C   UNL     1      47.546   4.417  16.168  0.00  0.00    +0.000 A 
ATOM     22  C   UNL     1      48.471   5.459  16.355  0.00  0.00    +0.000 A 
ATOM     23  F   UNL     1      48.226   6.687  15.874  0.00  0.00    +0.000 F 
ATOM     24  C   UNL     1      49.664   5.276  17.050  0.00  0.00    +0.000 A 
BRANCH  18  26
ATOM     25  N   UNL     1      51.355   4.195  19.552  0.00  0.00    +0.000 N 
ATOM     26  C   UNL     1      51.295   3.846  18.232  0.00  0.00    +0.000 C 
ATOM     27  O   UNL     1      52.266   3.370  17.657  0.00  0.00    +0.000 OA
ATOM     28  H   UNL     1      52.207   3.946  20.040  0.00  0.00    +0.000 HD
ATOM     29  H   UNL     1      50.524   4.336  20.110  0.00  0.00    +0.000 HD
ENDBRANCH  18  26
ENDBRANCH  16  21
ENDBRANCH   1  16
TORSDOF 7
ENDMDL
MODEL 8
REMARK VINA RESULT:    -6.353      3.089      4.727
REMARK INTER + INTRA:          -9.909
REMARK INTER:                  -9.215
REMARK INTRA:                  -0.694
REMARK UNBOUND:                -0.957
REMARK  Name = 
REMARK  7 active torsions:
REMARK  status: ('A' for Active; 'I' for Inactive)
REMARK    1  A    between atoms: C_2  and  C_4
REMARK    2  A    between atoms: C_7  and  N_8
REMARK    3  A    between atoms: N_8  and  C_9
REMARK    4  A    between atoms: C_9  and  C_10
REMARK    5  A    between atoms: C_10  and  C_13
REMARK    6  A    between atoms: C_17  and  S_18
REMARK    7  A    between atoms: S_18  and  C_19
REMARK                            x       y       z     vdW  Elec       q    Type
REMARK                         _______ _______ _______ _____ _____    ______ ____
ROOT
ATOM      1  C   UNL     1      48.791   6.951  13.216  0.00  0.00    +0.000 C 
ENDROOT
BRANCH   1   2
ATOM      2  C   UNL     1      49.077   7.776  14.500  0.00  0.00    +0.000 C 
ATOM      3  F   UNL     1      49.787   8.888  14.131  0.00  0.00    +0.000 F 
ATOM      4  F   UNL     1      47.877   8.262  14.948  0.00  0.00    +0.000 F 
BRANCH   2   5
ATOM      5  C   UNL     1      49.791   6.979  15.576  0.00  0.00    +0.000 A 
ATOM      6  C   UNL     1      51.182   7.054  15.725  0.00  0.00    +0.000 A 
ATOM      7  C   UNL     1      51.821   6.344  16.745  0.00  0.00    +0.000 A 
ATOM      8  C   UNL     1      51.079   5.556  17.630  0.00  0.00    +0.000 A 
ATOM      9  C   UNL     1      49.692   5.460  17.493  0.00  0.00    +0.000 A 
ATOM     10  C   UNL     1      49.061   6.171  16.464  0.00  0.00    +0.000 A 
BRANCH   9  11
ATOM     11  S   UNL     1      48.659   4.614  18.670  0.00  0.00    +0.000 S 
BRANCH  11  12
ATOM     12  C   UNL     1      48.672   2.910  18.022  0.00  0.00    +0.000 C 
ATOM     13  C   UNL     1      49.940   2.488  17.277  0.00  0.00    +0.000 C 
ATOM     14  O   UNL     1      49.192   2.216  16.064  0.00  0.00    +0.000 OA
ATOM     15  C   UNL     1      48.020   2.852  16.630  0.00  0.00    +0.000 C 
ENDBRANCH  11  12
ENDBRANCH   9  11
ENDBRANCH   2   5
ENDBRANCH   1   2
BRANCH   1  16
ATOM     16  N   UNL     1      47.513   7.289  12.557  0.00  0.00    +0.000 N 
ATOM     17  H   UNL     1      47.055   8.104  12.966  0.00  0.00    +0.000 HD
BRANCH  16  21
ATOM     18  C   UNL     1      44.934   4.167  11.337  0.00  0.00    +0.000 A 
ATOM     19  C   UNL     1      45.249   5.228  10.484  0.00  0.00    +0.000 A 
ATOM     20  C   UNL     1      46.076   6.267  10.934  0.00  0.00    +0.000 A 
ATOM     21  C   UNL     1      46.599   6.275  12.240  0.00  0.00    +0.000 A 
ATOM     22  C   UNL     1      46.258   5.193  13.070  0.00  0.00    +0.000 A 
ATOM     23  F   UNL     1      46.721   5.122  14.328  0.00  0.00    +0.000 F 
ATOM     24  C   UNL     1      45.424   4.163  12.643  0.00  0.00    +0.000 A 
BRANCH  18  26
ATOM     25  N   UNL     1      44.636   2.181   9.967  0.00  0.00    +0.000 N 
ATOM     26  C   UNL     1      44.097   3.021  10.900  0.00  0.00    +0.000 C 
ATOM     27  O   UNL     1      42.994   2.805  11.387  0.00  0.00    +0.000 OA
ATOM     28  H   UNL     1      44.117   1.331   9.781  0.00  0.00    +0.000 HD
ATOM     29  H   UNL     1      45.622   2.180   9.748  0.00  0.00    +0.000 HD
ENDBRANCH  18  26
ENDBRANCH  16  21
ENDBRANCH   1  16
TORSDOF 7
ENDMDL
MODEL 9
REMARK VINA RESULT:    -6.287      3.076      4.430
REMARK INTER + INTRA:          -9.817
REMARK INTER:                  -8.594
REMARK INTRA:                  -1.223
REMARK UNBOUND:                -0.957
REMARK  Name = 
REMARK  7 active torsions:
REMARK  status: ('A' for Active; 'I' for Inactive)
REMARK    1  A    between atoms: C_2  and  C_4
REMARK    2  A    between atoms: C_7  and  N_8
REMARK    3  A    between atoms: N_8  and  C_9
REMARK    4  A    between atoms: C_9  and  C_10
REMARK    5  A    between atoms: C_10  and  C_13
REMARK    6  A    between atoms: C_17  and  S_18
REMARK    7  A    between atoms: S_18  and  C_19
REMARK                            x       y       z     vdW  Elec       q    Type
REMARK                         _______ _______ _______ _____ _____    ______ ____
ROOT
ATOM      1  C   UNL     1      47.446   8.280  12.621  0.00  0.00    +0.000 C 
ENDROOT
BRANCH   1   2
ATOM      2  C   UNL     1      48.761   7.831  13.315  0.00  0.00    +0.000 C 
ATOM      3  F   UNL     1      48.988   6.525  12.970  0.00  0.00    +0.000 F 
ATOM      4  F   UNL     1      49.787   8.529  12.734  0.00  0.00    +0.000 F 
BRANCH   2   5
ATOM      5  C   UNL     1      48.738   8.024  14.820  0.00  0.00    +0.000 A 
ATOM      6  C   UNL     1      48.355   9.248  15.384  0.00  0.00    +0.000 A 
ATOM      7  C   UNL     1      48.302   9.399  16.772  0.00  0.00    +0.000 A 
ATOM      8  C   UNL     1      48.627   8.329  17.612  0.00  0.00    +0.000 A 
ATOM      9  C   UNL     1      49.021   7.103  17.070  0.00  0.00    +0.000 A 
ATOM     10  C   UNL     1      49.076   6.964  15.677  0.00  0.00    +0.000 A 
BRANCH   9  11
ATOM     11  S   UNL     1      49.293   5.650  18.060  0.00  0.00    +0.000 S 
BRANCH  11  12
ATOM     12  C   UNL     1      48.537   4.348  17.031  0.00  0.00    +0.000 C 
ATOM     13  C   UNL     1      47.083   3.999  17.356  0.00  0.00    +0.000 C 
ATOM     14  O   UNL     1      47.431   2.619  17.641  0.00  0.00    +0.000 OA
ATOM     15  C   UNL     1      48.839   2.954  17.606  0.00  0.00    +0.000 C 
ENDBRANCH  11  12
ENDBRANCH   9  11
ENDBRANCH   2   5
ENDBRANCH   1   2
BRANCH   1  16
ATOM     16  N   UNL     1      46.222   7.748  13.253  0.00  0.00    +0.000 N 
ATOM     17  H   UNL     1      46.256   7.767  14.273  0.00  0.00    +0.000 HD
BRANCH  16  21
ATOM     18  C   UNL     1      44.567   4.276  11.494  0.00  0.00    +0.000 A 
ATOM     19  C   UNL     1      44.265   5.553  11.012  0.00  0.00    +0.000 A 
ATOM     20  C   UNL     1      44.799   6.684  11.644  0.00  0.00    +0.000 A 
ATOM     21  C   UNL     1      45.638   6.570  12.767  0.00  0.00    +0.000 A 
ATOM     22  C   UNL     1      45.918   5.271  13.225  0.00  0.00    +0.000 A 
ATOM     23  F   UNL     1      46.714   5.076  14.288  0.00  0.00    +0.000 F 
ATOM     24  C   UNL     1      45.380   4.138  12.619  0.00  0.00    +0.000 A 
BRANCH  18  26
ATOM     25  N   UNL     1      43.365   2.167  11.625  0.00  0.00    +0.000 N 
ATOM     26  C   UNL     1      44.062   3.042  10.840  0.00  0.00    +0.000 C 
ATOM     27  O   UNL     1      44.216   2.838   9.643  0.00  0.00    +0.000 OA
ATOM     28  H   UNL     1      42.909   1.403  11.141  0.00  0.00    +0.000 HD
ATOM     29  H   UNL     1      43.001   2.427  12.530  0.00  0.00    +0.000 HD
ENDBRANCH  18  26
ENDBRANCH  16  21
ENDBRANCH   1  16
TORSDOF 7
ENDMDL
