MODEL 1
REMARK VINA RESULT:    -8.557      0.000      0.000
REMARK INTER + INTRA:         -12.424
REMARK INTER:                 -11.558
REMARK INTRA:                  -0.866
REMARK UNBOUND:                -0.866
REMARK  Name = 
REMARK  7 active torsions:
REMARK  status: ('A' for Active; 'I' for Inactive)
REMARK    1  A    between atoms: C_1  and  C_2
REMARK    2  A    between atoms: C_2  and  C_3
REMARK    3  A    between atoms: C_7  and  O_8
REMARK    4  A    between atoms: O_8  and  C_9
REMARK    5  A    between atoms: C_9  and  C_10
REMARK    6  A    between atoms: C_10  and  C_13
REMARK    7  A    between atoms: C_16  and  C_17
REMARK                            x       y       z     vdW  Elec       q    Type
REMARK                         _______ _______ _______ _____ _____    ______ ____
ROOT
ATOM      1  C   UNL     1      44.715   5.092  11.774  0.00  0.00    +0.000 C 
ENDROOT
BRANCH   1   2
ATOM      2  C   UNL     1      43.940   4.321  10.697  0.00  0.00    +0.000 C 
ATOM      3  F   UNL     1      43.140   3.403  11.317  0.00  0.00    +0.000 F 
ATOM      4  F   UNL     1      43.065   5.211  10.128  0.00  0.00    +0.000 F 
BRANCH   2   5
ATOM      5  C   UNL     1      44.830   3.689   9.659  0.00  0.00    +0.000 A 
ATOM      6  C   UNL     1      45.567   4.473   8.768  0.00  0.00    +0.000 A 
ATOM      7  C   UNL     1      46.395   3.868   7.828  0.00  0.00    +0.000 A 
ATOM      8  C   UNL     1      46.457   2.481   7.808  0.00  0.00    +0.000 A 
ATOM      9  N   UNL     1      45.749   1.678   8.655  0.00  0.00    +0.000 NA
ATOM     10  C   UNL     1      44.960   2.308   9.561  0.00  0.00    +0.000 A 
BRANCH   8  11
ATOM     11  C   UNL     1      47.341   1.796   6.813  0.00  0.00    +0.000 C 
ATOM     12  N   UNL     1      48.335   2.574   6.280  0.00  0.00    +0.000 N 
ATOM     13  O   UNL     1      47.193   0.627   6.488  0.00  0.00    +0.000 OA
ATOM     14  H   UNL     1      48.424   3.539   6.573  0.00  0.00    +0.000 HD
ATOM     15  H   UNL     1      48.969   2.178   5.601  0.00  0.00    +0.000 HD
ENDBRANCH   8  11
ENDBRANCH   2   5
ENDBRANCH   1   2
BRANCH   1  16
ATOM     16  O   UNL     1      45.615   4.253  12.505  0.00  0.00    +0.000 OA
BRANCH  16  21
ATOM     17  C   UNL     1      47.607   4.819  15.515  0.00  0.00    +0.000 A 
ATOM     18  C   UNL     1      48.291   6.000  15.163  0.00  0.00    +0.000 A 
ATOM     19  C   UNL     1      48.081   6.621  13.933  0.00  0.00    +0.000 A 
ATOM     20  C   UNL     1      47.184   6.075  13.021  0.00  0.00    +0.000 A 
ATOM     21  C   UNL     1      46.493   4.906  13.334  0.00  0.00    +0.000 A 
ATOM     22  C   UNL     1      46.696   4.297  14.578  0.00  0.00    +0.000 A 
BRANCH  17  24
ATOM     23  C   UNL     1      48.326   2.662  16.538  0.00  0.00    +0.000 C 
ATOM     24  C   UNL     1      47.953   4.123  16.840  0.00  0.00    +0.000 C 
ATOM     25  C   UNL     1      49.076   4.846  17.612  0.00  0.00    +0.000 C 
ATOM     26  C   UNL     1      48.378   5.691  18.678  0.00  0.00    +0.000 C 
ATOM     27  C   UNL     1      46.900   5.397  18.520  0.00  0.00    +0.000 C 
ATOM     28  N   UNL     1      46.877   4.107  17.847  0.00  0.00    +0.000 NA
ATOM     29  H   UNL     1      45.975   3.880  17.442  0.00  0.00    +0.000 HD
ENDBRANCH  17  24
ENDBRANCH  16  21
ENDBRANCH   1  16
TORSDOF 6
ENDMDL
MODEL 2
REMARK VINA RESULT:    -8.218      2.625      3.369
REMARK INTER + INTRA:         -11.966
REMARK INTER:                 -11.016
REMARK INTRA:                  -0.950
REMARK UNBOUND:                -0.866
REMARK  Name = 
REMARK  7 active torsions:
REMARK  status: ('A' for Active; 'I' for Inactive)
REMARK    1  A    between atoms: C_1  and  C_2
REMARK    2  A    between atoms: C_2  and  C_3
REMARK    3  A    between atoms: C_7  and  O_8
REMARK    4  A    between atoms: O_8  and  C_9
REMARK    5  A    between atoms: C_9  and  C_10
REMARK    6  A    between atoms: C_10  and  C_13
REMARK    7  A    between atoms: C_16  and  C_17
REMARK                            x       y       z     vdW  Elec       q    Type
REMARK                         _______ _______ _______ _____ _____    ______ ____
ROOT
ATOM      1  C   UNL     1      44.521   4.237  12.057  0.00  0.00    +0.000 C 
ENDROOT
BRANCH   1   2
ATOM      2  C   UNL     1      43.793   3.866  10.757  0.00  0.00    +0.000 C 
ATOM      3  F   UNL     1      42.872   2.897  11.042  0.00  0.00    +0.000 F 
ATOM      4  F   UNL     1      43.045   4.959  10.400  0.00  0.00    +0.000 F 
BRANCH   2   5
ATOM      5  C   UNL     1      44.727   3.454   9.649  0.00  0.00    +0.000 A 
ATOM      6  C   UNL     1      45.029   2.108   9.425  0.00  0.00    +0.000 A 
ATOM      7  C   UNL     1      45.881   1.750   8.386  0.00  0.00    +0.000 A 
ATOM      8  C   UNL     1      46.413   2.761   7.598  0.00  0.00    +0.000 A 
ATOM      9  N   UNL     1      46.150   4.087   7.787  0.00  0.00    +0.000 NA
ATOM     10  C   UNL     1      45.309   4.394   8.805  0.00  0.00    +0.000 A 
BRANCH   8  11
ATOM     11  C   UNL     1      47.331   2.411   6.468  0.00  0.00    +0.000 C 
ATOM     12  N   UNL     1      47.160   3.147   5.326  0.00  0.00    +0.000 N 
ATOM     13  O   UNL     1      48.175   1.530   6.548  0.00  0.00    +0.000 OA
ATOM     14  H   UNL     1      46.448   3.867   5.298  0.00  0.00    +0.000 HD
ATOM     15  H   UNL     1      47.744   2.964   4.522  0.00  0.00    +0.000 HD
ENDBRANCH   8  11
ENDBRANCH   2   5
ENDBRANCH   1   2
BRANCH   1  16
ATOM     16  O   UNL     1      45.850   4.715  11.821  0.00  0.00    +0.000 OA
BRANCH  16  21
ATOM     17  C   UNL     1      47.833   7.618  12.817  0.00  0.00    +0.000 A 
ATOM     18  C   UNL     1      46.834   8.607  12.901  0.00  0.00    +0.000 A 
ATOM     19  C   UNL     1      45.496   8.311  12.644  0.00  0.00    +0.000 A 
ATOM     20  C   UNL     1      45.124   7.018  12.292  0.00  0.00    +0.000 A 
ATOM     21  C   UNL     1      46.087   6.014  12.196  0.00  0.00    +0.000 A 
ATOM     22  C   UNL     1      47.426   6.315  12.472  0.00  0.00    +0.000 A 
BRANCH  17  24
ATOM     23  C   UNL     1      49.975   8.091  11.629  0.00  0.00    +0.000 C 
ATOM     24  C   UNL     1      49.303   8.022  13.011  0.00  0.00    +0.000 C 
ATOM     25  C   UNL     1      49.453   9.351  13.780  0.00  0.00    +0.000 C 
ATOM     26  C   UNL     1      49.764   8.968  15.227  0.00  0.00    +0.000 C 
ATOM     27  C   UNL     1      49.828   7.454  15.237  0.00  0.00    +0.000 C 
ATOM     28  N   UNL     1      50.105   7.114  13.849  0.00  0.00    +0.000 NA
ATOM     29  H   UNL     1      49.932   6.138  13.632  0.00  0.00    +0.000 HD
ENDBRANCH  17  24
ENDBRANCH  16  21
ENDBRANCH   1  16
TORSDOF 6
ENDMDL
MODEL 3
REMARK VINA RESULT:    -8.012      1.821      3.301
REMARK INTER + INTRA:         -11.688
REMARK INTER:                 -10.905
REMARK INTRA:                  -0.783
REMARK UNBOUND:                -0.866
REMARK  Name = 
REMARK  7 active torsions:
REMARK  status: ('A' for Active; 'I' for Inactive)
REMARK    1  A    between atoms: C_1  and  C_2
REMARK    2  A    between atoms: C_2  and  C_3
REMARK    3  A    between atoms: C_7  and  O_8
REMARK    4  A    between atoms: O_8  and  C_9
REMARK    5  A    between atoms: C_9  and  C_10
REMARK    6  A    between atoms: C_10  and  C_13
REMARK    7  A    between atoms: C_16  and  C_17
REMARK                            x       y       z     vdW  Elec       q    Type
REMARK                         _______ _______ _______ _____ _____    ______ ____
ROOT
ATOM      1  C   UNL     1      44.654   4.741  11.896  0.00  0.00    +0.000 C 
ENDROOT
BRANCH   1   2
ATOM      2  C   UNL     1      43.920   4.116  10.702  0.00  0.00    +0.000 C 
ATOM      3  F   UNL     1      43.128   3.102  11.166  0.00  0.00    +0.000 F 
ATOM      4  F   UNL     1      43.037   5.061  10.244  0.00  0.00    +0.000 F 
BRANCH   2   5
ATOM      5  C   UNL     1      44.848   3.655   9.608  0.00  0.00    +0.000 A 
ATOM      6  C   UNL     1      45.056   2.295   9.365  0.00  0.00    +0.000 A 
ATOM      7  C   UNL     1      45.905   1.893   8.339  0.00  0.00    +0.000 A 
ATOM      8  C   UNL     1      46.529   2.877   7.583  0.00  0.00    +0.000 A 
ATOM      9  N   UNL     1      46.359   4.215   7.791  0.00  0.00    +0.000 NA
ATOM     10  C   UNL     1      45.517   4.565   8.796  0.00  0.00    +0.000 A 
BRANCH   8  11
ATOM     11  C   UNL     1      47.446   2.480   6.468  0.00  0.00    +0.000 C 
ATOM     12  N   UNL     1      47.246   3.137   5.284  0.00  0.00    +0.000 N 
ATOM     13  O   UNL     1      48.314   1.628   6.595  0.00  0.00    +0.000 OA
ATOM     14  H   UNL     1      46.515   3.835   5.218  0.00  0.00    +0.000 HD
ATOM     15  H   UNL     1      47.827   2.919   4.488  0.00  0.00    +0.000 HD
ENDBRANCH   8  11
ENDBRANCH   2   5
ENDBRANCH   1   2
BRANCH   1  16
ATOM     16  O   UNL     1      45.562   3.826  12.518  0.00  0.00    +0.000 OA
BRANCH  16  21
ATOM     17  C   UNL     1      47.663   6.372  14.085  0.00  0.00    +0.000 A 
ATOM     18  C   UNL     1      48.030   5.717  15.277  0.00  0.00    +0.000 A 
ATOM     19  C   UNL     1      47.597   4.422  15.558  0.00  0.00    +0.000 A 
ATOM     20  C   UNL     1      46.780   3.751  14.654  0.00  0.00    +0.000 A 
ATOM     21  C   UNL     1      46.393   4.369  13.466  0.00  0.00    +0.000 A 
ATOM     22  C   UNL     1      46.847   5.662  13.184  0.00  0.00    +0.000 A 
BRANCH  17  24
ATOM     23  C   UNL     1      49.389   8.079  14.657  0.00  0.00    +0.000 C 
ATOM     24  C   UNL     1      48.087   7.833  13.875  0.00  0.00    +0.000 C 
ATOM     25  C   UNL     1      48.248   8.193  12.383  0.00  0.00    +0.000 C 
ATOM     26  C   UNL     1      46.957   8.909  11.983  0.00  0.00    +0.000 C 
ATOM     27  C   UNL     1      46.126   8.979  13.248  0.00  0.00    +0.000 C 
ATOM     28  N   UNL     1      47.111   8.846  14.312  0.00  0.00    +0.000 NA
ATOM     29  H   UNL     1      46.701   8.621  15.212  0.00  0.00    +0.000 HD
ENDBRANCH  17  24
ENDBRANCH  16  21
ENDBRANCH   1  16
TORSDOF 6
ENDMDL
MODEL 4
REMARK VINA RESULT:    -7.993      3.705      8.378
REMARK INTER + INTRA:         -11.662
REMARK INTER:                 -10.806
REMARK INTRA:                  -0.856
REMARK UNBOUND:                -0.866
REMARK  Name = 
REMARK  7 active torsions:
REMARK  status: ('A' for Active; 'I' for Inactive)
REMARK    1  A    between atoms: C_1  and  C_2
REMARK    2  A    between atoms: C_2  and  C_3
REMARK    3  A    between atoms: C_7  and  O_8
REMARK    4  A    between atoms: O_8  and  C_9
REMARK    5  A    between atoms: C_9  and  C_10
REMARK    6  A    between atoms: C_10  and  C_13
REMARK    7  A    between atoms: C_16  and  C_17
REMARK                            x       y       z     vdW  Elec       q    Type
REMARK                         _______ _______ _______ _____ _____    ______ ____
ROOT
ATOM      1  C   UNL     1      47.567   4.784  15.817  0.00  0.00    +0.000 C 
ENDROOT
BRANCH   1   2
ATOM      2  C   UNL     1      47.737   4.028  17.142  0.00  0.00    +0.000 C 
ATOM      3  F   UNL     1      47.499   4.899  18.168  0.00  0.00    +0.000 F 
ATOM      4  F   UNL     1      46.709   3.123  17.213  0.00  0.00    +0.000 F 
BRANCH   2   5
ATOM      5  C   UNL     1      49.076   3.349  17.273  0.00  0.00    +0.000 A 
ATOM      6  C   UNL     1      50.134   3.968  17.944  0.00  0.00    +0.000 A 
ATOM      7  C   UNL     1      51.357   3.316  18.065  0.00  0.00    +0.000 A 
ATOM      8  C   UNL     1      51.484   2.053  17.503  0.00  0.00    +0.000 A 
ATOM      9  N   UNL     1      50.478   1.416  16.834  0.00  0.00    +0.000 NA
ATOM     10  C   UNL     1      49.301   2.083  16.744  0.00  0.00    +0.000 A 
BRANCH   8  11
ATOM     11  C   UNL     1      52.785   1.321  17.619  0.00  0.00    +0.000 C 
ATOM     12  N   UNL     1      52.701   0.060  18.148  0.00  0.00    +0.000 N 
ATOM     13  O   UNL     1      53.852   1.805  17.272  0.00  0.00    +0.000 OA
ATOM     14  H   UNL     1      51.799  -0.306  18.426  0.00  0.00    +0.000 HD
ATOM     15  H   UNL     1      53.539  -0.492  18.257  0.00  0.00    +0.000 HD
ENDBRANCH   8  11
ENDBRANCH   2   5
ENDBRANCH   1   2
BRANCH   1  16
ATOM     16  O   UNL     1      46.764   4.064  14.877  0.00  0.00    +0.000 OA
BRANCH  16  21
ATOM     17  C   UNL     1      45.220   4.670  11.621  0.00  0.00    +0.000 A 
ATOM     18  C   UNL     1      45.931   5.811  11.198  0.00  0.00    +0.000 A 
ATOM     19  C   UNL     1      46.937   6.372  11.983  0.00  0.00    +0.000 A 
ATOM     20  C   UNL     1      47.254   5.809  13.215  0.00  0.00    +0.000 A 
ATOM     21  C   UNL     1      46.569   4.683  13.668  0.00  0.00    +0.000 A 
ATOM     22  C   UNL     1      45.572   4.115  12.866  0.00  0.00    +0.000 A 
BRANCH  17  24
ATOM     23  C   UNL     1      42.738   4.660  11.377  0.00  0.00    +0.000 C 
ATOM     24  C   UNL     1      44.055   4.155  10.762  0.00  0.00    +0.000 C 
ATOM     25  C   UNL     1      44.183   4.571   9.282  0.00  0.00    +0.000 C 
ATOM     26  C   UNL     1      44.757   3.356   8.552  0.00  0.00    +0.000 C 
ATOM     27  C   UNL     1      44.896   2.280   9.610  0.00  0.00    +0.000 C 
ATOM     28  N   UNL     1      43.955   2.691  10.642  0.00  0.00    +0.000 NA
ATOM     29  H   UNL     1      44.102   2.221  11.529  0.00  0.00    +0.000 HD
ENDBRANCH  17  24
ENDBRANCH  16  21
ENDBRANCH   1  16
TORSDOF 6
ENDMDL
MODEL 5
REMARK VINA RESULT:    -7.296      3.739      9.064
REMARK INTER + INTRA:         -10.721
REMARK INTER:                  -9.907
REMARK INTRA:                  -0.814
REMARK UNBOUND:                -0.866
REMARK  Name = 
REMARK  7 active torsions:
REMARK  status: ('A' for Active; 'I' for Inactive)
REMARK    1  A    between atoms: C_1  and  C_2
REMARK    2  A    between atoms: C_2  and  C_3
REMARK    3  A    between atoms: C_7  and  O_8
REMARK    4  A    between atoms: O_8  and  C_9
REMARK    5  A    between atoms: C_9  and  C_10
REMARK    6  A    between atoms: C_10  and  C_13
REMARK    7  A    between atoms: C_16  and  C_17
REMARK                            x       y       z     vdW  Elec       q    Type
REMARK                         _______ _______ _______ _____ _____    ______ ____
ROOT
ATOM      1  C   UNL     1      47.588   3.908  15.839  0.00  0.00    +0.000 C 
ENDROOT
BRANCH   1   2
ATOM      2  C   UNL     1      48.175   2.897  16.834  0.00  0.00    +0.000 C 
ATOM      3  F   UNL     1      47.179   2.503  17.684  0.00  0.00    +0.000 F 
ATOM      4  F   UNL     1      48.481   1.770  16.116  0.00  0.00    +0.000 F 
BRANCH   2   5
ATOM      5  C   UNL     1      49.378   3.420  17.574  0.00  0.00    +0.000 A 
ATOM      6  C   UNL     1      50.633   2.823  17.422  0.00  0.00    +0.000 A 
ATOM      7  C   UNL     1      51.733   3.332  18.103  0.00  0.00    +0.000 A 
ATOM      8  C   UNL     1      51.540   4.433  18.927  0.00  0.00    +0.000 A 
ATOM      9  N   UNL     1      50.332   5.041  19.110  0.00  0.00    +0.000 NA
ATOM     10  C   UNL     1      49.287   4.519  18.422  0.00  0.00    +0.000 A 
BRANCH   8  11
ATOM     11  C   UNL     1      52.704   5.010  19.672  0.00  0.00    +0.000 C 
ATOM     12  N   UNL     1      52.735   6.377  19.740  0.00  0.00    +0.000 N 
ATOM     13  O   UNL     1      53.572   4.318  20.185  0.00  0.00    +0.000 OA
ATOM     14  H   UNL     1      51.999   6.916  19.300  0.00  0.00    +0.000 HD
ATOM     15  H   UNL     1      53.492   6.835  20.226  0.00  0.00    +0.000 HD
ENDBRANCH   8  11
ENDBRANCH   2   5
ENDBRANCH   1   2
BRANCH   1  16
ATOM     16  O   UNL     1      47.150   3.287  14.625  0.00  0.00    +0.000 OA
BRANCH  16  21
ATOM     17  C   UNL     1      45.273   4.454  11.716  0.00  0.00    +0.000 A 
ATOM     18  C   UNL     1      45.824   5.740  11.542  0.00  0.00    +0.000 A 
ATOM     19  C   UNL     1      46.831   6.217  12.378  0.00  0.00    +0.000 A 
ATOM     20  C   UNL     1      47.311   5.422  13.414  0.00  0.00    +0.000 A 
ATOM     21  C   UNL     1      46.787   4.147  13.618  0.00  0.00    +0.000 A 
ATOM     22  C   UNL     1      45.788   3.668  12.763  0.00  0.00    +0.000 A 
BRANCH  17  24
ATOM     23  C   UNL     1      42.788   4.471  11.501  0.00  0.00    +0.000 C 
ATOM     24  C   UNL     1      44.096   4.020  10.829  0.00  0.00    +0.000 C 
ATOM     25  C   UNL     1      44.208   4.564   9.390  0.00  0.00    +0.000 C 
ATOM     26  C   UNL     1      44.770   3.416   8.549  0.00  0.00    +0.000 C 
ATOM     27  C   UNL     1      44.918   2.251   9.506  0.00  0.00    +0.000 C 
ATOM     28  N   UNL     1      43.990   2.572  10.581  0.00  0.00    +0.000 NA
ATOM     29  H   UNL     1      44.145   2.025  11.422  0.00  0.00    +0.000 HD
ENDBRANCH  17  24
ENDBRANCH  16  21
ENDBRANCH   1  16
TORSDOF 6
ENDMDL
MODEL 6
REMARK VINA RESULT:    -7.228      3.685      8.145
REMARK INTER + INTRA:         -10.628
REMARK INTER:                  -9.706
REMARK INTRA:                  -0.922
REMARK UNBOUND:                -0.866
REMARK  Name = 
REMARK  7 active torsions:
REMARK  status: ('A' for Active; 'I' for Inactive)
REMARK    1  A    between atoms: C_1  and  C_2
REMARK    2  A    between atoms: C_2  and  C_3
REMARK    3  A    between atoms: C_7  and  O_8
REMARK    4  A    between atoms: O_8  and  C_9
REMARK    5  A    between atoms: C_9  and  C_10
REMARK    6  A    between atoms: C_10  and  C_13
REMARK    7  A    between atoms: C_16  and  C_17
REMARK                            x       y       z     vdW  Elec       q    Type
REMARK                         _______ _______ _______ _____ _____    ______ ____
ROOT
ATOM      1  C   UNL     1      48.067   5.726  15.651  0.00  0.00    +0.000 C 
ENDROOT
BRANCH   1   2
ATOM      2  C   UNL     1      47.909   4.747  16.824  0.00  0.00    +0.000 C 
ATOM      3  F   UNL     1      47.533   5.458  17.929  0.00  0.00    +0.000 F 
ATOM      4  F   UNL     1      46.825   3.958  16.535  0.00  0.00    +0.000 F 
BRANCH   2   5
ATOM      5  C   UNL     1      49.141   3.917  17.076  0.00  0.00    +0.000 A 
ATOM      6  C   UNL     1      50.320   4.502  17.545  0.00  0.00    +0.000 A 
ATOM      7  C   UNL     1      51.441   3.713  17.785  0.00  0.00    +0.000 A 
ATOM      8  C   UNL     1      51.345   2.350  17.542  0.00  0.00    +0.000 A 
ATOM      9  N   UNL     1      50.216   1.740  17.076  0.00  0.00    +0.000 NA
ATOM     10  C   UNL     1      49.144   2.543  16.863  0.00  0.00    +0.000 A 
BRANCH   8  11
ATOM     11  C   UNL     1      52.531   1.470  17.793  0.00  0.00    +0.000 C 
ATOM     12  N   UNL     1      53.280   1.798  18.892  0.00  0.00    +0.000 N 
ATOM     13  O   UNL     1      52.820   0.526  17.073  0.00  0.00    +0.000 OA
ATOM     14  H   UNL     1      53.008   2.589  19.463  0.00  0.00    +0.000 HD
ATOM     15  H   UNL     1      54.095   1.249  19.122  0.00  0.00    +0.000 HD
ENDBRANCH   8  11
ENDBRANCH   2   5
ENDBRANCH   1   2
BRANCH   1  16
ATOM     16  O   UNL     1      47.898   5.087  14.381  0.00  0.00    +0.000 OA
BRANCH  16  21
ATOM     17  C   UNL     1      45.714   5.642  11.506  0.00  0.00    +0.000 A 
ATOM     18  C   UNL     1      45.665   7.050  11.477  0.00  0.00    +0.000 A 
ATOM     19  C   UNL     1      46.370   7.820  12.400  0.00  0.00    +0.000 A 
ATOM     20  C   UNL     1      47.139   7.201  13.380  0.00  0.00    +0.000 A 
ATOM     21  C   UNL     1      47.208   5.810  13.441  0.00  0.00    +0.000 A 
ATOM     22  C   UNL     1      46.511   5.044  12.500  0.00  0.00    +0.000 A 
BRANCH  17  24
ATOM     23  C   UNL     1      45.490   4.898   9.136  0.00  0.00    +0.000 C 
ATOM     24  C   UNL     1      44.837   4.844  10.528  0.00  0.00    +0.000 C 
ATOM     25  C   UNL     1      44.611   3.390  10.990  0.00  0.00    +0.000 C 
ATOM     26  C   UNL     1      43.230   3.368  11.648  0.00  0.00    +0.000 C 
ATOM     27  C   UNL     1      42.694   4.778  11.506  0.00  0.00    +0.000 C 
ATOM     28  N   UNL     1      43.451   5.320  10.386  0.00  0.00    +0.000 NA
ATOM     29  H   UNL     1      43.396   6.331  10.317  0.00  0.00    +0.000 HD
ENDBRANCH  17  24
ENDBRANCH  16  21
ENDBRANCH   1  16
TORSDOF 6
ENDMDL
MODEL 7
REMARK VINA RESULT:    -7.169      3.059      4.055
REMARK INTER + INTRA:         -10.549
REMARK INTER:                  -9.382
REMARK INTRA:                  -1.167
REMARK UNBOUND:                -0.866
REMARK  Name = 
REMARK  7 active torsions:
REMARK  status: ('A' for Active; 'I' for Inactive)
REMARK    1  A    between atoms: C_1  and  C_2
REMARK    2  A    between atoms: C_2  and  C_3
REMARK    3  A    between atoms: C_7  and  O_8
REMARK    4  A    between atoms: O_8  and  C_9
REMARK    5  A    between atoms: C_9  and  C_10
REMARK    6  A    between atoms: C_10  and  C_13
REMARK    7  A    between atoms: C_16  and  C_17
REMARK                            x       y       z     vdW  Elec       q    Type
REMARK                         _______ _______ _______ _____ _____    ______ ____
ROOT
ATOM      1  C   UNL     1      47.543   7.416  13.760  0.00  0.00    +0.000 C 
ENDROOT
BRANCH   1   2
ATOM      2  C   UNL     1      47.205   7.303  12.267  0.00  0.00    +0.000 C 
ATOM      3  F   UNL     1      46.598   8.463  11.874  0.00  0.00    +0.000 F 
ATOM      4  F   UNL     1      48.399   7.293  11.592  0.00  0.00    +0.000 F 
BRANCH   2   5
ATOM      5  C   UNL     1      46.376   6.089  11.934  0.00  0.00    +0.000 A 
ATOM      6  C   UNL     1      46.173   5.077  12.876  0.00  0.00    +0.000 A 
ATOM      7  C   UNL     1      45.391   3.972  12.551  0.00  0.00    +0.000 A 
ATOM      8  C   UNL     1      44.836   3.914  11.281  0.00  0.00    +0.000 A 
ATOM      9  N   UNL     1      45.016   4.877  10.329  0.00  0.00    +0.000 NA
ATOM     10  C   UNL     1      45.778   5.940  10.688  0.00  0.00    +0.000 A 
BRANCH   8  11
ATOM     11  C   UNL     1      43.986   2.741  10.899  0.00  0.00    +0.000 C 
ATOM     12  N   UNL     1      44.404   2.052   9.792  0.00  0.00    +0.000 N 
ATOM     13  O   UNL     1      42.987   2.416  11.523  0.00  0.00    +0.000 OA
ATOM     14  H   UNL     1      45.236   2.354   9.300  0.00  0.00    +0.000 HD
ATOM     15  H   UNL     1      43.878   1.251   9.476  0.00  0.00    +0.000 HD
ENDBRANCH   8  11
ENDBRANCH   2   5
ENDBRANCH   1   2
BRANCH   1  16
ATOM     16  O   UNL     1      48.938   7.642  13.988  0.00  0.00    +0.000 OA
BRANCH  16  21
ATOM     17  C   UNL     1      48.947   5.556  16.988  0.00  0.00    +0.000 A 
ATOM     18  C   UNL     1      50.303   5.638  17.364  0.00  0.00    +0.000 A 
ATOM     19  C   UNL     1      51.214   6.398  16.634  0.00  0.00    +0.000 A 
ATOM     20  C   UNL     1      50.794   7.094  15.506  0.00  0.00    +0.000 A 
ATOM     21  C   UNL     1      49.462   7.033  15.101  0.00  0.00    +0.000 A 
ATOM     22  C   UNL     1      48.549   6.281  15.849  0.00  0.00    +0.000 A 
BRANCH  17  24
ATOM     23  C   UNL     1      47.542   3.502  16.827  0.00  0.00    +0.000 C 
ATOM     24  C   UNL     1      48.010   4.624  17.770  0.00  0.00    +0.000 C 
ATOM     25  C   UNL     1      48.670   4.053  19.042  0.00  0.00    +0.000 C 
ATOM     26  C   UNL     1      48.161   4.911  20.201  0.00  0.00    +0.000 C 
ATOM     27  C   UNL     1      47.202   5.904  19.576  0.00  0.00    +0.000 C 
ATOM     28  N   UNL     1      46.806   5.260  18.332  0.00  0.00    +0.000 NA
ATOM     29  H   UNL     1      46.364   5.894  17.675  0.00  0.00    +0.000 HD
ENDBRANCH  17  24
ENDBRANCH  16  21
ENDBRANCH   1  16
TORSDOF 6
ENDMDL
MODEL 8
REMARK VINA RESULT:    -7.043      3.499      4.928
REMARK INTER + INTRA:         -10.379
REMARK INTER:                  -8.989
REMARK INTRA:                  -1.389
REMARK UNBOUND:                -0.866
REMARK  Name = 
REMARK  7 active torsions:
REMARK  status: ('A' for Active; 'I' for Inactive)
REMARK    1  A    between atoms: C_1  and  C_2
REMARK    2  A    between atoms: C_2  and  C_3
REMARK    3  A    between atoms: C_7  and  O_8
REMARK    4  A    between atoms: O_8  and  C_9
REMARK    5  A    between atoms: C_9  and  C_10
REMARK    6  A    between atoms: C_10  and  C_13
REMARK    7  A    between atoms: C_16  and  C_17
REMARK                            x       y       z     vdW  Elec       q    Type
REMARK                         _______ _______ _______ _____ _____    ______ ____
ROOT
ATOM      1  C   UNL     1      48.267   7.457  14.351  0.00  0.00    +0.000 C 
ENDROOT
BRANCH   1   2
ATOM      2  C   UNL     1      48.168   7.116  12.858  0.00  0.00    +0.000 C 
ATOM      3  F   UNL     1      47.986   8.278  12.162  0.00  0.00    +0.000 F 
ATOM      4  F   UNL     1      49.408   6.674  12.472  0.00  0.00    +0.000 F 
BRANCH   2   5
ATOM      5  C   UNL     1      47.101   6.097  12.550  0.00  0.00    +0.000 A 
ATOM      6  C   UNL     1      46.877   5.010  13.399  0.00  0.00    +0.000 A 
ATOM      7  C   UNL     1      45.876   4.090  13.102  0.00  0.00    +0.000 A 
ATOM      8  C   UNL     1      45.127   4.288  11.951  0.00  0.00    +0.000 A 
ATOM      9  N   UNL     1      45.318   5.331  11.091  0.00  0.00    +0.000 NA
ATOM     10  C   UNL     1      46.298   6.209  11.420  0.00  0.00    +0.000 A 
BRANCH   8  11
ATOM     11  C   UNL     1      44.039   3.320  11.603  0.00  0.00    +0.000 C 
ATOM     12  N   UNL     1      43.790   2.356  12.544  0.00  0.00    +0.000 N 
ATOM     13  O   UNL     1      43.413   3.374  10.554  0.00  0.00    +0.000 OA
ATOM     14  H   UNL     1      44.332   2.342  13.399  0.00  0.00    +0.000 HD
ATOM     15  H   UNL     1      43.071   1.668  12.375  0.00  0.00    +0.000 HD
ENDBRANCH   8  11
ENDBRANCH   2   5
ENDBRANCH   1   2
BRANCH   1  16
ATOM     16  O   UNL     1      49.577   7.897  14.724  0.00  0.00    +0.000 OA
BRANCH  16  21
ATOM     17  C   UNL     1      49.958   5.290  17.256  0.00  0.00    +0.000 A 
ATOM     18  C   UNL     1      51.353   5.312  17.452  0.00  0.00    +0.000 A 
ATOM     19  C   UNL     1      52.170   6.202  16.758  0.00  0.00    +0.000 A 
ATOM     20  C   UNL     1      51.613   7.092  15.846  0.00  0.00    +0.000 A 
ATOM     21  C   UNL     1      50.237   7.097  15.623  0.00  0.00    +0.000 A 
ATOM     22  C   UNL     1      49.421   6.211  16.337  0.00  0.00    +0.000 A 
BRANCH  17  24
ATOM     23  C   UNL     1      48.745   4.750  19.367  0.00  0.00    +0.000 C 
ATOM     24  C   UNL     1      49.120   4.221  17.973  0.00  0.00    +0.000 C 
ATOM     25  C   UNL     1      47.868   3.815  17.168  0.00  0.00    +0.000 C 
ATOM     26  C   UNL     1      48.230   2.509  16.457  0.00  0.00    +0.000 C 
ATOM     27  C   UNL     1      49.641   2.185  16.905  0.00  0.00    +0.000 C 
ATOM     28  N   UNL     1      49.779   2.917  18.156  0.00  0.00    +0.000 NA
ATOM     29  H   UNL     1      50.742   3.012  18.462  0.00  0.00    +0.000 HD
ENDBRANCH  17  24
ENDBRANCH  16  21
ENDBRANCH   1  16
TORSDOF 6
ENDMDL
MODEL 9
REMARK VINA RESULT:    -6.517      4.062      7.742
REMARK INTER + INTRA:          -9.668
REMARK INTER:                  -8.678
REMARK INTRA:                  -0.990
REMARK UNBOUND:                -0.866
REMARK  Name = 
REMARK  7 active torsions:
REMARK  status: ('A' for Active; 'I' for Inactive)
REMARK    1  A    between atoms: C_1  and  C_2
REMARK    2  A    between atoms: C_2  and  C_3
REMARK    3  A    between atoms: C_7  and  O_8
REMARK    4  A    between atoms: O_8  and  C_9
REMARK    5  A    between atoms: C_9  and  C_10
REMARK    6  A    between atoms: C_10  and  C_13
REMARK    7  A    between atoms: C_16  and  C_17
REMARK                            x       y       z     vdW  Elec       q    Type
REMARK                         _______ _______ _______ _____ _____    ______ ____
ROOT
ATOM      1  C   UNL     1      49.203   7.389  12.815  0.00  0.00    +0.000 C 
ENDROOT
BRANCH   1   2
ATOM      2  C   UNL     1      49.555   7.635  14.289  0.00  0.00    +0.000 C 
ATOM      3  F   UNL     1      50.907   7.809  14.385  0.00  0.00    +0.000 F 
ATOM      4  F   UNL     1      49.026   8.856  14.621  0.00  0.00    +0.000 F 
BRANCH   2   5
ATOM      5  C   UNL     1      49.055   6.551  15.209  0.00  0.00    +0.000 A 
ATOM      6  C   UNL     1      49.594   6.387  16.488  0.00  0.00    +0.000 A 
ATOM      7  C   UNL     1      49.106   5.389  17.326  0.00  0.00    +0.000 A 
ATOM      8  C   UNL     1      48.087   4.577  16.850  0.00  0.00    +0.000 A 
ATOM      9  N   UNL     1      47.537   4.698  15.606  0.00  0.00    +0.000 NA
ATOM     10  C   UNL     1      48.035   5.688  14.824  0.00  0.00    +0.000 A 
BRANCH   8  11
ATOM     11  C   UNL     1      47.535   3.496  17.727  0.00  0.00    +0.000 C 
ATOM     12  N   UNL     1      48.258   3.236  18.861  0.00  0.00    +0.000 N 
ATOM     13  O   UNL     1      46.514   2.880  17.458  0.00  0.00    +0.000 OA
ATOM     14  H   UNL     1      49.101   3.766  19.048  0.00  0.00    +0.000 HD
ATOM     15  H   UNL     1      47.946   2.518  19.498  0.00  0.00    +0.000 HD
ENDBRANCH   8  11
ENDBRANCH   2   5
ENDBRANCH   1   2
BRANCH   1  16
ATOM     16  O   UNL     1      48.587   8.528  12.204  0.00  0.00    +0.000 OA
BRANCH  16  21
ATOM     17  C   UNL     1      45.408   6.918  11.397  0.00  0.00    +0.000 A 
ATOM     18  C   UNL     1      44.507   7.976  11.630  0.00  0.00    +0.000 A 
ATOM     19  C   UNL     1      44.953   9.232  12.038  0.00  0.00    +0.000 A 
ATOM     20  C   UNL     1      46.311   9.461  12.229  0.00  0.00    +0.000 A 
ATOM     21  C   UNL     1      47.231   8.436  12.013  0.00  0.00    +0.000 A 
ATOM     22  C   UNL     1      46.777   7.183  11.585  0.00  0.00    +0.000 A 
BRANCH  17  24
ATOM     23  C   UNL     1      45.535   5.046   9.754  0.00  0.00    +0.000 C 
ATOM     24  C   UNL     1      44.853   5.529  11.046  0.00  0.00    +0.000 C 
ATOM     25  C   UNL     1      45.034   4.513  12.193  0.00  0.00    +0.000 C 
ATOM     26  C   UNL     1      43.686   4.449  12.913  0.00  0.00    +0.000 C 
ATOM     27  C   UNL     1      42.772   5.380  12.142  0.00  0.00    +0.000 C 
ATOM     28  N   UNL     1      43.398   5.464  10.830  0.00  0.00    +0.000 NA
ATOM     29  H   UNL     1      43.056   6.238  10.270  0.00  0.00    +0.000 HD
ENDBRANCH  17  24
ENDBRANCH  16  21
ENDBRANCH   1  16
TORSDOF 6
ENDMDL
