MODEL 1
REMARK VINA RESULT:    -8.860      0.000      0.000
REMARK INTER + INTRA:         -13.280
REMARK INTER:                 -12.227
REMARK INTRA:                  -1.054
REMARK UNBOUND:                -1.054
REMARK  Name = 
REMARK  7 active torsions:
REMARK  status: ('A' for Active; 'I' for Inactive)
REMARK    1  A    between atoms: C_2  and  C_3
REMARK    2  A    between atoms: C_5  and  C_6
REMARK    3  A    between atoms: C_6  and  O_7
REMARK    4  A    between atoms: C_9  and  C_10
REMARK    5  A    between atoms: C_14  and  C_15
REMARK    6  A    between atoms: C_15  and  N_16
REMARK    7  A    between atoms: C_20  and  C_21
REMARK                            x       y       z     vdW  Elec       q    Type
REMARK                         _______ _______ _______ _____ _____    ______ ____
ROOT
ATOM      1  C   UNL     1      47.088   6.359  12.552  0.00  0.00    +0.000 A 
ATOM      2  C   UNL     1      47.520   5.428  13.492  0.00  0.00    +0.000 A 
ATOM      3  C   UNL     1      46.736   4.309  13.748  0.00  0.00    +0.000 A 
ATOM      4  C   UNL     1      45.542   4.145  13.054  0.00  0.00    +0.000 A 
ATOM      5  C   UNL     1      45.151   5.099  12.116  0.00  0.00    +0.000 A 
ATOM      6  N   UNL     1      45.916   6.202  11.885  0.00  0.00    +0.000 NA
ENDROOT
BRANCH   1  11
ATOM      7  C   UNL     1      49.954   8.649  11.561  0.00  0.00    +0.000 A 
ATOM      8  C   UNL     1      49.325   9.897  11.532  0.00  0.00    +0.000 A 
ATOM      9  C   UNL     1      47.970  10.013  11.863  0.00  0.00    +0.000 A 
ATOM     10  C   UNL     1      47.253   8.854  12.208  0.00  0.00    +0.000 A 
ATOM     11  C   UNL     1      47.851   7.580  12.220  0.00  0.00    +0.000 A 
ATOM     12  C   UNL     1      49.222   7.506  11.906  0.00  0.00    +0.000 A 
BRANCH   7  14
ATOM     13  N   UNL     1      52.472   8.469  10.965  0.00  0.00    +0.000 NA
ATOM     14  C   UNL     1      51.348   8.539  11.236  0.00  0.00    +0.000 C 
ENDBRANCH   7  14
BRANCH   9  15
ATOM     15  C   UNL     1      47.285  11.353  11.881  0.00  0.00    +0.000 C 
BRANCH  15  16
ATOM     16  O   UNL     1      45.934  11.203  12.292  0.00  0.00    +0.000 OA
ATOM     17  H   UNL     1      45.863  11.601  13.177  0.00  0.00    +0.000 HD
ENDBRANCH  15  16
ENDBRANCH   9  15
ENDBRANCH   1  11
BRANCH   5  18
ATOM     18  C   UNL     1      43.857   4.933  11.307  0.00  0.00    +0.000 C 
ATOM     19  C   UNL     1      42.984   6.159  11.105  0.00  0.00    +0.000 C 
ATOM     20  C   UNL     1      42.548   5.114  12.076  0.00  0.00    +0.000 C 
BRANCH  18  21
ATOM     21  N   UNL     1      43.856   3.771  10.394  0.00  0.00    +0.000 N 
ATOM     22  C   UNL     1      44.867   3.493   9.470  0.00  0.00    +0.000 A 
ATOM     23  C   UNL     1      45.453   4.468   8.670  0.00  0.00    +0.000 A 
ATOM     24  C   UNL     1      46.338   4.089   7.657  0.00  0.00    +0.000 A 
ATOM     25  C   UNL     1      46.627   2.740   7.474  0.00  0.00    +0.000 A 
ATOM     26  C   UNL     1      46.043   1.835   8.346  0.00  0.00    +0.000 A 
ATOM     27  N   UNL     1      45.165   2.185   9.321  0.00  0.00    +0.000 NA
ATOM     28  H   UNL     1      43.646   2.884  10.850  0.00  0.00    +0.000 HD
BRANCH  25  29
ATOM     29  C   UNL     1      47.512   2.238   6.404  0.00  0.00    +0.000 C 
ATOM     30  N   UNL     1      47.750   3.071   5.345  0.00  0.00    +0.000 N 
ATOM     31  O   UNL     1      47.982   1.108   6.439  0.00  0.00    +0.000 OA
ATOM     32  H   UNL     1      47.191   3.893   5.161  0.00  0.00    +0.000 HD
ATOM     33  H   UNL     1      48.261   2.674   4.568  0.00  0.00    +0.000 HD
ENDBRANCH  25  29
ENDBRANCH  18  21
ENDBRANCH   5  18
TORSDOF 7
ENDMDL
MODEL 2
REMARK VINA RESULT:    -8.060      1.999      2.321
REMARK INTER + INTRA:         -12.176
REMARK INTER:                 -11.139
REMARK INTRA:                  -1.037
REMARK UNBOUND:                -1.054
REMARK  Name = 
REMARK  7 active torsions:
REMARK  status: ('A' for Active; 'I' for Inactive)
REMARK    1  A    between atoms: C_2  and  C_3
REMARK    2  A    between atoms: C_5  and  C_6
REMARK    3  A    between atoms: C_6  and  O_7
REMARK    4  A    between atoms: C_9  and  C_10
REMARK    5  A    between atoms: C_14  and  C_15
REMARK    6  A    between atoms: C_15  and  N_16
REMARK    7  A    between atoms: C_20  and  C_21
REMARK                            x       y       z     vdW  Elec       q    Type
REMARK                         _______ _______ _______ _____ _____    ______ ____
ROOT
ATOM      1  C   UNL     1      46.897   6.162  13.224  0.00  0.00    +0.000 A 
ATOM      2  C   UNL     1      47.422   5.028  13.837  0.00  0.00    +0.000 A 
ATOM      3  C   UNL     1      46.788   3.804  13.656  0.00  0.00    +0.000 A 
ATOM      4  C   UNL     1      45.648   3.742  12.863  0.00  0.00    +0.000 A 
ATOM      5  C   UNL     1      45.160   4.901  12.262  0.00  0.00    +0.000 A 
ATOM      6  N   UNL     1      45.777   6.100  12.460  0.00  0.00    +0.000 NA
ENDROOT
BRANCH   1  11
ATOM      7  C   UNL     1      47.862   9.764  12.494  0.00  0.00    +0.000 A 
ATOM      8  C   UNL     1      48.601  10.097  13.634  0.00  0.00    +0.000 A 
ATOM      9  C   UNL     1      48.819   9.147  14.637  0.00  0.00    +0.000 A 
ATOM     10  C   UNL     1      48.270   7.861  14.487  0.00  0.00    +0.000 A 
ATOM     11  C   UNL     1      47.499   7.503  13.365  0.00  0.00    +0.000 A 
ATOM     12  C   UNL     1      47.322   8.478  12.364  0.00  0.00    +0.000 A 
BRANCH   7  14
ATOM     13  N   UNL     1      47.483  11.510  10.614  0.00  0.00    +0.000 NA
ATOM     14  C   UNL     1      47.654  10.739  11.461  0.00  0.00    +0.000 C 
ENDBRANCH   7  14
BRANCH   9  15
ATOM     15  C   UNL     1      49.649   9.472  15.850  0.00  0.00    +0.000 C 
BRANCH  15  16
ATOM     16  O   UNL     1      49.903   8.291  16.596  0.00  0.00    +0.000 OA
ATOM     17  H   UNL     1      50.573   7.785  16.104  0.00  0.00    +0.000 HD
ENDBRANCH  15  16
ENDBRANCH   9  15
ENDBRANCH   1  11
BRANCH   5  18
ATOM     18  C   UNL     1      43.924   4.864  11.352  0.00  0.00    +0.000 C 
ATOM     19  C   UNL     1      43.176   6.164  11.118  0.00  0.00    +0.000 C 
ATOM     20  C   UNL     1      42.579   5.140  12.024  0.00  0.00    +0.000 C 
BRANCH  18  21
ATOM     21  N   UNL     1      43.898   3.726  10.409  0.00  0.00    +0.000 N 
ATOM     22  C   UNL     1      44.898   3.455   9.471  0.00  0.00    +0.000 A 
ATOM     23  C   UNL     1      45.495   4.440   8.693  0.00  0.00    +0.000 A 
ATOM     24  C   UNL     1      46.368   4.073   7.664  0.00  0.00    +0.000 A 
ATOM     25  C   UNL     1      46.633   2.725   7.445  0.00  0.00    +0.000 A 
ATOM     26  C   UNL     1      46.039   1.807   8.297  0.00  0.00    +0.000 A 
ATOM     27  N   UNL     1      45.173   2.147   9.287  0.00  0.00    +0.000 NA
ATOM     28  H   UNL     1      43.676   2.831  10.844  0.00  0.00    +0.000 HD
BRANCH  25  29
ATOM     29  C   UNL     1      47.502   2.236   6.356  0.00  0.00    +0.000 C 
ATOM     30  N   UNL     1      47.762   3.098   5.327  0.00  0.00    +0.000 N 
ATOM     31  O   UNL     1      47.940   1.093   6.351  0.00  0.00    +0.000 OA
ATOM     32  H   UNL     1      47.227   3.941   5.172  0.00  0.00    +0.000 HD
ATOM     33  H   UNL     1      48.262   2.714   4.535  0.00  0.00    +0.000 HD
ENDBRANCH  25  29
ENDBRANCH  18  21
ENDBRANCH   5  18
TORSDOF 7
ENDMDL
MODEL 3
REMARK VINA RESULT:    -8.033      2.881      4.169
REMARK INTER + INTRA:         -12.139
REMARK INTER:                 -12.514
REMARK INTRA:                   0.375
REMARK UNBOUND:                -1.054
REMARK  Name = 
REMARK  7 active torsions:
REMARK  status: ('A' for Active; 'I' for Inactive)
REMARK    1  A    between atoms: C_2  and  C_3
REMARK    2  A    between atoms: C_5  and  C_6
REMARK    3  A    between atoms: C_6  and  O_7
REMARK    4  A    between atoms: C_9  and  C_10
REMARK    5  A    between atoms: C_14  and  C_15
REMARK    6  A    between atoms: C_15  and  N_16
REMARK    7  A    between atoms: C_20  and  C_21
REMARK                            x       y       z     vdW  Elec       q    Type
REMARK                         _______ _______ _______ _____ _____    ______ ____
ROOT
ATOM      1  C   UNL     1      46.948   5.872  13.169  0.00  0.00    +0.000 A 
ATOM      2  C   UNL     1      47.512   6.732  12.232  0.00  0.00    +0.000 A 
ATOM      3  C   UNL     1      46.855   6.943  11.024  0.00  0.00    +0.000 A 
ATOM      4  C   UNL     1      45.649   6.294  10.786  0.00  0.00    +0.000 A 
ATOM      5  C   UNL     1      45.117   5.447  11.757  0.00  0.00    +0.000 A 
ATOM      6  N   UNL     1      45.776   5.231  12.930  0.00  0.00    +0.000 NA
ENDROOT
BRANCH   1  11
ATOM      7  C   UNL     1      49.016   6.274  16.332  0.00  0.00    +0.000 A 
ATOM      8  C   UNL     1      48.755   5.073  16.998  0.00  0.00    +0.000 A 
ATOM      9  C   UNL     1      47.929   4.107  16.414  0.00  0.00    +0.000 A 
ATOM     10  C   UNL     1      47.355   4.372  15.158  0.00  0.00    +0.000 A 
ATOM     11  C   UNL     1      47.577   5.582  14.475  0.00  0.00    +0.000 A 
ATOM     12  C   UNL     1      48.435   6.520  15.082  0.00  0.00    +0.000 A 
BRANCH   7  14
ATOM     13  N   UNL     1      50.556   8.059  17.412  0.00  0.00    +0.000 NA
ATOM     14  C   UNL     1      49.877   7.255  16.929  0.00  0.00    +0.000 C 
ENDBRANCH   7  14
BRANCH   9  15
ATOM     15  C   UNL     1      47.670   2.789  17.095  0.00  0.00    +0.000 C 
BRANCH  15  16
ATOM     16  O   UNL     1      46.398   2.810  17.726  0.00  0.00    +0.000 OA
ATOM     17  H   UNL     1      45.871   2.098  17.323  0.00  0.00    +0.000 HD
ENDBRANCH  15  16
ENDBRANCH   9  15
ENDBRANCH   1  11
BRANCH   5  18
ATOM     18  C   UNL     1      43.770   4.741  11.543  0.00  0.00    +0.000 C 
ATOM     19  C   UNL     1      42.503   5.553  11.747  0.00  0.00    +0.000 C 
ATOM     20  C   UNL     1      42.896   4.555  12.785  0.00  0.00    +0.000 C 
BRANCH  18  21
ATOM     21  N   UNL     1      43.842   3.543  10.680  0.00  0.00    +0.000 N 
ATOM     22  C   UNL     1      44.784   3.358   9.665  0.00  0.00    +0.000 A 
ATOM     23  C   UNL     1      45.144   4.361   8.771  0.00  0.00    +0.000 A 
ATOM     24  C   UNL     1      45.969   4.054   7.685  0.00  0.00    +0.000 A 
ATOM     25  C   UNL     1      46.426   2.749   7.524  0.00  0.00    +0.000 A 
ATOM     26  C   UNL     1      46.065   1.820   8.487  0.00  0.00    +0.000 A 
ATOM     27  N   UNL     1      45.248   2.097   9.535  0.00  0.00    +0.000 NA
ATOM     28  H   UNL     1      43.806   2.661  11.189  0.00  0.00    +0.000 HD
BRANCH  25  29
ATOM     29  C   UNL     1      47.261   2.317   6.385  0.00  0.00    +0.000 C 
ATOM     30  N   UNL     1      47.138   3.017   5.217  0.00  0.00    +0.000 N 
ATOM     31  O   UNL     1      48.004   1.348   6.468  0.00  0.00    +0.000 OA
ATOM     32  H   UNL     1      46.368   3.647   5.036  0.00  0.00    +0.000 HD
ATOM     33  H   UNL     1      47.627   2.641   4.415  0.00  0.00    +0.000 HD
ENDBRANCH  25  29
ENDBRANCH  18  21
ENDBRANCH   5  18
TORSDOF 7
ENDMDL
MODEL 4
REMARK VINA RESULT:    -7.468      2.792      4.304
REMARK INTER + INTRA:         -11.360
REMARK INTER:                 -11.667
REMARK INTRA:                   0.307
REMARK UNBOUND:                -1.054
REMARK  Name = 
REMARK  7 active torsions:
REMARK  status: ('A' for Active; 'I' for Inactive)
REMARK    1  A    between atoms: C_2  and  C_3
REMARK    2  A    between atoms: C_5  and  C_6
REMARK    3  A    between atoms: C_6  and  O_7
REMARK    4  A    between atoms: C_9  and  C_10
REMARK    5  A    between atoms: C_14  and  C_15
REMARK    6  A    between atoms: C_15  and  N_16
REMARK    7  A    between atoms: C_20  and  C_21
REMARK                            x       y       z     vdW  Elec       q    Type
REMARK                         _______ _______ _______ _____ _____    ______ ____
ROOT
ATOM      1  C   UNL     1      46.937   5.995  13.099  0.00  0.00    +0.000 A 
ATOM      2  C   UNL     1      47.530   6.814  12.143  0.00  0.00    +0.000 A 
ATOM      3  C   UNL     1      46.896   6.997  10.919  0.00  0.00    +0.000 A 
ATOM      4  C   UNL     1      45.682   6.362  10.683  0.00  0.00    +0.000 A 
ATOM      5  C   UNL     1      45.120   5.556  11.673  0.00  0.00    +0.000 A 
ATOM      6  N   UNL     1      45.758   5.367  12.862  0.00  0.00    +0.000 NA
ENDROOT
BRANCH   1  11
ATOM      7  C   UNL     1      47.668   4.397  16.468  0.00  0.00    +0.000 A 
ATOM      8  C   UNL     1      48.715   5.194  16.941  0.00  0.00    +0.000 A 
ATOM      9  C   UNL     1      49.174   6.278  16.185  0.00  0.00    +0.000 A 
ATOM     10  C   UNL     1      48.578   6.539  14.938  0.00  0.00    +0.000 A 
ATOM     11  C   UNL     1      47.541   5.738  14.423  0.00  0.00    +0.000 A 
ATOM     12  C   UNL     1      47.088   4.672  15.223  0.00  0.00    +0.000 A 
BRANCH   7  14
ATOM     13  N   UNL     1      46.809   2.394  17.874  0.00  0.00    +0.000 NA
ATOM     14  C   UNL     1      47.191   3.295  17.255  0.00  0.00    +0.000 C 
ENDBRANCH   7  14
BRANCH   9  15
ATOM     15  C   UNL     1      50.269   7.175  16.696  0.00  0.00    +0.000 C 
BRANCH  15  16
ATOM     16  O   UNL     1      50.787   6.665  17.915  0.00  0.00    +0.000 OA
ATOM     17  H   UNL     1      51.706   6.398  17.742  0.00  0.00    +0.000 HD
ENDBRANCH  15  16
ENDBRANCH   9  15
ENDBRANCH   1  11
BRANCH   5  18
ATOM     18  C   UNL     1      43.765   4.867  11.460  0.00  0.00    +0.000 C 
ATOM     19  C   UNL     1      42.510   5.710  11.608  0.00  0.00    +0.000 C 
ATOM     20  C   UNL     1      42.865   4.747  12.691  0.00  0.00    +0.000 C 
BRANCH  18  21
ATOM     21  N   UNL     1      43.830   3.636  10.645  0.00  0.00    +0.000 N 
ATOM     22  C   UNL     1      44.767   3.408   9.635  0.00  0.00    +0.000 A 
ATOM     23  C   UNL     1      45.126   4.372   8.700  0.00  0.00    +0.000 A 
ATOM     24  C   UNL     1      45.945   4.020   7.624  0.00  0.00    +0.000 A 
ATOM     25  C   UNL     1      46.398   2.708   7.513  0.00  0.00    +0.000 A 
ATOM     26  C   UNL     1      46.039   1.819   8.514  0.00  0.00    +0.000 A 
ATOM     27  N   UNL     1      45.227   2.141   9.554  0.00  0.00    +0.000 NA
ATOM     28  H   UNL     1      43.794   2.775  11.190  0.00  0.00    +0.000 HD
BRANCH  25  29
ATOM     29  C   UNL     1      47.228   2.228   6.390  0.00  0.00    +0.000 C 
ATOM     30  N   UNL     1      47.177   2.943   5.224  0.00  0.00    +0.000 N 
ATOM     31  O   UNL     1      47.902   1.211   6.481  0.00  0.00    +0.000 OA
ATOM     32  H   UNL     1      46.457   3.625   5.033  0.00  0.00    +0.000 HD
ATOM     33  H   UNL     1      47.658   2.540   4.430  0.00  0.00    +0.000 HD
ENDBRANCH  25  29
ENDBRANCH  18  21
ENDBRANCH   5  18
TORSDOF 7
ENDMDL
MODEL 5
REMARK VINA RESULT:    -7.352      1.958      2.103
REMARK INTER + INTRA:         -11.199
REMARK INTER:                 -10.187
REMARK INTRA:                  -1.012
REMARK UNBOUND:                -1.054
REMARK  Name = 
REMARK  7 active torsions:
REMARK  status: ('A' for Active; 'I' for Inactive)
REMARK    1  A    between atoms: C_2  and  C_3
REMARK    2  A    between atoms: C_5  and  C_6
REMARK    3  A    between atoms: C_6  and  O_7
REMARK    4  A    between atoms: C_9  and  C_10
REMARK    5  A    between atoms: C_14  and  C_15
REMARK    6  A    between atoms: C_15  and  N_16
REMARK    7  A    between atoms: C_20  and  C_21
REMARK                            x       y       z     vdW  Elec       q    Type
REMARK                         _______ _______ _______ _____ _____    ______ ____
ROOT
ATOM      1  C   UNL     1      47.019   5.996  13.301  0.00  0.00    +0.000 A 
ATOM      2  C   UNL     1      47.260   4.799  13.969  0.00  0.00    +0.000 A 
ATOM      3  C   UNL     1      46.389   3.732  13.784  0.00  0.00    +0.000 A 
ATOM      4  C   UNL     1      45.301   3.884  12.932  0.00  0.00    +0.000 A 
ATOM      5  C   UNL     1      45.102   5.099  12.277  0.00  0.00    +0.000 A 
ATOM      6  N   UNL     1      45.949   6.146  12.479  0.00  0.00    +0.000 NA
ENDROOT
BRANCH   1  11
ATOM      7  C   UNL     1      49.307   8.617  14.829  0.00  0.00    +0.000 A 
ATOM      8  C   UNL     1      49.591   9.426  13.725  0.00  0.00    +0.000 A 
ATOM      9  C   UNL     1      49.017   9.148  12.480  0.00  0.00    +0.000 A 
ATOM     10  C   UNL     1      48.169   8.034  12.355  0.00  0.00    +0.000 A 
ATOM     11  C   UNL     1      47.886   7.184  13.442  0.00  0.00    +0.000 A 
ATOM     12  C   UNL     1      48.460   7.511  14.685  0.00  0.00    +0.000 A 
BRANCH   7  14
ATOM     13  N   UNL     1      50.340   9.175  17.142  0.00  0.00    +0.000 NA
ATOM     14  C   UNL     1      49.886   8.916  16.108  0.00  0.00    +0.000 C 
ENDBRANCH   7  14
BRANCH   9  15
ATOM     15  C   UNL     1      49.275  10.032  11.289  0.00  0.00    +0.000 C 
BRANCH  15  16
ATOM     16  O   UNL     1      50.129  11.105  11.656  0.00  0.00    +0.000 OA
ATOM     17  H   UNL     1      51.024  10.735  11.748  0.00  0.00    +0.000 HD
ENDBRANCH  15  16
ENDBRANCH   9  15
ENDBRANCH   1  11
BRANCH   5  18
ATOM     18  C   UNL     1      43.931   5.292  11.302  0.00  0.00    +0.000 C 
ATOM     19  C   UNL     1      43.450   6.708  11.043  0.00  0.00    +0.000 C 
ATOM     20  C   UNL     1      42.625   5.811  11.904  0.00  0.00    +0.000 C 
BRANCH  18  21
ATOM     21  N   UNL     1      43.747   4.179  10.346  0.00  0.00    +0.000 N 
ATOM     22  C   UNL     1      44.738   3.710   9.481  0.00  0.00    +0.000 A 
ATOM     23  C   UNL     1      45.578   4.552   8.760  0.00  0.00    +0.000 A 
ATOM     24  C   UNL     1      46.432   4.013   7.794  0.00  0.00    +0.000 A 
ATOM     25  C   UNL     1      46.436   2.638   7.579  0.00  0.00    +0.000 A 
ATOM     26  C   UNL     1      45.608   1.862   8.375  0.00  0.00    +0.000 A 
ATOM     27  N   UNL     1      44.758   2.372   9.302  0.00  0.00    +0.000 NA
ATOM     28  H   UNL     1      43.317   3.349  10.753  0.00  0.00    +0.000 HD
BRANCH  25  29
ATOM     29  C   UNL     1      47.267   1.980   6.551  0.00  0.00    +0.000 C 
ATOM     30  N   UNL     1      47.860   2.784   5.616  0.00  0.00    +0.000 N 
ATOM     31  O   UNL     1      47.391   0.763   6.510  0.00  0.00    +0.000 OA
ATOM     32  H   UNL     1      47.583   3.745   5.468  0.00  0.00    +0.000 HD
ATOM     33  H   UNL     1      48.329   2.314   4.853  0.00  0.00    +0.000 HD
ENDBRANCH  25  29
ENDBRANCH  18  21
ENDBRANCH   5  18
TORSDOF 7
ENDMDL
MODEL 6
REMARK VINA RESULT:    -7.345      3.618      8.381
REMARK INTER + INTRA:         -11.190
REMARK INTER:                 -10.085
REMARK INTRA:                  -1.105
REMARK UNBOUND:                -1.054
REMARK  Name = 
REMARK  7 active torsions:
REMARK  status: ('A' for Active; 'I' for Inactive)
REMARK    1  A    between atoms: C_2  and  C_3
REMARK    2  A    between atoms: C_5  and  C_6
REMARK    3  A    between atoms: C_6  and  O_7
REMARK    4  A    between atoms: C_9  and  C_10
REMARK    5  A    between atoms: C_14  and  C_15
REMARK    6  A    between atoms: C_15  and  N_16
REMARK    7  A    between atoms: C_20  and  C_21
REMARK                            x       y       z     vdW  Elec       q    Type
REMARK                         _______ _______ _______ _____ _____    ______ ____
ROOT
ATOM      1  C   UNL     1      45.870   6.976  11.578  0.00  0.00    +0.000 A 
ATOM      2  C   UNL     1      45.038   8.079  11.747  0.00  0.00    +0.000 A 
ATOM      3  C   UNL     1      45.567   9.252  12.274  0.00  0.00    +0.000 A 
ATOM      4  C   UNL     1      46.915   9.296  12.614  0.00  0.00    +0.000 A 
ATOM      5  C   UNL     1      47.712   8.169  12.420  0.00  0.00    +0.000 A 
ATOM      6  N   UNL     1      47.182   7.018  11.921  0.00  0.00    +0.000 NA
ENDROOT
BRANCH   1  11
ATOM      7  C   UNL     1      45.272   4.088   9.182  0.00  0.00    +0.000 A 
ATOM      8  C   UNL     1      44.538   3.204   9.978  0.00  0.00    +0.000 A 
ATOM      9  C   UNL     1      44.202   3.549  11.292  0.00  0.00    +0.000 A 
ATOM     10  C   UNL     1      44.631   4.788  11.800  0.00  0.00    +0.000 A 
ATOM     11  C   UNL     1      45.394   5.688  11.032  0.00  0.00    +0.000 A 
ATOM     12  C   UNL     1      45.691   5.317   9.706  0.00  0.00    +0.000 A 
BRANCH   7  14
ATOM     13  N   UNL     1      45.884   3.444   6.745  0.00  0.00    +0.000 NA
ATOM     14  C   UNL     1      45.600   3.735   7.830  0.00  0.00    +0.000 C 
ENDBRANCH   7  14
BRANCH   9  15
ATOM     15  C   UNL     1      43.375   2.631  12.151  0.00  0.00    +0.000 C 
BRANCH  15  16
ATOM     16  O   UNL     1      43.007   1.475  11.413  0.00  0.00    +0.000 OA
ATOM     17  H   UNL     1      43.675   0.795  11.602  0.00  0.00    +0.000 HD
ENDBRANCH  15  16
ENDBRANCH   9  15
ENDBRANCH   1  11
BRANCH   5  18
ATOM     18  C   UNL     1      49.212   8.192  12.751  0.00  0.00    +0.000 C 
ATOM     19  C   UNL     1      49.970   9.487  12.520  0.00  0.00    +0.000 C 
ATOM     20  C   UNL     1      50.165   8.357  11.566  0.00  0.00    +0.000 C 
BRANCH  18  21
ATOM     21  N   UNL     1      49.636   7.159  13.719  0.00  0.00    +0.000 N 
ATOM     22  C   UNL     1      49.162   7.064  15.029  0.00  0.00    +0.000 A 
ATOM     23  C   UNL     1      49.002   8.167  15.860  0.00  0.00    +0.000 A 
ATOM     24  C   UNL     1      48.681   7.976  17.207  0.00  0.00    +0.000 A 
ATOM     25  C   UNL     1      48.514   6.682  17.691  0.00  0.00    +0.000 A 
ATOM     26  C   UNL     1      48.638   5.639  16.787  0.00  0.00    +0.000 A 
ATOM     27  N   UNL     1      48.971   5.807  15.481  0.00  0.00    +0.000 NA
ATOM     28  H   UNL     1      49.619   6.210  13.348  0.00  0.00    +0.000 HD
BRANCH  25  29
ATOM     29  C   UNL     1      48.219   6.376  19.106  0.00  0.00    +0.000 C 
ATOM     30  N   UNL     1      47.279   5.416  19.356  0.00  0.00    +0.000 N 
ATOM     31  O   UNL     1      48.763   6.984  20.018  0.00  0.00    +0.000 OA
ATOM     32  H   UNL     1      46.640   5.079  18.649  0.00  0.00    +0.000 HD
ATOM     33  H   UNL     1      47.004   5.298  20.323  0.00  0.00    +0.000 HD
ENDBRANCH  25  29
ENDBRANCH  18  21
ENDBRANCH   5  18
TORSDOF 7
ENDMDL
MODEL 7
REMARK VINA RESULT:    -6.709      3.496      8.436
REMARK INTER + INTRA:         -10.312
REMARK INTER:                  -9.171
REMARK INTRA:                  -1.140
REMARK UNBOUND:                -1.054
REMARK  Name = 
REMARK  7 active torsions:
REMARK  status: ('A' for Active; 'I' for Inactive)
REMARK    1  A    between atoms: C_2  and  C_3
REMARK    2  A    between atoms: C_5  and  C_6
REMARK    3  A    between atoms: C_6  and  O_7
REMARK    4  A    between atoms: C_9  and  C_10
REMARK    5  A    between atoms: C_14  and  C_15
REMARK    6  A    between atoms: C_15  and  N_16
REMARK    7  A    between atoms: C_20  and  C_21
REMARK                            x       y       z     vdW  Elec       q    Type
REMARK                         _______ _______ _______ _____ _____    ______ ____
ROOT
ATOM      1  C   UNL     1      46.064   7.093  11.413  0.00  0.00    +0.000 A 
ATOM      2  C   UNL     1      45.225   8.194  11.554  0.00  0.00    +0.000 A 
ATOM      3  C   UNL     1      45.735   9.372  12.090  0.00  0.00    +0.000 A 
ATOM      4  C   UNL     1      47.072   9.422  12.466  0.00  0.00    +0.000 A 
ATOM      5  C   UNL     1      47.879   8.297  12.300  0.00  0.00    +0.000 A 
ATOM      6  N   UNL     1      47.366   7.141  11.792  0.00  0.00    +0.000 NA
ENDROOT
BRANCH   1  11
ATOM      7  C   UNL     1      44.440   3.668  11.148  0.00  0.00    +0.000 A 
ATOM      8  C   UNL     1      44.682   3.340   9.811  0.00  0.00    +0.000 A 
ATOM      9  C   UNL     1      45.402   4.214   8.989  0.00  0.00    +0.000 A 
ATOM     10  C   UNL     1      45.860   5.431   9.525  0.00  0.00    +0.000 A 
ATOM     11  C   UNL     1      45.609   5.801  10.860  0.00  0.00    +0.000 A 
ATOM     12  C   UNL     1      44.904   4.885  11.664  0.00  0.00    +0.000 A 
BRANCH   7  14
ATOM     13  N   UNL     1      43.147   2.023  12.681  0.00  0.00    +0.000 NA
ATOM     14  C   UNL     1      43.715   2.760  11.991  0.00  0.00    +0.000 C 
ENDBRANCH   7  14
BRANCH   9  15
ATOM     15  C   UNL     1      45.711   3.861   7.559  0.00  0.00    +0.000 C 
BRANCH  15  16
ATOM     16  O   UNL     1      46.932   4.468   7.161  0.00  0.00    +0.000 OA
ATOM     17  H   UNL     1      46.825   5.426   7.287  0.00  0.00    +0.000 HD
ENDBRANCH  15  16
ENDBRANCH   9  15
ENDBRANCH   1  11
BRANCH   5  18
ATOM     18  C   UNL     1      49.368   8.327  12.672  0.00  0.00    +0.000 C 
ATOM     19  C   UNL     1      50.124   9.628  12.470  0.00  0.00    +0.000 C 
ATOM     20  C   UNL     1      50.353   8.506  11.516  0.00  0.00    +0.000 C 
BRANCH  18  21
ATOM     21  N   UNL     1      49.772   7.290  13.645  0.00  0.00    +0.000 N 
ATOM     22  C   UNL     1      49.264   7.184  14.941  0.00  0.00    +0.000 A 
ATOM     23  C   UNL     1      49.074   8.281  15.775  0.00  0.00    +0.000 A 
ATOM     24  C   UNL     1      48.718   8.080  17.111  0.00  0.00    +0.000 A 
ATOM     25  C   UNL     1      48.545   6.781  17.582  0.00  0.00    +0.000 A 
ATOM     26  C   UNL     1      48.701   5.744  16.676  0.00  0.00    +0.000 A 
ATOM     27  N   UNL     1      49.068   5.923  15.380  0.00  0.00    +0.000 NA
ATOM     28  H   UNL     1      49.771   6.343  13.268  0.00  0.00    +0.000 HD
BRANCH  25  29
ATOM     29  C   UNL     1      48.215   6.465  18.986  0.00  0.00    +0.000 C 
ATOM     30  N   UNL     1      47.499   7.397  19.686  0.00  0.00    +0.000 N 
ATOM     31  O   UNL     1      48.598   5.431  19.516  0.00  0.00    +0.000 OA
ATOM     32  H   UNL     1      47.385   8.349  19.369  0.00  0.00    +0.000 HD
ATOM     33  H   UNL     1      47.379   7.220  20.675  0.00  0.00    +0.000 HD
ENDBRANCH  25  29
ENDBRANCH  18  21
ENDBRANCH   5  18
TORSDOF 7
ENDMDL
MODEL 8
REMARK VINA RESULT:    -6.464      4.360      7.033
REMARK INTER + INTRA:          -9.974
REMARK INTER:                  -8.887
REMARK INTRA:                  -1.088
REMARK UNBOUND:                -1.054
REMARK  Name = 
REMARK  7 active torsions:
REMARK  status: ('A' for Active; 'I' for Inactive)
REMARK    1  A    between atoms: C_2  and  C_3
REMARK    2  A    between atoms: C_5  and  C_6
REMARK    3  A    between atoms: C_6  and  O_7
REMARK    4  A    between atoms: C_9  and  C_10
REMARK    5  A    between atoms: C_14  and  C_15
REMARK    6  A    between atoms: C_15  and  N_16
REMARK    7  A    between atoms: C_20  and  C_21
REMARK                            x       y       z     vdW  Elec       q    Type
REMARK                         _______ _______ _______ _____ _____    ______ ____
ROOT
ATOM      1  C   UNL     1      49.098   7.189  16.202  0.00  0.00    +0.000 A 
ATOM      2  C   UNL     1      48.615   8.238  16.978  0.00  0.00    +0.000 A 
ATOM      3  C   UNL     1      48.308   9.449  16.368  0.00  0.00    +0.000 A 
ATOM      4  C   UNL     1      48.486   9.580  14.995  0.00  0.00    +0.000 A 
ATOM      5  C   UNL     1      48.965   8.500  14.254  0.00  0.00    +0.000 A 
ATOM      6  N   UNL     1      49.282   7.324  14.864  0.00  0.00    +0.000 NA
ENDROOT
BRANCH   1  11
ATOM      7  C   UNL     1      51.151   4.316  17.603  0.00  0.00    +0.000 A 
ATOM      8  C   UNL     1      50.161   3.371  17.890  0.00  0.00    +0.000 A 
ATOM      9  C   UNL     1      48.820   3.644  17.602  0.00  0.00    +0.000 A 
ATOM     10  C   UNL     1      48.485   4.889  17.039  0.00  0.00    +0.000 A 
ATOM     11  C   UNL     1      49.456   5.871  16.764  0.00  0.00    +0.000 A 
ATOM     12  C   UNL     1      50.798   5.550  17.043  0.00  0.00    +0.000 A 
BRANCH   7  14
ATOM     13  N   UNL     1      53.633   3.778  18.132  0.00  0.00    +0.000 NA
ATOM     14  C   UNL     1      52.528   4.023  17.886  0.00  0.00    +0.000 C 
ENDBRANCH   7  14
BRANCH   9  15
ATOM     15  C   UNL     1      47.744   2.624  17.862  0.00  0.00    +0.000 C 
BRANCH  15  16
ATOM     16  O   UNL     1      46.474   3.159  17.520  0.00  0.00    +0.000 OA
ATOM     17  H   UNL     1      46.604   4.106  17.342  0.00  0.00    +0.000 HD
ENDBRANCH  15  16
ENDBRANCH   9  15
ENDBRANCH   1  11
BRANCH   5  18
ATOM     18  C   UNL     1      49.141   8.598  12.732  0.00  0.00    +0.000 C 
ATOM     19  C   UNL     1      50.350   7.919  12.113  0.00  0.00    +0.000 C 
ATOM     20  C   UNL     1      50.342   9.406  12.238  0.00  0.00    +0.000 C 
BRANCH  18  21
ATOM     21  N   UNL     1      47.892   8.874  11.992  0.00  0.00    +0.000 N 
ATOM     22  C   UNL     1      46.810   7.993  11.914  0.00  0.00    +0.000 A 
ATOM     23  C   UNL     1      46.958   6.627  11.699  0.00  0.00    +0.000 A 
ATOM     24  C   UNL     1      45.827   5.838  11.469  0.00  0.00    +0.000 A 
ATOM     25  C   UNL     1      44.570   6.434  11.472  0.00  0.00    +0.000 A 
ATOM     26  C   UNL     1      44.502   7.790  11.746  0.00  0.00    +0.000 A 
ATOM     27  N   UNL     1      45.593   8.574  11.950  0.00  0.00    +0.000 NA
ATOM     28  H   UNL     1      47.489   9.791  12.184  0.00  0.00    +0.000 HD
BRANCH  25  29
ATOM     29  C   UNL     1      43.322   5.694  11.194  0.00  0.00    +0.000 C 
ATOM     30  N   UNL     1      42.162   6.207  11.707  0.00  0.00    +0.000 N 
ATOM     31  O   UNL     1      43.327   4.644  10.565  0.00  0.00    +0.000 OA
ATOM     32  H   UNL     1      42.150   6.916  12.427  0.00  0.00    +0.000 HD
ATOM     33  H   UNL     1      41.335   5.632  11.608  0.00  0.00    +0.000 HD
ENDBRANCH  25  29
ENDBRANCH  18  21
ENDBRANCH   5  18
TORSDOF 7
ENDMDL
MODEL 9
REMARK VINA RESULT:    -6.427      5.548      8.243
REMARK INTER + INTRA:          -9.922
REMARK INTER:                  -9.300
REMARK INTRA:                  -0.622
REMARK UNBOUND:                -1.054
REMARK  Name = 
REMARK  7 active torsions:
REMARK  status: ('A' for Active; 'I' for Inactive)
REMARK    1  A    between atoms: C_2  and  C_3
REMARK    2  A    between atoms: C_5  and  C_6
REMARK    3  A    between atoms: C_6  and  O_7
REMARK    4  A    between atoms: C_9  and  C_10
REMARK    5  A    between atoms: C_14  and  C_15
REMARK    6  A    between atoms: C_15  and  N_16
REMARK    7  A    between atoms: C_20  and  C_21
REMARK                            x       y       z     vdW  Elec       q    Type
REMARK                         _______ _______ _______ _____ _____    ______ ____
ROOT
ATOM      1  C   UNL     1      48.212   6.970  14.241  0.00  0.00    +0.000 A 
ATOM      2  C   UNL     1      49.439   7.620  14.155  0.00  0.00    +0.000 A 
ATOM      3  C   UNL     1      50.393   7.401  15.142  0.00  0.00    +0.000 A 
ATOM      4  C   UNL     1      50.101   6.532  16.187  0.00  0.00    +0.000 A 
ATOM      5  C   UNL     1      48.861   5.895  16.229  0.00  0.00    +0.000 A 
ATOM      6  N   UNL     1      47.924   6.131  15.268  0.00  0.00    +0.000 NA
ENDROOT
BRANCH   1  11
ATOM      7  C   UNL     1      45.448   8.567  12.179  0.00  0.00    +0.000 A 
ATOM      8  C   UNL     1      45.107   7.528  11.307  0.00  0.00    +0.000 A 
ATOM      9  C   UNL     1      45.749   6.289  11.399  0.00  0.00    +0.000 A 
ATOM     10  C   UNL     1      46.752   6.113  12.369  0.00  0.00    +0.000 A 
ATOM     11  C   UNL     1      47.137   7.147  13.243  0.00  0.00    +0.000 A 
ATOM     12  C   UNL     1      46.450   8.372  13.138  0.00  0.00    +0.000 A 
BRANCH   7  14
ATOM     13  N   UNL     1      44.215  10.842  12.011  0.00  0.00    +0.000 NA
ATOM     14  C   UNL     1      44.775   9.831  12.089  0.00  0.00    +0.000 C 
ENDBRANCH   7  14
BRANCH   9  15
ATOM     15  C   UNL     1      45.366   5.145  10.500  0.00  0.00    +0.000 C 
BRANCH  15  16
ATOM     16  O   UNL     1      45.432   5.551   9.141  0.00  0.00    +0.000 OA
ATOM     17  H   UNL     1      44.553   5.395   8.756  0.00  0.00    +0.000 HD
ENDBRANCH  15  16
ENDBRANCH   9  15
ENDBRANCH   1  11
BRANCH   5  18
ATOM     18  C   UNL     1      48.516   4.903  17.349  0.00  0.00    +0.000 C 
ATOM     19  C   UNL     1      47.303   4.010  17.157  0.00  0.00    +0.000 C 
ATOM     20  C   UNL     1      47.211   5.159  18.104  0.00  0.00    +0.000 C 
BRANCH  18  21
ATOM     21  N   UNL     1      49.655   4.556  18.225  0.00  0.00    +0.000 N 
ATOM     22  C   UNL     1      50.600   3.569  17.937  0.00  0.00    +0.000 A 
ATOM     23  C   UNL     1      50.263   2.322  17.421  0.00  0.00    +0.000 A 
ATOM     24  C   UNL     1      51.243   1.332  17.313  0.00  0.00    +0.000 A 
ATOM     25  C   UNL     1      52.546   1.616  17.713  0.00  0.00    +0.000 A 
ATOM     26  C   UNL     1      52.812   2.898  18.166  0.00  0.00    +0.000 A 
ATOM     27  N   UNL     1      51.867   3.864  18.297  0.00  0.00    +0.000 NA
ATOM     28  H   UNL     1      50.186   5.361  18.555  0.00  0.00    +0.000 HD
BRANCH  25  29
ATOM     29  C   UNL     1      53.639   0.624  17.680  0.00  0.00    +0.000 C 
ATOM     30  N   UNL     1      54.184   0.253  18.879  0.00  0.00    +0.000 N 
ATOM     31  O   UNL     1      54.070   0.181  16.624  0.00  0.00    +0.000 OA
ATOM     32  H   UNL     1      54.032   0.772  19.732  0.00  0.00    +0.000 HD
ATOM     33  H   UNL     1      55.005  -0.337  18.835  0.00  0.00    +0.000 HD
ENDBRANCH  25  29
ENDBRANCH  18  21
ENDBRANCH   5  18
TORSDOF 7
ENDMDL
