MODEL 1
REMARK VINA RESULT:    -8.142      0.000      0.000
REMARK INTER + INTRA:         -10.405
REMARK INTER:                 -10.046
REMARK INTRA:                  -0.359
REMARK UNBOUND:                -0.359
REMARK  Name = 
REMARK  4 active torsions:
REMARK  status: ('A' for Active; 'I' for Inactive)
REMARK    1  A    between atoms: C_2  and  C_4
REMARK    2  A    between atoms: C_7  and  C_8
REMARK    3  A    between atoms: C_8  and  C_9
REMARK    4  A    between atoms: C_9  and  C_10
REMARK                            x       y       z     vdW  Elec       q    Type
REMARK                         _______ _______ _______ _____ _____    ______ ____
ROOT
ATOM      1  C   UNL     1      46.459   2.641   7.446  0.00  0.00    +0.000 A 
ATOM      2  C   UNL     1      45.923   3.922   7.546  0.00  0.00    +0.000 A 
ATOM      3  C   UNL     1      45.005   4.209   8.558  0.00  0.00    +0.000 A 
ATOM      4  C   UNL     1      44.595   3.191   9.414  0.00  0.00    +0.000 A 
ATOM      5  N   UNL     1      45.095   1.931   9.307  0.00  0.00    +0.000 NA
ATOM      6  C   UNL     1      46.010   1.683   8.339  0.00  0.00    +0.000 A 
ENDROOT
BRANCH   1   8
ATOM      7  N   UNL     1      47.469   2.943   5.257  0.00  0.00    +0.000 N 
ATOM      8  C   UNL     1      47.471   2.261   6.446  0.00  0.00    +0.000 C 
ATOM      9  O   UNL     1      48.309   1.399   6.676  0.00  0.00    +0.000 OA
ATOM     10  H   UNL     1      48.239   2.746   4.624  0.00  0.00    +0.000 HD
ATOM     11  H   UNL     1      46.973   3.813   5.132  0.00  0.00    +0.000 HD
ENDBRANCH   1   8
BRANCH   4  12
ATOM     12  C   UNL     1      43.731   3.413  10.626  0.00  0.00    +0.000 C 
BRANCH  12  13
ATOM     13  C   UNL     1      43.725   4.740  11.363  0.00  0.00    +0.000 C 
ATOM     14  C   UNL     1      42.485   5.342  11.999  0.00  0.00    +0.000 C 
ATOM     15  O   UNL     1      42.978   5.794  10.731  0.00  0.00    +0.000 OA
BRANCH  13  16
ATOM     16  C   UNL     1      45.095   5.102  11.889  0.00  0.00    +0.000 A 
ATOM     17  C   UNL     1      45.789   6.233  11.439  0.00  0.00    +0.000 A 
ATOM     18  C   UNL     1      46.933   6.667  12.103  0.00  0.00    +0.000 A 
ATOM     19  C   UNL     1      47.370   5.945  13.200  0.00  0.00    +0.000 A 
ATOM     20  N   UNL     1      46.776   4.817  13.636  0.00  0.00    +0.000 NA
ATOM     21  C   UNL     1      45.666   4.423  12.970  0.00  0.00    +0.000 A 
ENDBRANCH  13  16
ENDBRANCH  12  13
ENDBRANCH   4  12
TORSDOF 4
ENDMDL
MODEL 2
REMARK VINA RESULT:    -7.835      1.530      1.934
REMARK INTER + INTRA:         -10.026
REMARK INTER:                  -9.671
REMARK INTRA:                  -0.355
REMARK UNBOUND:                -0.359
REMARK  Name = 
REMARK  4 active torsions:
REMARK  status: ('A' for Active; 'I' for Inactive)
REMARK    1  A    between atoms: C_2  and  C_4
REMARK    2  A    between atoms: C_7  and  C_8
REMARK    3  A    between atoms: C_8  and  C_9
REMARK    4  A    between atoms: C_9  and  C_10
REMARK                            x       y       z     vdW  Elec       q    Type
REMARK                         _______ _______ _______ _____ _____    ______ ____
ROOT
ATOM      1  C   UNL     1      46.469   2.469   7.747  0.00  0.00    +0.000 A 
ATOM      2  C   UNL     1      45.664   1.825   8.684  0.00  0.00    +0.000 A 
ATOM      3  C   UNL     1      44.777   2.573   9.461  0.00  0.00    +0.000 A 
ATOM      4  C   UNL     1      44.755   3.958   9.327  0.00  0.00    +0.000 A 
ATOM      5  N   UNL     1      45.555   4.596   8.432  0.00  0.00    +0.000 NA
ATOM      6  C   UNL     1      46.385   3.848   7.665  0.00  0.00    +0.000 A 
ENDROOT
BRANCH   1   8
ATOM      7  N   UNL     1      48.475   2.458   6.376  0.00  0.00    +0.000 N 
ATOM      8  C   UNL     1      47.394   1.758   6.848  0.00  0.00    +0.000 C 
ATOM      9  O   UNL     1      47.234   0.580   6.563  0.00  0.00    +0.000 OA
ATOM     10  H   UNL     1      49.159   1.925   5.848  0.00  0.00    +0.000 HD
ATOM     11  H   UNL     1      48.775   3.330   6.783  0.00  0.00    +0.000 HD
ENDBRANCH   1   8
BRANCH   4  12
ATOM     12  C   UNL     1      43.743   4.849   9.998  0.00  0.00    +0.000 C 
BRANCH  12  13
ATOM     13  C   UNL     1      43.789   5.114  11.491  0.00  0.00    +0.000 C 
ATOM     14  C   UNL     1      43.237   4.155  12.531  0.00  0.00    +0.000 C 
ATOM     15  O   UNL     1      42.512   5.322  12.121  0.00  0.00    +0.000 OA
BRANCH  13  16
ATOM     16  C   UNL     1      44.893   6.078  11.863  0.00  0.00    +0.000 A 
ATOM     17  C   UNL     1      46.209   5.653  12.080  0.00  0.00    +0.000 A 
ATOM     18  C   UNL     1      47.241   6.581  12.190  0.00  0.00    +0.000 A 
ATOM     19  C   UNL     1      46.926   7.926  12.096  0.00  0.00    +0.000 A 
ATOM     20  N   UNL     1      45.670   8.391  11.949  0.00  0.00    +0.000 NA
ATOM     21  C   UNL     1      44.691   7.462  11.845  0.00  0.00    +0.000 A 
ENDBRANCH  13  16
ENDBRANCH  12  13
ENDBRANCH   4  12
TORSDOF 4
ENDMDL
MODEL 3
REMARK VINA RESULT:    -7.657      1.273      1.566
REMARK INTER + INTRA:          -9.807
REMARK INTER:                  -9.688
REMARK INTRA:                  -0.119
REMARK UNBOUND:                -0.359
REMARK  Name = 
REMARK  4 active torsions:
REMARK  status: ('A' for Active; 'I' for Inactive)
REMARK    1  A    between atoms: C_2  and  C_4
REMARK    2  A    between atoms: C_7  and  C_8
REMARK    3  A    between atoms: C_8  and  C_9
REMARK    4  A    between atoms: C_9  and  C_10
REMARK                            x       y       z     vdW  Elec       q    Type
REMARK                         _______ _______ _______ _____ _____    ______ ____
ROOT
ATOM      1  C   UNL     1      46.413   2.345   7.809  0.00  0.00    +0.000 A 
ATOM      2  C   UNL     1      46.402   3.728   7.647  0.00  0.00    +0.000 A 
ATOM      3  C   UNL     1      45.532   4.505   8.413  0.00  0.00    +0.000 A 
ATOM      4  C   UNL     1      44.646   3.878   9.284  0.00  0.00    +0.000 A 
ATOM      5  N   UNL     1      44.634   2.526   9.431  0.00  0.00    +0.000 NA
ATOM      6  C   UNL     1      45.510   1.793   8.702  0.00  0.00    +0.000 A 
ENDROOT
BRANCH   1   8
ATOM      7  N   UNL     1      48.444   2.017   6.516  0.00  0.00    +0.000 N 
ATOM      8  C   UNL     1      47.333   1.451   7.085  0.00  0.00    +0.000 C 
ATOM      9  O   UNL     1      47.140   0.244   7.024  0.00  0.00    +0.000 OA
ATOM     10  H   UNL     1      49.122   1.375   6.117  0.00  0.00    +0.000 HD
ATOM     11  H   UNL     1      48.765   2.942   6.758  0.00  0.00    +0.000 HD
ENDBRANCH   1   8
BRANCH   4  12
ATOM     12  C   UNL     1      43.771   4.614  10.264  0.00  0.00    +0.000 C 
BRANCH  12  13
ATOM     13  C   UNL     1      44.022   4.541  11.759  0.00  0.00    +0.000 C 
ATOM     14  C   UNL     1      43.544   3.398  12.636  0.00  0.00    +0.000 C 
ATOM     15  O   UNL     1      42.851   4.652  12.588  0.00  0.00    +0.000 OA
BRANCH  13  16
ATOM     16  C   UNL     1      45.224   5.359  12.173  0.00  0.00    +0.000 A 
ATOM     17  C   UNL     1      46.206   4.854  13.034  0.00  0.00    +0.000 A 
ATOM     18  C   UNL     1      47.407   5.534  13.211  0.00  0.00    +0.000 A 
ATOM     19  C   UNL     1      47.593   6.724  12.527  0.00  0.00    +0.000 A 
ATOM     20  N   UNL     1      46.659   7.285  11.735  0.00  0.00    +0.000 NA
ATOM     21  C   UNL     1      45.503   6.597  11.585  0.00  0.00    +0.000 A 
ENDBRANCH  13  16
ENDBRANCH  12  13
ENDBRANCH   4  12
TORSDOF 4
ENDMDL
MODEL 4
REMARK VINA RESULT:    -6.701      2.404      6.066
REMARK INTER + INTRA:          -8.627
REMARK INTER:                  -8.533
REMARK INTRA:                  -0.094
REMARK UNBOUND:                -0.359
REMARK  Name = 
REMARK  4 active torsions:
REMARK  status: ('A' for Active; 'I' for Inactive)
REMARK    1  A    between atoms: C_2  and  C_4
REMARK    2  A    between atoms: C_7  and  C_8
REMARK    3  A    between atoms: C_8  and  C_9
REMARK    4  A    between atoms: C_9  and  C_10
REMARK                            x       y       z     vdW  Elec       q    Type
REMARK                         _______ _______ _______ _____ _____    ______ ____
ROOT
ATOM      1  C   UNL     1      47.755   5.952  14.299  0.00  0.00    +0.000 A 
ATOM      2  C   UNL     1      47.370   6.322  13.013  0.00  0.00    +0.000 A 
ATOM      3  C   UNL     1      46.483   5.514  12.300  0.00  0.00    +0.000 A 
ATOM      4  C   UNL     1      46.045   4.320  12.864  0.00  0.00    +0.000 A 
ATOM      5  N   UNL     1      46.435   3.939  14.109  0.00  0.00    +0.000 NA
ATOM      6  C   UNL     1      47.271   4.755  14.798  0.00  0.00    +0.000 A 
ENDROOT
BRANCH   1   8
ATOM      7  N   UNL     1      48.149   7.958  15.612  0.00  0.00    +0.000 N 
ATOM      8  C   UNL     1      48.642   6.767  15.146  0.00  0.00    +0.000 C 
ATOM      9  O   UNL     1      49.762   6.384  15.459  0.00  0.00    +0.000 OA
ATOM     10  H   UNL     1      48.729   8.454  16.281  0.00  0.00    +0.000 HD
ATOM     11  H   UNL     1      47.165   8.183  15.591  0.00  0.00    +0.000 HD
ENDBRANCH   1   8
BRANCH   4  12
ATOM     12  C   UNL     1      44.979   3.446  12.256  0.00  0.00    +0.000 C 
BRANCH  12  13
ATOM     13  C   UNL     1      44.162   3.908  11.064  0.00  0.00    +0.000 C 
ATOM     14  C   UNL     1      43.182   5.067  11.115  0.00  0.00    +0.000 C 
ATOM     15  O   UNL     1      42.742   3.703  11.171  0.00  0.00    +0.000 OA
BRANCH  13  16
ATOM     16  C   UNL     1      44.805   3.521   9.751  0.00  0.00    +0.000 A 
ATOM     17  C   UNL     1      45.353   4.473   8.883  0.00  0.00    +0.000 A 
ATOM     18  C   UNL     1      46.138   4.074   7.805  0.00  0.00    +0.000 A 
ATOM     19  C   UNL     1      46.345   2.719   7.609  0.00  0.00    +0.000 A 
ATOM     20  N   UNL     1      45.791   1.761   8.377  0.00  0.00    +0.000 NA
ATOM     21  C   UNL     1      45.035   2.183   9.417  0.00  0.00    +0.000 A 
ENDBRANCH  13  16
ENDBRANCH  12  13
ENDBRANCH   4  12
TORSDOF 4
ENDMDL
MODEL 5
REMARK VINA RESULT:    -6.019      2.630      6.505
REMARK INTER + INTRA:          -7.785
REMARK INTER:                  -7.677
REMARK INTRA:                  -0.108
REMARK UNBOUND:                -0.359
REMARK  Name = 
REMARK  4 active torsions:
REMARK  status: ('A' for Active; 'I' for Inactive)
REMARK    1  A    between atoms: C_2  and  C_4
REMARK    2  A    between atoms: C_7  and  C_8
REMARK    3  A    between atoms: C_8  and  C_9
REMARK    4  A    between atoms: C_9  and  C_10
REMARK                            x       y       z     vdW  Elec       q    Type
REMARK                         _______ _______ _______ _____ _____    ______ ____
ROOT
ATOM      1  C   UNL     1      47.576   5.200  15.239  0.00  0.00    +0.000 A 
ATOM      2  C   UNL     1      46.786   4.170  14.735  0.00  0.00    +0.000 A 
ATOM      3  C   UNL     1      46.171   4.318  13.491  0.00  0.00    +0.000 A 
ATOM      4  C   UNL     1      46.310   5.520  12.801  0.00  0.00    +0.000 A 
ATOM      5  N   UNL     1      47.059   6.539  13.298  0.00  0.00    +0.000 NA
ATOM      6  C   UNL     1      47.675   6.362  14.492  0.00  0.00    +0.000 A 
ENDROOT
BRANCH   1   8
ATOM      7  N   UNL     1      47.568   5.181  17.669  0.00  0.00    +0.000 N 
ATOM      8  C   UNL     1      48.306   5.112  16.515  0.00  0.00    +0.000 C 
ATOM      9  O   UNL     1      49.517   4.944  16.552  0.00  0.00    +0.000 OA
ATOM     10  H   UNL     1      48.070   5.009  18.534  0.00  0.00    +0.000 HD
ATOM     11  H   UNL     1      46.566   5.062  17.679  0.00  0.00    +0.000 HD
ENDBRANCH   1   8
BRANCH   4  12
ATOM     12  C   UNL     1      45.820   5.740  11.395  0.00  0.00    +0.000 C 
BRANCH  12  13
ATOM     13  C   UNL     1      44.568   5.057  10.876  0.00  0.00    +0.000 C 
ATOM     14  C   UNL     1      43.176   5.653  10.994  0.00  0.00    +0.000 C 
ATOM     15  O   UNL     1      43.636   4.628  11.884  0.00  0.00    +0.000 OA
BRANCH  13  16
ATOM     16  C   UNL     1      44.875   4.070   9.773  0.00  0.00    +0.000 A 
ATOM     17  C   UNL     1      45.522   4.453   8.592  0.00  0.00    +0.000 A 
ATOM     18  C   UNL     1      45.997   3.492   7.704  0.00  0.00    +0.000 A 
ATOM     19  C   UNL     1      45.797   2.157   8.014  0.00  0.00    +0.000 A 
ATOM     20  N   UNL     1      45.129   1.736   9.105  0.00  0.00    +0.000 NA
ATOM     21  C   UNL     1      44.682   2.696   9.947  0.00  0.00    +0.000 A 
ENDBRANCH  13  16
ENDBRANCH  12  13
ENDBRANCH   4  12
TORSDOF 4
ENDMDL
MODEL 6
REMARK VINA RESULT:    -5.740      3.173      5.360
REMARK INTER + INTRA:          -7.442
REMARK INTER:                  -7.109
REMARK INTRA:                  -0.332
REMARK UNBOUND:                -0.359
REMARK  Name = 
REMARK  4 active torsions:
REMARK  status: ('A' for Active; 'I' for Inactive)
REMARK    1  A    between atoms: C_2  and  C_4
REMARK    2  A    between atoms: C_7  and  C_8
REMARK    3  A    between atoms: C_8  and  C_9
REMARK    4  A    between atoms: C_9  and  C_10
REMARK                            x       y       z     vdW  Elec       q    Type
REMARK                         _______ _______ _______ _____ _____    ______ ____
ROOT
ATOM      1  C   UNL     1      44.657   4.162  11.417  0.00  0.00    +0.000 A 
ATOM      2  C   UNL     1      45.216   5.081  10.532  0.00  0.00    +0.000 A 
ATOM      3  C   UNL     1      45.889   6.198  11.031  0.00  0.00    +0.000 A 
ATOM      4  C   UNL     1      45.937   6.406  12.406  0.00  0.00    +0.000 A 
ATOM      5  N   UNL     1      45.373   5.527  13.276  0.00  0.00    +0.000 NA
ATOM      6  C   UNL     1      44.753   4.432  12.772  0.00  0.00    +0.000 A 
ENDROOT
BRANCH   1   8
ATOM      7  N   UNL     1      44.525   2.245   9.931  0.00  0.00    +0.000 N 
ATOM      8  C   UNL     1      43.977   2.930  10.984  0.00  0.00    +0.000 C 
ATOM      9  O   UNL     1      42.986   2.506  11.563  0.00  0.00    +0.000 OA
ATOM     10  H   UNL     1      44.110   1.343   9.716  0.00  0.00    +0.000 HD
ATOM     11  H   UNL     1      45.463   2.417   9.602  0.00  0.00    +0.000 HD
ENDBRANCH   1   8
BRANCH   4  12
ATOM     12  C   UNL     1      46.755   7.486  13.062  0.00  0.00    +0.000 C 
BRANCH  12  13
ATOM     13  C   UNL     1      48.210   7.263  13.433  0.00  0.00    +0.000 C 
ATOM     14  C   UNL     1      49.341   7.250  12.421  0.00  0.00    +0.000 C 
ATOM     15  O   UNL     1      48.789   6.038  12.951  0.00  0.00    +0.000 OA
BRANCH  13  16
ATOM     16  C   UNL     1      48.490   7.624  14.874  0.00  0.00    +0.000 A 
ATOM     17  C   UNL     1      48.249   8.908  15.379  0.00  0.00    +0.000 A 
ATOM     18  C   UNL     1      48.294   9.146  16.750  0.00  0.00    +0.000 A 
ATOM     19  C   UNL     1      48.598   8.088  17.590  0.00  0.00    +0.000 A 
ATOM     20  N   UNL     1      48.897   6.849  17.153  0.00  0.00    +0.000 NA
ATOM     21  C   UNL     1      48.843   6.652  15.816  0.00  0.00    +0.000 A 
ENDBRANCH  13  16
ENDBRANCH  12  13
ENDBRANCH   4  12
TORSDOF 4
ENDMDL
MODEL 7
REMARK VINA RESULT:    -5.405      4.391      6.384
REMARK INTER + INTRA:          -7.028
REMARK INTER:                  -6.803
REMARK INTRA:                  -0.226
REMARK UNBOUND:                -0.359
REMARK  Name = 
REMARK  4 active torsions:
REMARK  status: ('A' for Active; 'I' for Inactive)
REMARK    1  A    between atoms: C_2  and  C_4
REMARK    2  A    between atoms: C_7  and  C_8
REMARK    3  A    between atoms: C_8  and  C_9
REMARK    4  A    between atoms: C_9  and  C_10
REMARK                            x       y       z     vdW  Elec       q    Type
REMARK                         _______ _______ _______ _____ _____    ______ ____
ROOT
ATOM      1  C   UNL     1      44.398   5.713  12.368  0.00  0.00    +0.000 A 
ATOM      2  C   UNL     1      45.456   6.558  12.693  0.00  0.00    +0.000 A 
ATOM      3  C   UNL     1      46.498   6.082  13.490  0.00  0.00    +0.000 A 
ATOM      4  C   UNL     1      46.431   4.788  13.997  0.00  0.00    +0.000 A 
ATOM      5  N   UNL     1      45.390   3.965  13.704  0.00  0.00    +0.000 NA
ATOM      6  C   UNL     1      44.405   4.436  12.901  0.00  0.00    +0.000 A 
ENDROOT
BRANCH   1   8
ATOM      7  N   UNL     1      43.222   7.425  11.107  0.00  0.00    +0.000 N 
ATOM      8  C   UNL     1      43.283   6.110  11.491  0.00  0.00    +0.000 C 
ATOM      9  O   UNL     1      42.465   5.297  11.084  0.00  0.00    +0.000 OA
ATOM     10  H   UNL     1      42.514   7.659  10.417  0.00  0.00    +0.000 HD
ATOM     11  H   UNL     1      44.002   8.056  11.207  0.00  0.00    +0.000 HD
ENDBRANCH   1   8
BRANCH   4  12
ATOM     12  C   UNL     1      47.558   4.119  14.739  0.00  0.00    +0.000 C 
BRANCH  12  13
ATOM     13  C   UNL     1      47.596   4.084  16.256  0.00  0.00    +0.000 C 
ATOM     14  C   UNL     1      47.723   2.804  17.064  0.00  0.00    +0.000 C 
ATOM     15  O   UNL     1      46.462   3.464  16.888  0.00  0.00    +0.000 OA
BRANCH  13  16
ATOM     16  C   UNL     1      48.064   5.396  16.843  0.00  0.00    +0.000 A 
ATOM     17  C   UNL     1      47.739   5.786  18.148  0.00  0.00    +0.000 A 
ATOM     18  C   UNL     1      48.371   6.878  18.736  0.00  0.00    +0.000 A 
ATOM     19  C   UNL     1      49.310   7.572  17.991  0.00  0.00    +0.000 A 
ATOM     20  N   UNL     1      49.615   7.277  16.713  0.00  0.00    +0.000 NA
ATOM     21  C   UNL     1      48.984   6.209  16.172  0.00  0.00    +0.000 A 
ENDBRANCH  13  16
ENDBRANCH  12  13
ENDBRANCH   4  12
TORSDOF 4
ENDMDL
