MODEL 1
REMARK VINA RESULT:    -8.033      0.000      0.000
REMARK INTER + INTRA:          -9.507
REMARK INTER:                  -9.442
REMARK INTRA:                  -0.065
REMARK UNBOUND:                -0.065
REMARK  Name = 
REMARK  4 active torsions:
REMARK  status: ('A' for Active; 'I' for Inactive)
REMARK    1  A    between atoms: C_1  and  C_2
REMARK    2  A    between atoms: C_2  and  C_3
REMARK    3  A    between atoms: C_11  and  N_12
REMARK    4  A    between atoms: C_16  and  C_17
REMARK                            x       y       z     vdW  Elec       q    Type
REMARK                         _______ _______ _______ _____ _____    ______ ____
ROOT
ATOM      1  N   UNL     1      43.791   4.777   9.263  0.00  0.00    +0.000 N 
ATOM      2  C   UNL     1      44.592   3.779   8.719  0.00  0.00    +0.000 A 
ATOM      3  N   UNL     1      44.628   2.558   9.273  0.00  0.00    +0.000 NA
ATOM      4  C   UNL     1      45.482   1.660   8.733  0.00  0.00    +0.000 A 
ATOM      5  C   UNL     1      46.286   1.931   7.652  0.00  0.00    +0.000 A 
ATOM      6  C   UNL     1      46.173   3.206   7.152  0.00  0.00    +0.000 A 
ATOM      7  N   UNL     1      45.340   4.141   7.666  0.00  0.00    +0.000 NA
ATOM      8  H   UNL     1      44.180   5.648   8.914  0.00  0.00    +0.000 HD
ENDROOT
BRANCH   1  13
ATOM      9  C   UNL     1      44.007   4.423  13.762  0.00  0.00    +0.000 C 
ATOM     10  C   UNL     1      44.794   5.297  12.761  0.00  0.00    +0.000 C 
ATOM     11  C   UNL     1      43.945   6.504  12.313  0.00  0.00    +0.000 C 
ATOM     12  C   UNL     1      42.965   5.955  11.275  0.00  0.00    +0.000 C 
ATOM     13  C   UNL     1      43.611   4.684  10.704  0.00  0.00    +0.000 C 
ATOM     14  C   UNL     1      44.968   4.573  11.409  0.00  0.00    +0.000 C 
BRANCH  10  15
ATOM     15  C   UNL     1      46.109   5.679  13.408  0.00  0.00    +0.000 A 
ATOM     16  C   UNL     1      46.758   4.878  14.334  0.00  0.00    +0.000 A 
ATOM     17  N   UNL     1      47.905   5.209  14.962  0.00  0.00    +0.000 NA
ATOM     18  C   UNL     1      48.411   6.410  14.652  0.00  0.00    +0.000 A 
ATOM     19  N   UNL     1      47.878   7.286  13.789  0.00  0.00    +0.000 NA
ATOM     20  C   UNL     1      46.732   6.897  13.192  0.00  0.00    +0.000 A 
ENDBRANCH  10  15
ENDBRANCH   1  13
BRANCH   5  21
ATOM     21  C   UNL     1      47.215   0.913   7.147  0.00  0.00    +0.000 C 
ATOM     22  N   UNL     1      46.994  -0.391   7.493  0.00  0.00    +0.000 N 
ATOM     23  O   UNL     1      48.174   1.228   6.454  0.00  0.00    +0.000 OA
ATOM     24  H   UNL     1      46.373  -0.680   8.235  0.00  0.00    +0.000 HD
ATOM     25  H   UNL     1      47.705  -1.053   7.203  0.00  0.00    +0.000 HD
ENDBRANCH   5  21
TORSDOF 3
ENDMDL
MODEL 2
REMARK VINA RESULT:    -6.840      2.879      7.202
REMARK INTER + INTRA:          -8.105
REMARK INTER:                  -7.775
REMARK INTRA:                  -0.330
REMARK UNBOUND:                -0.065
REMARK  Name = 
REMARK  4 active torsions:
REMARK  status: ('A' for Active; 'I' for Inactive)
REMARK    1  A    between atoms: C_1  and  C_2
REMARK    2  A    between atoms: C_2  and  C_3
REMARK    3  A    between atoms: C_11  and  N_12
REMARK    4  A    between atoms: C_16  and  C_17
REMARK                            x       y       z     vdW  Elec       q    Type
REMARK                         _______ _______ _______ _____ _____    ______ ____
ROOT
ATOM      1  N   UNL     1      45.155   3.873  12.737  0.00  0.00    +0.000 N 
ATOM      2  C   UNL     1      45.835   5.019  13.134  0.00  0.00    +0.000 A 
ATOM      3  N   UNL     1      45.449   6.226  12.692  0.00  0.00    +0.000 NA
ATOM      4  C   UNL     1      46.199   7.287  13.063  0.00  0.00    +0.000 A 
ATOM      5  C   UNL     1      47.307   7.189  13.871  0.00  0.00    +0.000 A 
ATOM      6  C   UNL     1      47.618   5.914  14.275  0.00  0.00    +0.000 A 
ATOM      7  N   UNL     1      46.902   4.820  13.921  0.00  0.00    +0.000 NA
ATOM      8  H   UNL     1      45.805   3.110  12.899  0.00  0.00    +0.000 HD
ENDROOT
BRANCH   1  13
ATOM      9  C   UNL     1      44.082   4.101   8.354  0.00  0.00    +0.000 C 
ATOM     10  C   UNL     1      45.046   3.178   9.129  0.00  0.00    +0.000 C 
ATOM     11  C   UNL     1      44.261   2.070   9.862  0.00  0.00    +0.000 C 
ATOM     12  C   UNL     1      43.679   2.736  11.109  0.00  0.00    +0.000 C 
ATOM     13  C   UNL     1      44.571   3.950  11.406  0.00  0.00    +0.000 C 
ATOM     14  C   UNL     1      45.669   3.911  10.336  0.00  0.00    +0.000 C 
BRANCH  10  15
ATOM     15  C   UNL     1      46.077   2.653   8.151  0.00  0.00    +0.000 A 
ATOM     16  C   UNL     1      46.757   3.467   7.259  0.00  0.00    +0.000 A 
ATOM     17  N   UNL     1      47.646   3.026   6.346  0.00  0.00    +0.000 NA
ATOM     18  C   UNL     1      47.846   1.701   6.323  0.00  0.00    +0.000 A 
ATOM     19  N   UNL     1      47.245   0.804   7.115  0.00  0.00    +0.000 NA
ATOM     20  C   UNL     1      46.368   1.306   8.009  0.00  0.00    +0.000 A 
ENDBRANCH  10  15
ENDBRANCH   1  13
BRANCH   5  21
ATOM     21  C   UNL     1      48.093   8.386  14.198  0.00  0.00    +0.000 C 
ATOM     22  N   UNL     1      47.674   9.169  15.237  0.00  0.00    +0.000 N 
ATOM     23  O   UNL     1      49.082   8.685  13.542  0.00  0.00    +0.000 OA
ATOM     24  H   UNL     1      46.757   9.106  15.657  0.00  0.00    +0.000 HD
ATOM     25  H   UNL     1      48.186  10.032  15.376  0.00  0.00    +0.000 HD
ENDBRANCH   5  21
TORSDOF 3
ENDMDL
MODEL 3
REMARK VINA RESULT:    -6.615      2.994      6.856
REMARK INTER + INTRA:          -7.840
REMARK INTER:                  -7.810
REMARK INTRA:                  -0.030
REMARK UNBOUND:                -0.065
REMARK  Name = 
REMARK  4 active torsions:
REMARK  status: ('A' for Active; 'I' for Inactive)
REMARK    1  A    between atoms: C_1  and  C_2
REMARK    2  A    between atoms: C_2  and  C_3
REMARK    3  A    between atoms: C_11  and  N_12
REMARK    4  A    between atoms: C_16  and  C_17
REMARK                            x       y       z     vdW  Elec       q    Type
REMARK                         _______ _______ _______ _____ _____    ______ ____
ROOT
ATOM      1  N   UNL     1      46.584   5.888  13.784  0.00  0.00    +0.000 N 
ATOM      2  C   UNL     1      47.455   6.856  13.297  0.00  0.00    +0.000 A 
ATOM      3  N   UNL     1      46.987   7.904  12.602  0.00  0.00    +0.000 NA
ATOM      4  C   UNL     1      47.898   8.767  12.099  0.00  0.00    +0.000 A 
ATOM      5  C   UNL     1      49.254   8.632  12.281  0.00  0.00    +0.000 A 
ATOM      6  C   UNL     1      49.633   7.532  13.010  0.00  0.00    +0.000 A 
ATOM      7  N   UNL     1      48.758   6.635  13.524  0.00  0.00    +0.000 NA
ATOM      8  H   UNL     1      47.164   5.071  13.951  0.00  0.00    +0.000 HD
ENDROOT
BRANCH   1  13
ATOM      9  C   UNL     1      43.399   5.217  10.651  0.00  0.00    +0.000 C 
ATOM     10  C   UNL     1      44.741   4.504  10.921  0.00  0.00    +0.000 C 
ATOM     11  C   UNL     1      44.606   3.526  12.107  0.00  0.00    +0.000 C 
ATOM     12  C   UNL     1      44.658   4.395  13.364  0.00  0.00    +0.000 C 
ATOM     13  C   UNL     1      45.398   5.681  12.968  0.00  0.00    +0.000 C 
ATOM     14  C   UNL     1      45.786   5.483  11.498  0.00  0.00    +0.000 C 
BRANCH  10  15
ATOM     15  C   UNL     1      45.188   3.845   9.632  0.00  0.00    +0.000 A 
ATOM     16  C   UNL     1      45.246   2.470   9.466  0.00  0.00    +0.000 A 
ATOM     17  N   UNL     1      45.682   1.852   8.349  0.00  0.00    +0.000 NA
ATOM     18  C   UNL     1      46.091   2.660   7.361  0.00  0.00    +0.000 A 
ATOM     19  N   UNL     1      46.102   3.998   7.397  0.00  0.00    +0.000 NA
ATOM     20  C   UNL     1      45.653   4.558   8.540  0.00  0.00    +0.000 A 
ENDBRANCH  10  15
ENDBRANCH   1  13
BRANCH   5  21
ATOM     21  C   UNL     1      50.181   9.593  11.670  0.00  0.00    +0.000 C 
ATOM     22  N   UNL     1      51.522   9.355  11.781  0.00  0.00    +0.000 N 
ATOM     23  O   UNL     1      49.762  10.590  11.097  0.00  0.00    +0.000 OA
ATOM     24  H   UNL     1      51.926   8.691  12.426  0.00  0.00    +0.000 HD
ATOM     25  H   UNL     1      52.132  10.083  11.427  0.00  0.00    +0.000 HD
ENDBRANCH   5  21
TORSDOF 3
ENDMDL
MODEL 4
REMARK VINA RESULT:    -6.305      3.366      7.567
REMARK INTER + INTRA:          -7.476
REMARK INTER:                  -7.069
REMARK INTRA:                  -0.408
REMARK UNBOUND:                -0.065
REMARK  Name = 
REMARK  4 active torsions:
REMARK  status: ('A' for Active; 'I' for Inactive)
REMARK    1  A    between atoms: C_1  and  C_2
REMARK    2  A    between atoms: C_2  and  C_3
REMARK    3  A    between atoms: C_11  and  N_12
REMARK    4  A    between atoms: C_16  and  C_17
REMARK                            x       y       z     vdW  Elec       q    Type
REMARK                         _______ _______ _______ _____ _____    ______ ____
ROOT
ATOM      1  N   UNL     1      45.965   4.351  14.685  0.00  0.00    +0.000 N 
ATOM      2  C   UNL     1      47.071   4.387  15.526  0.00  0.00    +0.000 A 
ATOM      3  N   UNL     1      47.756   5.528  15.701  0.00  0.00    +0.000 NA
ATOM      4  C   UNL     1      48.860   5.472  16.478  0.00  0.00    +0.000 A 
ATOM      5  C   UNL     1      49.295   4.325  17.099  0.00  0.00    +0.000 A 
ATOM      6  C   UNL     1      48.526   3.212  16.863  0.00  0.00    +0.000 A 
ATOM      7  N   UNL     1      47.417   3.218  16.085  0.00  0.00    +0.000 NA
ATOM      8  H   UNL     1      45.843   3.371  14.451  0.00  0.00    +0.000 HD
ENDROOT
BRANCH   1  13
ATOM      9  C   UNL     1      46.331   6.593  10.780  0.00  0.00    +0.000 C 
ATOM     10  C   UNL     1      45.565   5.308  11.158  0.00  0.00    +0.000 C 
ATOM     11  C   UNL     1      44.263   5.655  11.908  0.00  0.00    +0.000 C 
ATOM     12  C   UNL     1      44.688   5.987  13.339  0.00  0.00    +0.000 C 
ATOM     13  C   UNL     1      46.031   5.277  13.565  0.00  0.00    +0.000 C 
ATOM     14  C   UNL     1      46.308   4.521  12.259  0.00  0.00    +0.000 C 
BRANCH  10  15
ATOM     15  C   UNL     1      45.348   4.504   9.893  0.00  0.00    +0.000 A 
ATOM     16  C   UNL     1      44.640   3.313   9.866  0.00  0.00    +0.000 A 
ATOM     17  N   UNL     1      44.467   2.550   8.767  0.00  0.00    +0.000 NA
ATOM     18  C   UNL     1      45.048   3.005   7.648  0.00  0.00    +0.000 A 
ATOM     19  N   UNL     1      45.769   4.128   7.540  0.00  0.00    +0.000 NA
ATOM     20  C   UNL     1      45.905   4.848   8.673  0.00  0.00    +0.000 A 
ENDBRANCH  10  15
ENDBRANCH   1  13
BRANCH   5  21
ATOM     21  C   UNL     1      50.528   4.338  17.896  0.00  0.00    +0.000 C 
ATOM     22  N   UNL     1      50.444   4.007  19.219  0.00  0.00    +0.000 N 
ATOM     23  O   UNL     1      51.597   4.658  17.393  0.00  0.00    +0.000 OA
ATOM     24  H   UNL     1      49.577   3.962  19.736  0.00  0.00    +0.000 HD
ATOM     25  H   UNL     1      51.296   4.113  19.758  0.00  0.00    +0.000 HD
ENDBRANCH   5  21
TORSDOF 3
ENDMDL
MODEL 5
REMARK VINA RESULT:    -6.294      4.782      7.193
REMARK INTER + INTRA:          -7.463
REMARK INTER:                  -7.290
REMARK INTRA:                  -0.172
REMARK UNBOUND:                -0.065
REMARK  Name = 
REMARK  4 active torsions:
REMARK  status: ('A' for Active; 'I' for Inactive)
REMARK    1  A    between atoms: C_1  and  C_2
REMARK    2  A    between atoms: C_2  and  C_3
REMARK    3  A    between atoms: C_11  and  N_12
REMARK    4  A    between atoms: C_16  and  C_17
REMARK                            x       y       z     vdW  Elec       q    Type
REMARK                         _______ _______ _______ _____ _____    ______ ____
ROOT
ATOM      1  N   UNL     1      46.569   3.636  13.882  0.00  0.00    +0.000 N 
ATOM      2  C   UNL     1      47.104   3.615  15.165  0.00  0.00    +0.000 A 
ATOM      3  N   UNL     1      46.589   4.392  16.130  0.00  0.00    +0.000 NA
ATOM      4  C   UNL     1      47.204   4.371  17.333  0.00  0.00    +0.000 A 
ATOM      5  C   UNL     1      48.302   3.592  17.612  0.00  0.00    +0.000 A 
ATOM      6  C   UNL     1      48.751   2.829  16.562  0.00  0.00    +0.000 A 
ATOM      7  N   UNL     1      48.174   2.825  15.337  0.00  0.00    +0.000 NA
ATOM      8  H   UNL     1      47.300   3.264  13.284  0.00  0.00    +0.000 HD
ENDROOT
BRANCH   1  13
ATOM      9  C   UNL     1      45.518   7.901  12.825  0.00  0.00    +0.000 C 
ATOM     10  C   UNL     1      46.720   7.014  12.439  0.00  0.00    +0.000 C 
ATOM     11  C   UNL     1      46.326   6.024  11.323  0.00  0.00    +0.000 C 
ATOM     12  C   UNL     1      45.550   4.907  12.021  0.00  0.00    +0.000 C 
ATOM     13  C   UNL     1      46.003   4.917  13.488  0.00  0.00    +0.000 C 
ATOM     14  C   UNL     1      47.065   6.021  13.570  0.00  0.00    +0.000 C 
BRANCH  10  15
ATOM     15  C   UNL     1      47.874   7.924  12.071  0.00  0.00    +0.000 A 
ATOM     16  C   UNL     1      49.150   7.456  11.798  0.00  0.00    +0.000 A 
ATOM     17  N   UNL     1      50.208   8.242  11.512  0.00  0.00    +0.000 NA
ATOM     18  C   UNL     1      49.970   9.560  11.518  0.00  0.00    +0.000 A 
ATOM     19  N   UNL     1      48.794  10.143  11.780  0.00  0.00    +0.000 NA
ATOM     20  C   UNL     1      47.773   9.305  12.056  0.00  0.00    +0.000 A 
ENDBRANCH  10  15
ENDBRANCH   1  13
BRANCH   5  21
ATOM     21  C   UNL     1      48.937   3.655  18.934  0.00  0.00    +0.000 C 
ATOM     22  N   UNL     1      48.311   3.038  19.981  0.00  0.00    +0.000 N 
ATOM     23  O   UNL     1      49.987   4.264  19.097  0.00  0.00    +0.000 OA
ATOM     24  H   UNL     1      47.350   2.728  19.960  0.00  0.00    +0.000 HD
ATOM     25  H   UNL     1      48.731   3.178  20.893  0.00  0.00    +0.000 HD
ENDBRANCH   5  21
TORSDOF 3
ENDMDL
MODEL 6
REMARK VINA RESULT:    -6.200      3.989      6.566
REMARK INTER + INTRA:          -7.353
REMARK INTER:                  -7.773
REMARK INTRA:                   0.420
REMARK UNBOUND:                -0.065
REMARK  Name = 
REMARK  4 active torsions:
REMARK  status: ('A' for Active; 'I' for Inactive)
REMARK    1  A    between atoms: C_1  and  C_2
REMARK    2  A    between atoms: C_2  and  C_3
REMARK    3  A    between atoms: C_11  and  N_12
REMARK    4  A    between atoms: C_16  and  C_17
REMARK                            x       y       z     vdW  Elec       q    Type
REMARK                         _______ _______ _______ _____ _____    ______ ____
ROOT
ATOM      1  N   UNL     1      47.325   3.379  14.518  0.00  0.00    +0.000 N 
ATOM      2  C   UNL     1      46.350   3.890  13.670  0.00  0.00    +0.000 A 
ATOM      3  N   UNL     1      46.008   5.186  13.729  0.00  0.00    +0.000 NA
ATOM      4  C   UNL     1      45.004   5.597  12.924  0.00  0.00    +0.000 A 
ATOM      5  C   UNL     1      44.342   4.767  12.050  0.00  0.00    +0.000 A 
ATOM      6  C   UNL     1      44.767   3.461  12.059  0.00  0.00    +0.000 A 
ATOM      7  N   UNL     1      45.761   3.002  12.855  0.00  0.00    +0.000 NA
ATOM      8  H   UNL     1      47.163   2.377  14.533  0.00  0.00    +0.000 HD
ENDROOT
BRANCH   1  13
ATOM      9  C   UNL     1      48.092   4.879  18.710  0.00  0.00    +0.000 C 
ATOM     10  C   UNL     1      49.053   4.484  17.568  0.00  0.00    +0.000 C 
ATOM     11  C   UNL     1      49.142   5.614  16.521  0.00  0.00    +0.000 C 
ATOM     12  C   UNL     1      47.872   5.494  15.679  0.00  0.00    +0.000 C 
ATOM     13  C   UNL     1      47.402   4.038  15.813  0.00  0.00    +0.000 C 
ATOM     14  C   UNL     1      48.452   3.358  16.700  0.00  0.00    +0.000 C 
BRANCH  10  15
ATOM     15  C   UNL     1      50.386   4.115  18.186  0.00  0.00    +0.000 A 
ATOM     16  C   UNL     1      50.920   4.773  19.283  0.00  0.00    +0.000 A 
ATOM     17  N   UNL     1      52.123   4.500  19.828  0.00  0.00    +0.000 NA
ATOM     18  C   UNL     1      52.825   3.528  19.229  0.00  0.00    +0.000 A 
ATOM     19  N   UNL     1      52.434   2.826  18.158  0.00  0.00    +0.000 NA
ATOM     20  C   UNL     1      51.221   3.144  17.659  0.00  0.00    +0.000 A 
ENDBRANCH  10  15
ENDBRANCH   1  13
BRANCH   5  21
ATOM     21  C   UNL     1      43.235   5.282  11.235  0.00  0.00    +0.000 C 
ATOM     22  N   UNL     1      42.237   5.972  11.864  0.00  0.00    +0.000 N 
ATOM     23  O   UNL     1      43.197   5.079  10.029  0.00  0.00    +0.000 OA
ATOM     24  H   UNL     1      42.094   5.972  12.864  0.00  0.00    +0.000 HD
ATOM     25  H   UNL     1      41.446   6.234  11.286  0.00  0.00    +0.000 HD
ENDBRANCH   5  21
TORSDOF 3
ENDMDL
MODEL 7
REMARK VINA RESULT:    -6.166      3.955      6.324
REMARK INTER + INTRA:          -7.313
REMARK INTER:                  -6.961
REMARK INTRA:                  -0.352
REMARK UNBOUND:                -0.065
REMARK  Name = 
REMARK  4 active torsions:
REMARK  status: ('A' for Active; 'I' for Inactive)
REMARK    1  A    between atoms: C_1  and  C_2
REMARK    2  A    between atoms: C_2  and  C_3
REMARK    3  A    between atoms: C_11  and  N_12
REMARK    4  A    between atoms: C_16  and  C_17
REMARK                            x       y       z     vdW  Elec       q    Type
REMARK                         _______ _______ _______ _____ _____    ______ ____
ROOT
ATOM      1  N   UNL     1      46.833   5.096  15.284  0.00  0.00    +0.000 N 
ATOM      2  C   UNL     1      46.286   4.868  14.026  0.00  0.00    +0.000 A 
ATOM      3  N   UNL     1      45.942   3.627  13.649  0.00  0.00    +0.000 NA
ATOM      4  C   UNL     1      45.482   3.471  12.388  0.00  0.00    +0.000 A 
ATOM      5  C   UNL     1      45.336   4.509  11.498  0.00  0.00    +0.000 A 
ATOM      6  C   UNL     1      45.710   5.740  11.979  0.00  0.00    +0.000 A 
ATOM      7  N   UNL     1      46.186   5.943  13.230  0.00  0.00    +0.000 NA
ATOM      8  H   UNL     1      47.310   5.989  15.206  0.00  0.00    +0.000 HD
ENDROOT
BRANCH   1  13
ATOM      9  C   UNL     1      49.825   2.197  17.031  0.00  0.00    +0.000 C 
ATOM     10  C   UNL     1      49.333   3.579  17.511  0.00  0.00    +0.000 C 
ATOM     11  C   UNL     1      47.947   3.457  18.179  0.00  0.00    +0.000 C 
ATOM     12  C   UNL     1      46.945   3.347  17.029  0.00  0.00    +0.000 C 
ATOM     13  C   UNL     1      47.619   3.989  15.808  0.00  0.00    +0.000 C 
ATOM     14  C   UNL     1      48.977   4.489  16.316  0.00  0.00    +0.000 C 
BRANCH  10  15
ATOM     15  C   UNL     1      50.398   4.166  18.413  0.00  0.00    +0.000 A 
ATOM     16  C   UNL     1      51.751   4.118  18.118  0.00  0.00    +0.000 A 
ATOM     17  N   UNL     1      52.727   4.590  18.921  0.00  0.00    +0.000 NA
ATOM     18  C   UNL     1      52.318   5.122  20.080  0.00  0.00    +0.000 A 
ATOM     19  N   UNL     1      51.048   5.217  20.494  0.00  0.00    +0.000 NA
ATOM     20  C   UNL     1      50.117   4.729  19.648  0.00  0.00    +0.000 A 
ENDBRANCH  10  15
ENDBRANCH   1  13
BRANCH   5  21
ATOM     21  C   UNL     1      44.865   4.251  10.131  0.00  0.00    +0.000 C 
ATOM     22  N   UNL     1      45.333   5.049   9.126  0.00  0.00    +0.000 N 
ATOM     23  O   UNL     1      44.058   3.359   9.905  0.00  0.00    +0.000 OA
ATOM     24  H   UNL     1      45.807   5.928   9.278  0.00  0.00    +0.000 HD
ATOM     25  H   UNL     1      44.919   4.901   8.213  0.00  0.00    +0.000 HD
ENDBRANCH   5  21
TORSDOF 3
ENDMDL
MODEL 8
REMARK VINA RESULT:    -6.071      3.877      7.842
REMARK INTER + INTRA:          -7.201
REMARK INTER:                  -6.790
REMARK INTRA:                  -0.412
REMARK UNBOUND:                -0.065
REMARK  Name = 
REMARK  4 active torsions:
REMARK  status: ('A' for Active; 'I' for Inactive)
REMARK    1  A    between atoms: C_1  and  C_2
REMARK    2  A    between atoms: C_2  and  C_3
REMARK    3  A    between atoms: C_11  and  N_12
REMARK    4  A    between atoms: C_16  and  C_17
REMARK                            x       y       z     vdW  Elec       q    Type
REMARK                         _______ _______ _______ _____ _____    ______ ____
ROOT
ATOM      1  N   UNL     1      47.778   7.417  14.682  0.00  0.00    +0.000 N 
ATOM      2  C   UNL     1      49.153   7.518  14.864  0.00  0.00    +0.000 A 
ATOM      3  N   UNL     1      49.920   8.108  13.935  0.00  0.00    +0.000 NA
ATOM      4  C   UNL     1      51.254   8.108  14.145  0.00  0.00    +0.000 A 
ATOM      5  C   UNL     1      51.849   7.557  15.256  0.00  0.00    +0.000 A 
ATOM      6  C   UNL     1      50.980   6.982  16.151  0.00  0.00    +0.000 A 
ATOM      7  N   UNL     1      49.637   6.949  15.977  0.00  0.00    +0.000 NA
ATOM      8  H   UNL     1      47.484   6.668  15.302  0.00  0.00    +0.000 HD
ENDROOT
BRANCH   1  13
ATOM      9  C   UNL     1      46.345   6.321  10.540  0.00  0.00    +0.000 C 
ATOM     10  C   UNL     1      45.752   6.046  11.938  0.00  0.00    +0.000 C 
ATOM     11  C   UNL     1      45.046   7.305  12.484  0.00  0.00    +0.000 C 
ATOM     12  C   UNL     1      46.165   8.218  12.987  0.00  0.00    +0.000 C 
ATOM     13  C   UNL     1      47.361   7.305  13.293  0.00  0.00    +0.000 C 
ATOM     14  C   UNL     1      46.867   5.884  12.994  0.00  0.00    +0.000 C 
BRANCH  10  15
ATOM     15  C   UNL     1      44.849   4.835  11.833  0.00  0.00    +0.000 A 
ATOM     16  C   UNL     1      44.406   4.123  12.936  0.00  0.00    +0.000 A 
ATOM     17  N   UNL     1      43.640   3.014  12.874  0.00  0.00    +0.000 NA
ATOM     18  C   UNL     1      43.318   2.599  11.642  0.00  0.00    +0.000 A 
ATOM     19  N   UNL     1      43.691   3.183  10.496  0.00  0.00    +0.000 NA
ATOM     20  C   UNL     1      44.455   4.288  10.623  0.00  0.00    +0.000 A 
ENDBRANCH  10  15
ENDBRANCH   1  13
BRANCH   5  21
ATOM     21  C   UNL     1      53.311   7.563  15.393  0.00  0.00    +0.000 C 
ATOM     22  N   UNL     1      54.054   6.996  14.396  0.00  0.00    +0.000 N 
ATOM     23  O   UNL     1      53.845   8.044  16.384  0.00  0.00    +0.000 OA
ATOM     24  H   UNL     1      53.674   6.391  13.683  0.00  0.00    +0.000 HD
ATOM     25  H   UNL     1      55.052   6.938  14.567  0.00  0.00    +0.000 HD
ENDBRANCH   5  21
TORSDOF 3
ENDMDL
MODEL 9
REMARK VINA RESULT:    -5.877      4.066      5.958
REMARK INTER + INTRA:          -6.973
REMARK INTER:                  -6.563
REMARK INTRA:                  -0.410
REMARK UNBOUND:                -0.065
REMARK  Name = 
REMARK  4 active torsions:
REMARK  status: ('A' for Active; 'I' for Inactive)
REMARK    1  A    between atoms: C_1  and  C_2
REMARK    2  A    between atoms: C_2  and  C_3
REMARK    3  A    between atoms: C_11  and  N_12
REMARK    4  A    between atoms: C_16  and  C_17
REMARK                            x       y       z     vdW  Elec       q    Type
REMARK                         _______ _______ _______ _____ _____    ______ ____
ROOT
ATOM      1  N   UNL     1      46.145   8.064  12.096  0.00  0.00    +0.000 N 
ATOM      2  C   UNL     1      45.548   6.808  12.099  0.00  0.00    +0.000 A 
ATOM      3  N   UNL     1      45.737   5.967  13.127  0.00  0.00    +0.000 NA
ATOM      4  C   UNL     1      45.183   4.739  13.029  0.00  0.00    +0.000 A 
ATOM      5  C   UNL     1      44.434   4.326  11.953  0.00  0.00    +0.000 A 
ATOM      6  C   UNL     1      44.293   5.259  10.955  0.00  0.00    +0.000 A 
ATOM      7  N   UNL     1      44.838   6.498  11.004  0.00  0.00    +0.000 NA
ATOM      8  H   UNL     1      46.148   8.352  11.123  0.00  0.00    +0.000 HD
ENDROOT
BRANCH   1  13
ATOM      9  C   UNL     1      50.409   7.973  13.587  0.00  0.00    +0.000 C 
ATOM     10  C   UNL     1      49.787   8.521  12.285  0.00  0.00    +0.000 C 
ATOM     11  C   UNL     1      49.111   9.884  12.541  0.00  0.00    +0.000 C 
ATOM     12  C   UNL     1      47.772   9.560  13.205  0.00  0.00    +0.000 C 
ATOM     13  C   UNL     1      47.422   8.124  12.791  0.00  0.00    +0.000 C 
ATOM     14  C   UNL     1      48.560   7.687  11.860  0.00  0.00    +0.000 C 
BRANCH  10  15
ATOM     15  C   UNL     1      50.874   8.565  11.231  0.00  0.00    +0.000 A 
ATOM     16  C   UNL     1      51.385   7.429  10.623  0.00  0.00    +0.000 A 
ATOM     17  N   UNL     1      52.383   7.430   9.716  0.00  0.00    +0.000 NA
ATOM     18  C   UNL     1      52.898   8.631   9.421  0.00  0.00    +0.000 A 
ATOM     19  N   UNL     1      52.510   9.801   9.945  0.00  0.00    +0.000 NA
ATOM     20  C   UNL     1      51.507   9.735  10.845  0.00  0.00    +0.000 A 
ENDBRANCH  10  15
ENDBRANCH   1  13
BRANCH   5  21
ATOM     21  C   UNL     1      43.898   2.960  11.905  0.00  0.00    +0.000 C 
ATOM     22  N   UNL     1      43.980   2.276  10.724  0.00  0.00    +0.000 N 
ATOM     23  O   UNL     1      43.373   2.458  12.890  0.00  0.00    +0.000 OA
ATOM     24  H   UNL     1      44.184   2.708   9.835  0.00  0.00    +0.000 HD
ATOM     25  H   UNL     1      43.520   1.373  10.703  0.00  0.00    +0.000 HD
ENDBRANCH   5  21
TORSDOF 3
ENDMDL
