MODEL 1
REMARK VINA RESULT:    -7.423      0.000      0.000
REMARK INTER + INTRA:         -12.173
REMARK INTER:                 -11.111
REMARK INTRA:                  -1.061
REMARK UNBOUND:                -1.061
REMARK  Name = 
REMARK  9 active torsions:
REMARK  status: ('A' for Active; 'I' for Inactive)
REMARK    1  A    between atoms: N_1  and  C_2
REMARK    2  A    between atoms: C_2  and  C_3
REMARK    3  A    between atoms: C_3  and  N_4
REMARK    4  A    between atoms: C_7  and  C_8
REMARK    5  A    between atoms: N_10  and  C_11
REMARK    6  A    between atoms: C_11  and  C_12
REMARK    7  A    between atoms: C_15  and  C_16
REMARK    8  A    between atoms: C_16  and  N_17
REMARK    9  A    between atoms: C_18  and  C_20
REMARK                            x       y       z     vdW  Elec       q    Type
REMARK                         _______ _______ _______ _____ _____    ______ ____
ROOT
ATOM      1  C   UNL     1      46.199   4.930  13.540  0.00  0.00    +0.000 A 
ATOM      2  C   UNL     1      46.653   4.440  14.772  0.00  0.00    +0.000 A 
ATOM      3  C   UNL     1      47.662   5.107  15.476  0.00  0.00    +0.000 A 
ATOM      4  C   UNL     1      48.224   6.287  14.970  0.00  0.00    +0.000 A 
ATOM      5  C   UNL     1      47.756   6.785  13.747  0.00  0.00    +0.000 A 
ATOM      6  C   UNL     1      46.747   6.120  13.046  0.00  0.00    +0.000 A 
ENDROOT
BRANCH   1   7
ATOM      7  C   UNL     1      45.142   4.201  12.757  0.00  0.00    +0.000 C 
BRANCH   7  10
ATOM      8  C   UNL     1      44.474   3.763  10.441  0.00  0.00    +0.000 C 
ATOM      9  O   UNL     1      43.688   2.890  10.787  0.00  0.00    +0.000 OA
ATOM     10  N   UNL     1      45.249   4.466  11.342  0.00  0.00    +0.000 N 
ATOM     11  H   UNL     1      46.016   5.039  11.016  0.00  0.00    +0.000 HD
BRANCH   8  15
ATOM     12  N   UNL     1      45.755   2.981   7.156  0.00  0.00    +0.000 NA
ATOM     13  C   UNL     1      46.306   4.345   7.268  0.00  0.00    +0.000 C 
ATOM     14  C   UNL     1      46.074   4.745   8.712  0.00  0.00    +0.000 C 
ATOM     15  C   UNL     1      44.694   4.172   8.997  0.00  0.00    +0.000 C 
ATOM     16  C   UNL     1      44.590   2.963   8.064  0.00  0.00    +0.000 C 
BRANCH  12  17
ATOM     17  C   UNL     1      46.774   1.974   7.530  0.00  0.00    +0.000 C 
BRANCH  17  18
ATOM     18  C   UNL     1      48.169   2.252   6.924  0.00  0.00    +0.000 C 
BRANCH  18  19
ATOM     19  N   UNL     1      48.278   1.744   5.554  0.00  0.00    +0.000 NA
ATOM     20  H   UNL     1      47.702   2.320   4.943  0.00  0.00    +0.000 HD
ATOM     21  H   UNL     1      47.885   0.804   5.511  0.00  0.00    +0.000 HD
ENDBRANCH  18  19
ENDBRANCH  17  18
ENDBRANCH  12  17
ENDBRANCH   8  15
ENDBRANCH   7  10
ENDBRANCH   1   7
BRANCH   4  22
ATOM     22  C   UNL     1      49.345   6.990  15.690  0.00  0.00    +0.000 C 
BRANCH  22  23
ATOM     23  N   UNL     1      50.320   6.050  16.191  0.00  0.00    +0.000 N 
ATOM     24  C   UNL     1      50.459   5.829  17.538  0.00  0.00    +0.000 C 
ATOM     25  O   UNL     1      49.733   6.381  18.361  0.00  0.00    +0.000 OA
ATOM     26  H   UNL     1      51.066   5.772  15.559  0.00  0.00    +0.000 HD
BRANCH  24  27
ATOM     27  C   UNL     1      51.481   4.860  17.950  0.00  0.00    +0.000 A 
ATOM     28  C   UNL     1      52.633   5.307  18.585  0.00  0.00    +0.000 A 
ATOM     29  S   UNL     1      53.705   4.056  19.025  0.00  0.00    +0.000 S 
ATOM     30  C   UNL     1      52.691   2.875  18.340  0.00  0.00    +0.000 A 
ATOM     31  N   UNL     1      53.047   1.561  18.346  0.00  0.00    +0.000 NA
ATOM     32  C   UNL     1      52.199   0.777  17.768  0.00  0.00    +0.000 A 
ATOM     33  N   UNL     1      51.025   1.187  17.191  0.00  0.00    +0.000 N 
ATOM     34  C   UNL     1      50.610   2.498  17.187  0.00  0.00    +0.000 A 
ATOM     35  O   UNL     1      49.530   2.823  16.703  0.00  0.00    +0.000 OA
ATOM     36  C   UNL     1      51.538   3.424  17.806  0.00  0.00    +0.000 A 
ATOM     37  H   UNL     1      50.398   0.519  16.766  0.00  0.00    +0.000 HD
ENDBRANCH  24  27
ENDBRANCH  22  23
ENDBRANCH   4  22
TORSDOF 9
ENDMDL
MODEL 2
REMARK VINA RESULT:    -7.064      3.713      9.874
REMARK INTER + INTRA:         -11.635
REMARK INTER:                 -10.467
REMARK INTRA:                  -1.168
REMARK UNBOUND:                -1.061
REMARK  Name = 
REMARK  9 active torsions:
REMARK  status: ('A' for Active; 'I' for Inactive)
REMARK    1  A    between atoms: N_1  and  C_2
REMARK    2  A    between atoms: C_2  and  C_3
REMARK    3  A    between atoms: C_3  and  N_4
REMARK    4  A    between atoms: C_7  and  C_8
REMARK    5  A    between atoms: N_10  and  C_11
REMARK    6  A    between atoms: C_11  and  C_12
REMARK    7  A    between atoms: C_15  and  C_16
REMARK    8  A    between atoms: C_16  and  N_17
REMARK    9  A    between atoms: C_18  and  C_20
REMARK                            x       y       z     vdW  Elec       q    Type
REMARK                         _______ _______ _______ _____ _____    ______ ____
ROOT
ATOM      1  C   UNL     1      46.959   6.801  13.372  0.00  0.00    +0.000 A 
ATOM      2  C   UNL     1      45.891   7.078  12.509  0.00  0.00    +0.000 A 
ATOM      3  C   UNL     1      45.051   6.051  12.063  0.00  0.00    +0.000 A 
ATOM      4  C   UNL     1      45.251   4.731  12.487  0.00  0.00    +0.000 A 
ATOM      5  C   UNL     1      46.310   4.459  13.364  0.00  0.00    +0.000 A 
ATOM      6  C   UNL     1      47.147   5.484  13.810  0.00  0.00    +0.000 A 
ENDROOT
BRANCH   1   7
ATOM      7  C   UNL     1      47.893   7.890  13.827  0.00  0.00    +0.000 C 
BRANCH   7  10
ATOM      8  C   UNL     1      49.260   7.306  15.773  0.00  0.00    +0.000 C 
ATOM      9  O   UNL     1      50.139   6.827  15.066  0.00  0.00    +0.000 OA
ATOM     10  N   UNL     1      48.103   7.850  15.254  0.00  0.00    +0.000 N 
ATOM     11  H   UNL     1      47.323   8.062  15.862  0.00  0.00    +0.000 HD
BRANCH   8  15
ATOM     12  N   UNL     1      48.314   5.922  18.972  0.00  0.00    +0.000 NA
ATOM     13  C   UNL     1      48.050   7.341  19.280  0.00  0.00    +0.000 C 
ATOM     14  C   UNL     1      48.157   8.058  17.948  0.00  0.00    +0.000 C 
ATOM     15  C   UNL     1      49.333   7.356  17.287  0.00  0.00    +0.000 C 
ATOM     16  C   UNL     1      49.312   5.946  17.883  0.00  0.00    +0.000 C 
BRANCH  12  17
ATOM     17  C   UNL     1      47.066   5.233  18.575  0.00  0.00    +0.000 C 
BRANCH  17  18
ATOM     18  C   UNL     1      47.240   4.286  17.365  0.00  0.00    +0.000 C 
BRANCH  18  19
ATOM     19  N   UNL     1      46.682   2.958  17.629  0.00  0.00    +0.000 NA
ATOM     20  H   UNL     1      47.047   2.619  18.518  0.00  0.00    +0.000 HD
ATOM     21  H   UNL     1      47.014   2.304  16.919  0.00  0.00    +0.000 HD
ENDBRANCH  18  19
ENDBRANCH  17  18
ENDBRANCH  12  17
ENDBRANCH   8  15
ENDBRANCH   7  10
ENDBRANCH   1   7
BRANCH   4  22
ATOM     22  C   UNL     1      44.387   3.607  11.978  0.00  0.00    +0.000 C 
BRANCH  22  23
ATOM     23  N   UNL     1      45.077   2.824  10.981  0.00  0.00    +0.000 N 
ATOM     24  C   UNL     1      44.797   2.977   9.646  0.00  0.00    +0.000 C 
ATOM     25  O   UNL     1      43.992   3.816   9.247  0.00  0.00    +0.000 OA
ATOM     26  H   UNL     1      45.558   1.986  11.297  0.00  0.00    +0.000 HD
BRANCH  24  27
ATOM     27  C   UNL     1      45.545   2.132   8.708  0.00  0.00    +0.000 A 
ATOM     28  C   UNL     1      45.418   0.750   8.779  0.00  0.00    +0.000 A 
ATOM     29  S   UNL     1      46.327  -0.086   7.604  0.00  0.00    +0.000 S 
ATOM     30  C   UNL     1      46.964   1.366   6.988  0.00  0.00    +0.000 A 
ATOM     31  N   UNL     1      47.861   1.356   5.965  0.00  0.00    +0.000 NA
ATOM     32  C   UNL     1      48.284   2.526   5.616  0.00  0.00    +0.000 A 
ATOM     33  N   UNL     1      47.887   3.704   6.193  0.00  0.00    +0.000 N 
ATOM     34  C   UNL     1      46.961   3.765   7.208  0.00  0.00    +0.000 A 
ATOM     35  O   UNL     1      46.591   4.841   7.669  0.00  0.00    +0.000 OA
ATOM     36  C   UNL     1      46.470   2.476   7.652  0.00  0.00    +0.000 A 
ATOM     37  H   UNL     1      48.246   4.587   5.863  0.00  0.00    +0.000 HD
ENDBRANCH  24  27
ENDBRANCH  22  23
ENDBRANCH   4  22
TORSDOF 9
ENDMDL
MODEL 3
REMARK VINA RESULT:    -7.018      3.323      9.641
REMARK INTER + INTRA:         -11.567
REMARK INTER:                 -10.150
REMARK INTRA:                  -1.417
REMARK UNBOUND:                -1.061
REMARK  Name = 
REMARK  9 active torsions:
REMARK  status: ('A' for Active; 'I' for Inactive)
REMARK    1  A    between atoms: N_1  and  C_2
REMARK    2  A    between atoms: C_2  and  C_3
REMARK    3  A    between atoms: C_3  and  N_4
REMARK    4  A    between atoms: C_7  and  C_8
REMARK    5  A    between atoms: N_10  and  C_11
REMARK    6  A    between atoms: C_11  and  C_12
REMARK    7  A    between atoms: C_15  and  C_16
REMARK    8  A    between atoms: C_16  and  N_17
REMARK    9  A    between atoms: C_18  and  C_20
REMARK                            x       y       z     vdW  Elec       q    Type
REMARK                         _______ _______ _______ _____ _____    ______ ____
ROOT
ATOM      1  C   UNL     1      50.347   7.760  14.723  0.00  0.00    +0.000 A 
ATOM      2  C   UNL     1      50.470   8.664  13.660  0.00  0.00    +0.000 A 
ATOM      3  C   UNL     1      49.468   8.760  12.688  0.00  0.00    +0.000 A 
ATOM      4  C   UNL     1      48.315   7.967  12.771  0.00  0.00    +0.000 A 
ATOM      5  C   UNL     1      48.186   7.077  13.845  0.00  0.00    +0.000 A 
ATOM      6  C   UNL     1      49.185   6.983  14.816  0.00  0.00    +0.000 A 
ENDROOT
BRANCH   1   7
ATOM      7  C   UNL     1      51.435   7.620  15.754  0.00  0.00    +0.000 C 
BRANCH   7  10
ATOM      8  C   UNL     1      51.852   5.747  17.275  0.00  0.00    +0.000 C 
ATOM      9  O   UNL     1      52.935   5.508  16.755  0.00  0.00    +0.000 OA
ATOM     10  N   UNL     1      51.029   6.768  16.846  0.00  0.00    +0.000 N 
ATOM     11  H   UNL     1      50.071   6.819  17.166  0.00  0.00    +0.000 HD
BRANCH   8  15
ATOM     12  N   UNL     1      49.021   4.183  18.882  0.00  0.00    +0.000 NA
ATOM     13  C   UNL     1      49.561   4.883  20.063  0.00  0.00    +0.000 C 
ATOM     14  C   UNL     1      50.630   5.809  19.515  0.00  0.00    +0.000 C 
ATOM     15  C   UNL     1      51.288   4.957  18.441  0.00  0.00    +0.000 C 
ATOM     16  C   UNL     1      50.175   4.015  17.976  0.00  0.00    +0.000 C 
BRANCH  12  17
ATOM     17  C   UNL     1      47.930   4.969  18.263  0.00  0.00    +0.000 C 
BRANCH  17  18
ATOM     18  C   UNL     1      47.136   4.187  17.190  0.00  0.00    +0.000 C 
BRANCH  18  19
ATOM     19  N   UNL     1      46.710   2.874  17.680  0.00  0.00    +0.000 NA
ATOM     20  H   UNL     1      46.003   3.005  18.402  0.00  0.00    +0.000 HD
ATOM     21  H   UNL     1      47.497   2.411  18.134  0.00  0.00    +0.000 HD
ENDBRANCH  18  19
ENDBRANCH  17  18
ENDBRANCH  12  17
ENDBRANCH   8  15
ENDBRANCH   7  10
ENDBRANCH   1   7
BRANCH   4  22
ATOM     22  C   UNL     1      47.251   8.022  11.706  0.00  0.00    +0.000 C 
BRANCH  22  23
ATOM     23  N   UNL     1      46.632   6.733  11.514  0.00  0.00    +0.000 N 
ATOM     24  C   UNL     1      45.265   6.605  11.478  0.00  0.00    +0.000 C 
ATOM     25  O   UNL     1      44.523   7.581  11.557  0.00  0.00    +0.000 OA
ATOM     26  H   UNL     1      47.206   5.911  11.680  0.00  0.00    +0.000 HD
BRANCH  24  27
ATOM     27  C   UNL     1      44.730   5.253  11.285  0.00  0.00    +0.000 A 
ATOM     28  C   UNL     1      43.958   4.671  12.283  0.00  0.00    +0.000 A 
ATOM     29  S   UNL     1      43.388   3.113  11.892  0.00  0.00    +0.000 S 
ATOM     30  C   UNL     1      44.193   3.137  10.394  0.00  0.00    +0.000 A 
ATOM     31  N   UNL     1      44.142   2.065   9.557  0.00  0.00    +0.000 NA
ATOM     32  C   UNL     1      44.821   2.207   8.467  0.00  0.00    +0.000 A 
ATOM     33  N   UNL     1      45.539   3.326   8.135  0.00  0.00    +0.000 N 
ATOM     34  C   UNL     1      45.594   4.445   8.934  0.00  0.00    +0.000 A 
ATOM     35  O   UNL     1      46.207   5.448   8.584  0.00  0.00    +0.000 OA
ATOM     36  C   UNL     1      44.865   4.328  10.182  0.00  0.00    +0.000 A 
ATOM     37  H   UNL     1      46.037   3.379   7.259  0.00  0.00    +0.000 HD
ENDBRANCH  24  27
ENDBRANCH  22  23
ENDBRANCH   4  22
TORSDOF 9
ENDMDL
MODEL 4
REMARK VINA RESULT:    -6.931      3.926     10.185
REMARK INTER + INTRA:         -11.436
REMARK INTER:                 -10.138
REMARK INTRA:                  -1.298
REMARK UNBOUND:                -1.061
REMARK  Name = 
REMARK  9 active torsions:
REMARK  status: ('A' for Active; 'I' for Inactive)
REMARK    1  A    between atoms: N_1  and  C_2
REMARK    2  A    between atoms: C_2  and  C_3
REMARK    3  A    between atoms: C_3  and  N_4
REMARK    4  A    between atoms: C_7  and  C_8
REMARK    5  A    between atoms: N_10  and  C_11
REMARK    6  A    between atoms: C_11  and  C_12
REMARK    7  A    between atoms: C_15  and  C_16
REMARK    8  A    between atoms: C_16  and  N_17
REMARK    9  A    between atoms: C_18  and  C_20
REMARK                            x       y       z     vdW  Elec       q    Type
REMARK                         _______ _______ _______ _____ _____    ______ ____
ROOT
ATOM      1  C   UNL     1      51.743   2.658  17.695  0.00  0.00    +0.000 A 
ATOM      2  C   UNL     1      50.932   1.701  17.072  0.00  0.00    +0.000 A 
ATOM      3  C   UNL     1      49.562   1.930  16.901  0.00  0.00    +0.000 A 
ATOM      4  C   UNL     1      48.980   3.130  17.332  0.00  0.00    +0.000 A 
ATOM      5  C   UNL     1      49.796   4.094  17.939  0.00  0.00    +0.000 A 
ATOM      6  C   UNL     1      51.164   3.865  18.107  0.00  0.00    +0.000 A 
ENDROOT
BRANCH   1   7
ATOM      7  C   UNL     1      53.209   2.407  17.919  0.00  0.00    +0.000 C 
BRANCH   7  10
ATOM      8  C   UNL     1      54.181   0.166  18.093  0.00  0.00    +0.000 C 
ATOM      9  O   UNL     1      54.664   0.240  16.970  0.00  0.00    +0.000 OA
ATOM     10  N   UNL     1      53.435   1.184  18.651  0.00  0.00    +0.000 N 
ATOM     11  H   UNL     1      52.897   1.020  19.492  0.00  0.00    +0.000 HD
BRANCH   8  15
ATOM     12  N   UNL     1      54.930  -3.347  18.475  0.00  0.00    +0.000 NA
ATOM     13  C   UNL     1      53.714  -3.308  19.309  0.00  0.00    +0.000 C 
ATOM     14  C   UNL     1      53.110  -1.939  19.060  0.00  0.00    +0.000 C 
ATOM     15  C   UNL     1      54.337  -1.043  18.997  0.00  0.00    +0.000 C 
ATOM     16  C   UNL     1      55.450  -1.964  18.491  0.00  0.00    +0.000 C 
BRANCH  12  17
ATOM     17  C   UNL     1      54.609  -3.810  17.106  0.00  0.00    +0.000 C 
BRANCH  17  18
ATOM     18  C   UNL     1      55.268  -2.960  15.995  0.00  0.00    +0.000 C 
BRANCH  18  19
ATOM     19  N   UNL     1      54.268  -2.299  15.152  0.00  0.00    +0.000 NA
ATOM     20  H   UNL     1      54.550  -2.389  14.177  0.00  0.00    +0.000 HD
ATOM     21  H   UNL     1      54.264  -1.299  15.355  0.00  0.00    +0.000 HD
ENDBRANCH  18  19
ENDBRANCH  17  18
ENDBRANCH  12  17
ENDBRANCH   8  15
ENDBRANCH   7  10
ENDBRANCH   1   7
BRANCH   4  22
ATOM     22  C   UNL     1      47.499   3.372  17.200  0.00  0.00    +0.000 C 
BRANCH  22  23
ATOM     23  N   UNL     1      47.221   4.426  16.255  0.00  0.00    +0.000 N 
ATOM     24  C   UNL     1      47.213   4.180  14.905  0.00  0.00    +0.000 C 
ATOM     25  O   UNL     1      47.393   3.051  14.454  0.00  0.00    +0.000 OA
ATOM     26  H   UNL     1      47.302   5.384  16.588  0.00  0.00    +0.000 HD
BRANCH  24  27
ATOM     27  C   UNL     1      46.925   5.317  14.023  0.00  0.00    +0.000 A 
ATOM     28  C   UNL     1      47.838   6.360  13.929  0.00  0.00    +0.000 A 
ATOM     29  S   UNL     1      47.370   7.587  12.843  0.00  0.00    +0.000 S 
ATOM     30  C   UNL     1      45.907   6.793  12.494  0.00  0.00    +0.000 A 
ATOM     31  N   UNL     1      45.002   7.342  11.638  0.00  0.00    +0.000 NA
ATOM     32  C   UNL     1      43.923   6.647  11.486  0.00  0.00    +0.000 A 
ATOM     33  N   UNL     1      43.671   5.452  12.107  0.00  0.00    +0.000 N 
ATOM     34  C   UNL     1      44.568   4.845  12.955  0.00  0.00    +0.000 A 
ATOM     35  O   UNL     1      44.330   3.750  13.456  0.00  0.00    +0.000 OA
ATOM     36  C   UNL     1      45.788   5.595  13.176  0.00  0.00    +0.000 A 
ATOM     37  H   UNL     1      42.812   4.951  11.933  0.00  0.00    +0.000 HD
ENDBRANCH  24  27
ENDBRANCH  22  23
ENDBRANCH   4  22
TORSDOF 9
ENDMDL
MODEL 5
REMARK VINA RESULT:    -6.930      5.458      7.434
REMARK INTER + INTRA:         -11.435
REMARK INTER:                 -10.253
REMARK INTRA:                  -1.182
REMARK UNBOUND:                -1.061
REMARK  Name = 
REMARK  9 active torsions:
REMARK  status: ('A' for Active; 'I' for Inactive)
REMARK    1  A    between atoms: N_1  and  C_2
REMARK    2  A    between atoms: C_2  and  C_3
REMARK    3  A    between atoms: C_3  and  N_4
REMARK    4  A    between atoms: C_7  and  C_8
REMARK    5  A    between atoms: N_10  and  C_11
REMARK    6  A    between atoms: C_11  and  C_12
REMARK    7  A    between atoms: C_15  and  C_16
REMARK    8  A    between atoms: C_16  and  N_17
REMARK    9  A    between atoms: C_18  and  C_20
REMARK                            x       y       z     vdW  Elec       q    Type
REMARK                         _______ _______ _______ _____ _____    ______ ____
ROOT
ATOM      1  C   UNL     1      48.600   6.741  13.740  0.00  0.00    +0.000 A 
ATOM      2  C   UNL     1      49.630   7.366  14.456  0.00  0.00    +0.000 A 
ATOM      3  C   UNL     1      50.576   8.159  13.797  0.00  0.00    +0.000 A 
ATOM      4  C   UNL     1      50.500   8.358  12.413  0.00  0.00    +0.000 A 
ATOM      5  C   UNL     1      49.459   7.746  11.701  0.00  0.00    +0.000 A 
ATOM      6  C   UNL     1      48.514   6.956  12.359  0.00  0.00    +0.000 A 
ENDROOT
BRANCH   1   7
ATOM      7  C   UNL     1      47.600   5.854  14.432  0.00  0.00    +0.000 C 
BRANCH   7  10
ATOM      8  C   UNL     1      45.841   4.543  13.344  0.00  0.00    +0.000 C 
ATOM      9  O   UNL     1      46.398   3.487  13.618  0.00  0.00    +0.000 OA
ATOM     10  N   UNL     1      46.362   5.772  13.696  0.00  0.00    +0.000 N 
ATOM     11  H   UNL     1      45.982   6.620  13.295  0.00  0.00    +0.000 HD
BRANCH   8  15
ATOM     12  N   UNL     1      43.770   3.466  10.588  0.00  0.00    +0.000 NA
ATOM     13  C   UNL     1      43.552   4.918  10.448  0.00  0.00    +0.000 C 
ATOM     14  C   UNL     1      44.559   5.558  11.385  0.00  0.00    +0.000 C 
ATOM     15  C   UNL     1      44.528   4.630  12.589  0.00  0.00    +0.000 C 
ATOM     16  C   UNL     1      44.142   3.269  12.004  0.00  0.00    +0.000 C 
BRANCH  12  17
ATOM     17  C   UNL     1      44.827   3.005   9.660  0.00  0.00    +0.000 C 
BRANCH  17  18
ATOM     18  C   UNL     1      44.759   3.670   8.266  0.00  0.00    +0.000 C 
BRANCH  18  19
ATOM     19  N   UNL     1      45.929   4.514   8.008  0.00  0.00    +0.000 NA
ATOM     20  H   UNL     1      45.612   5.435   7.710  0.00  0.00    +0.000 HD
ATOM     21  H   UNL     1      46.457   4.129   7.224  0.00  0.00    +0.000 HD
ENDBRANCH  18  19
ENDBRANCH  17  18
ENDBRANCH  12  17
ENDBRANCH   8  15
ENDBRANCH   7  10
ENDBRANCH   1   7
BRANCH   4  22
ATOM     22  C   UNL     1      51.538   9.168  11.681  0.00  0.00    +0.000 C 
BRANCH  22  23
ATOM     23  N   UNL     1      51.826   8.605  10.384  0.00  0.00    +0.000 N 
ATOM     24  C   UNL     1      52.900   9.041   9.648  0.00  0.00    +0.000 C 
ATOM     25  O   UNL     1      53.680   9.885  10.083  0.00  0.00    +0.000 OA
ATOM     26  H   UNL     1      51.079   8.092   9.922  0.00  0.00    +0.000 HD
BRANCH  24  27
ATOM     27  C   UNL     1      53.107   8.412   8.339  0.00  0.00    +0.000 A 
ATOM     28  C   UNL     1      53.039   9.187   7.187  0.00  0.00    +0.000 A 
ATOM     29  S   UNL     1      53.332   8.315   5.752  0.00  0.00    +0.000 S 
ATOM     30  C   UNL     1      53.513   6.858   6.613  0.00  0.00    +0.000 A 
ATOM     31  N   UNL     1      53.751   5.688   5.960  0.00  0.00    +0.000 NA
ATOM     32  C   UNL     1      53.838   4.656   6.733  0.00  0.00    +0.000 A 
ATOM     33  N   UNL     1      53.715   4.690   8.097  0.00  0.00    +0.000 N 
ATOM     34  C   UNL     1      53.505   5.853   8.801  0.00  0.00    +0.000 A 
ATOM     35  O   UNL     1      53.448   5.854  10.027  0.00  0.00    +0.000 OA
ATOM     36  C   UNL     1      53.378   7.039   7.978  0.00  0.00    +0.000 A 
ATOM     37  H   UNL     1      53.808   3.847   8.645  0.00  0.00    +0.000 HD
ENDBRANCH  24  27
ENDBRANCH  22  23
ENDBRANCH   4  22
TORSDOF 9
ENDMDL
MODEL 6
REMARK VINA RESULT:    -6.651      4.060      9.406
REMARK INTER + INTRA:         -11.017
REMARK INTER:                  -9.713
REMARK INTRA:                  -1.304
REMARK UNBOUND:                -1.061
REMARK  Name = 
REMARK  9 active torsions:
REMARK  status: ('A' for Active; 'I' for Inactive)
REMARK    1  A    between atoms: N_1  and  C_2
REMARK    2  A    between atoms: C_2  and  C_3
REMARK    3  A    between atoms: C_3  and  N_4
REMARK    4  A    between atoms: C_7  and  C_8
REMARK    5  A    between atoms: N_10  and  C_11
REMARK    6  A    between atoms: C_11  and  C_12
REMARK    7  A    between atoms: C_15  and  C_16
REMARK    8  A    between atoms: C_16  and  N_17
REMARK    9  A    between atoms: C_18  and  C_20
REMARK                            x       y       z     vdW  Elec       q    Type
REMARK                         _______ _______ _______ _____ _____    ______ ____
ROOT
ATOM      1  C   UNL     1      51.443   3.765  17.835  0.00  0.00    +0.000 A 
ATOM      2  C   UNL     1      50.953   2.529  17.394  0.00  0.00    +0.000 A 
ATOM      3  C   UNL     1      49.603   2.377  17.056  0.00  0.00    +0.000 A 
ATOM      4  C   UNL     1      48.721   3.463  17.136  0.00  0.00    +0.000 A 
ATOM      5  C   UNL     1      49.217   4.703  17.561  0.00  0.00    +0.000 A 
ATOM      6  C   UNL     1      50.565   4.855  17.895  0.00  0.00    +0.000 A 
ENDROOT
BRANCH   1   7
ATOM      7  C   UNL     1      52.883   3.931  18.237  0.00  0.00    +0.000 C 
BRANCH   7  10
ATOM      8  C   UNL     1      54.547   5.242  17.009  0.00  0.00    +0.000 C 
ATOM      9  O   UNL     1      55.149   4.233  16.660  0.00  0.00    +0.000 OA
ATOM     10  N   UNL     1      53.417   5.198  17.799  0.00  0.00    +0.000 N 
ATOM     11  H   UNL     1      53.058   6.044  18.222  0.00  0.00    +0.000 HD
BRANCH   8  15
ATOM     12  N   UNL     1      53.697   8.463  15.613  0.00  0.00    +0.000 NA
ATOM     13  C   UNL     1      54.958   8.251  14.876  0.00  0.00    +0.000 C 
ATOM     14  C   UNL     1      55.337   6.809  15.155  0.00  0.00    +0.000 C 
ATOM     15  C   UNL     1      54.969   6.648  16.622  0.00  0.00    +0.000 C 
ATOM     16  C   UNL     1      53.823   7.640  16.833  0.00  0.00    +0.000 C 
BRANCH  12  17
ATOM     17  C   UNL     1      52.536   8.066  14.785  0.00  0.00    +0.000 C 
BRANCH  17  18
ATOM     18  C   UNL     1      51.402   7.393  15.592  0.00  0.00    +0.000 C 
BRANCH  18  19
ATOM     19  N   UNL     1      50.279   7.006  14.733  0.00  0.00    +0.000 NA
ATOM     20  H   UNL     1      49.408   7.215  15.218  0.00  0.00    +0.000 HD
ATOM     21  H   UNL     1      50.292   5.995  14.596  0.00  0.00    +0.000 HD
ENDBRANCH  18  19
ENDBRANCH  17  18
ENDBRANCH  12  17
ENDBRANCH   8  15
ENDBRANCH   7  10
ENDBRANCH   1   7
BRANCH   4  22
ATOM     22  C   UNL     1      47.256   3.305  16.825  0.00  0.00    +0.000 C 
BRANCH  22  23
ATOM     23  N   UNL     1      46.804   4.312  15.895  0.00  0.00    +0.000 N 
ATOM     24  C   UNL     1      46.859   4.097  14.541  0.00  0.00    +0.000 C 
ATOM     25  O   UNL     1      47.246   3.028  14.072  0.00  0.00    +0.000 OA
ATOM     26  H   UNL     1      46.707   5.261  16.247  0.00  0.00    +0.000 HD
BRANCH  24  27
ATOM     27  C   UNL     1      46.382   5.182  13.676  0.00  0.00    +0.000 A 
ATOM     28  C   UNL     1      47.163   6.318  13.507  0.00  0.00    +0.000 A 
ATOM     29  S   UNL     1      46.483   7.470  12.450  0.00  0.00    +0.000 S 
ATOM     30  C   UNL     1      45.096   6.514  12.217  0.00  0.00    +0.000 A 
ATOM     31  N   UNL     1      44.075   6.946  11.428  0.00  0.00    +0.000 NA
ATOM     32  C   UNL     1      43.072   6.135  11.362  0.00  0.00    +0.000 A 
ATOM     33  N   UNL     1      43.001   4.928  12.007  0.00  0.00    +0.000 N 
ATOM     34  C   UNL     1      44.019   4.436  12.790  0.00  0.00    +0.000 A 
ATOM     35  O   UNL     1      43.942   3.330  13.315  0.00  0.00    +0.000 OA
ATOM     36  C   UNL     1      45.162   5.320  12.914  0.00  0.00    +0.000 A 
ATOM     37  H   UNL     1      42.192   4.333  11.902  0.00  0.00    +0.000 HD
ENDBRANCH  24  27
ENDBRANCH  22  23
ENDBRANCH   4  22
TORSDOF 9
ENDMDL
MODEL 7
REMARK VINA RESULT:    -6.639      2.887      3.614
REMARK INTER + INTRA:         -10.999
REMARK INTER:                  -9.431
REMARK INTRA:                  -1.569
REMARK UNBOUND:                -1.061
REMARK  Name = 
REMARK  9 active torsions:
REMARK  status: ('A' for Active; 'I' for Inactive)
REMARK    1  A    between atoms: N_1  and  C_2
REMARK    2  A    between atoms: C_2  and  C_3
REMARK    3  A    between atoms: C_3  and  N_4
REMARK    4  A    between atoms: C_7  and  C_8
REMARK    5  A    between atoms: N_10  and  C_11
REMARK    6  A    between atoms: C_11  and  C_12
REMARK    7  A    between atoms: C_15  and  C_16
REMARK    8  A    between atoms: C_16  and  N_17
REMARK    9  A    between atoms: C_18  and  C_20
REMARK                            x       y       z     vdW  Elec       q    Type
REMARK                         _______ _______ _______ _____ _____    ______ ____
ROOT
ATOM      1  C   UNL     1      47.982   8.058  13.496  0.00  0.00    +0.000 A 
ATOM      2  C   UNL     1      48.961   7.090  13.757  0.00  0.00    +0.000 A 
ATOM      3  C   UNL     1      49.763   7.180  14.901  0.00  0.00    +0.000 A 
ATOM      4  C   UNL     1      49.589   8.228  15.813  0.00  0.00    +0.000 A 
ATOM      5  C   UNL     1      48.598   9.186  15.559  0.00  0.00    +0.000 A 
ATOM      6  C   UNL     1      47.796   9.094  14.419  0.00  0.00    +0.000 A 
ENDROOT
BRANCH   1   7
ATOM      7  C   UNL     1      47.140   7.993  12.250  0.00  0.00    +0.000 C 
BRANCH   7  10
ATOM      8  C   UNL     1      44.916   7.085  11.773  0.00  0.00    +0.000 C 
ATOM      9  O   UNL     1      44.557   8.127  11.239  0.00  0.00    +0.000 OA
ATOM     10  N   UNL     1      46.175   6.922  12.313  0.00  0.00    +0.000 N 
ATOM     11  H   UNL     1      46.376   6.128  12.908  0.00  0.00    +0.000 HD
BRANCH   8  15
ATOM     12  N   UNL     1      44.510   3.646  12.799  0.00  0.00    +0.000 NA
ATOM     13  C   UNL     1      43.876   3.536  11.471  0.00  0.00    +0.000 C 
ATOM     14  C   UNL     1      44.182   4.851  10.780  0.00  0.00    +0.000 C 
ATOM     15  C   UNL     1      44.030   5.861  11.908  0.00  0.00    +0.000 C 
ATOM     16  C   UNL     1      44.378   5.069  13.170  0.00  0.00    +0.000 C 
BRANCH  12  17
ATOM     17  C   UNL     1      45.923   3.210  12.740  0.00  0.00    +0.000 C 
BRANCH  17  18
ATOM     18  C   UNL     1      46.853   3.992  13.697  0.00  0.00    +0.000 C 
BRANCH  18  19
ATOM     19  N   UNL     1      47.481   3.111  14.685  0.00  0.00    +0.000 NA
ATOM     20  H   UNL     1      47.896   2.317  14.201  0.00  0.00    +0.000 HD
ATOM     21  H   UNL     1      46.762   2.725  15.298  0.00  0.00    +0.000 HD
ENDBRANCH  18  19
ENDBRANCH  17  18
ENDBRANCH  12  17
ENDBRANCH   8  15
ENDBRANCH   7  10
ENDBRANCH   1   7
BRANCH   4  22
ATOM     22  C   UNL     1      50.477   8.368  17.023  0.00  0.00    +0.000 C 
BRANCH  22  23
ATOM     23  N   UNL     1      51.243   7.167  17.254  0.00  0.00    +0.000 N 
ATOM     24  C   UNL     1      50.881   6.276  18.234  0.00  0.00    +0.000 C 
ATOM     25  O   UNL     1      49.870   6.441  18.914  0.00  0.00    +0.000 OA
ATOM     26  H   UNL     1      52.185   7.135  16.873  0.00  0.00    +0.000 HD
BRANCH  24  27
ATOM     27  C   UNL     1      51.725   5.088  18.397  0.00  0.00    +0.000 A 
ATOM     28  C   UNL     1      52.966   5.207  19.010  0.00  0.00    +0.000 A 
ATOM     29  S   UNL     1      53.809   3.732  19.149  0.00  0.00    +0.000 S 
ATOM     30  C   UNL     1      52.568   2.886  18.352  0.00  0.00    +0.000 A 
ATOM     31  N   UNL     1      52.677   1.552  18.107  0.00  0.00    +0.000 NA
ATOM     32  C   UNL     1      51.676   1.044  17.469  0.00  0.00    +0.000 A 
ATOM     33  N   UNL     1      50.573   1.746  17.060  0.00  0.00    +0.000 N 
ATOM     34  C   UNL     1      50.405   3.088  17.311  0.00  0.00    +0.000 A 
ATOM     35  O   UNL     1      49.382   3.677  16.973  0.00  0.00    +0.000 OA
ATOM     36  C   UNL     1      51.512   3.713  18.007  0.00  0.00    +0.000 A 
ATOM     37  H   UNL     1      49.816   1.284  16.577  0.00  0.00    +0.000 HD
ENDBRANCH  24  27
ENDBRANCH  22  23
ENDBRANCH   4  22
TORSDOF 9
ENDMDL
MODEL 8
REMARK VINA RESULT:    -5.975      2.166      2.551
REMARK INTER + INTRA:         -10.005
REMARK INTER:                  -9.141
REMARK INTRA:                  -0.865
REMARK UNBOUND:                -1.061
REMARK  Name = 
REMARK  9 active torsions:
REMARK  status: ('A' for Active; 'I' for Inactive)
REMARK    1  A    between atoms: N_1  and  C_2
REMARK    2  A    between atoms: C_2  and  C_3
REMARK    3  A    between atoms: C_3  and  N_4
REMARK    4  A    between atoms: C_7  and  C_8
REMARK    5  A    between atoms: N_10  and  C_11
REMARK    6  A    between atoms: C_11  and  C_12
REMARK    7  A    between atoms: C_15  and  C_16
REMARK    8  A    between atoms: C_16  and  N_17
REMARK    9  A    between atoms: C_18  and  C_20
REMARK                            x       y       z     vdW  Elec       q    Type
REMARK                         _______ _______ _______ _____ _____    ______ ____
ROOT
ATOM      1  C   UNL     1      46.312   4.945  13.084  0.00  0.00    +0.000 A 
ATOM      2  C   UNL     1      46.940   4.832  14.331  0.00  0.00    +0.000 A 
ATOM      3  C   UNL     1      47.861   5.797  14.754  0.00  0.00    +0.000 A 
ATOM      4  C   UNL     1      48.158   6.902  13.946  0.00  0.00    +0.000 A 
ATOM      5  C   UNL     1      47.515   7.022  12.707  0.00  0.00    +0.000 A 
ATOM      6  C   UNL     1      46.594   6.060  12.286  0.00  0.00    +0.000 A 
ENDROOT
BRANCH   1   7
ATOM      7  C   UNL     1      45.349   3.894  12.601  0.00  0.00    +0.000 C 
BRANCH   7  10
ATOM      8  C   UNL     1      44.294   4.395  10.449  0.00  0.00    +0.000 C 
ATOM      9  O   UNL     1      43.364   4.980  10.991  0.00  0.00    +0.000 OA
ATOM     10  N   UNL     1      45.324   3.814  11.161  0.00  0.00    +0.000 N 
ATOM     11  H   UNL     1      45.968   3.183  10.702  0.00  0.00    +0.000 HD
BRANCH   8  15
ATOM     12  N   UNL     1      45.317   2.399   7.617  0.00  0.00    +0.000 NA
ATOM     13  C   UNL     1      45.915   3.678   7.189  0.00  0.00    +0.000 C 
ATOM     14  C   UNL     1      45.797   4.590   8.395  0.00  0.00    +0.000 C 
ATOM     15  C   UNL     1      44.424   4.235   8.945  0.00  0.00    +0.000 C 
ATOM     16  C   UNL     1      44.218   2.777   8.530  0.00  0.00    +0.000 C 
BRANCH  12  17
ATOM     17  C   UNL     1      46.328   1.545   8.279  0.00  0.00    +0.000 C 
BRANCH  17  18
ATOM     18  C   UNL     1      47.089   0.618   7.303  0.00  0.00    +0.000 C 
BRANCH  18  19
ATOM     19  N   UNL     1      47.931   1.379   6.376  0.00  0.00    +0.000 NA
ATOM     20  H   UNL     1      47.333   1.963   5.793  0.00  0.00    +0.000 HD
ATOM     21  H   UNL     1      48.402   0.733   5.741  0.00  0.00    +0.000 HD
ENDBRANCH  18  19
ENDBRANCH  17  18
ENDBRANCH  12  17
ENDBRANCH   8  15
ENDBRANCH   7  10
ENDBRANCH   1   7
BRANCH   4  22
ATOM     22  C   UNL     1      49.183   7.924  14.364  0.00  0.00    +0.000 C 
BRANCH  22  23
ATOM     23  N   UNL     1      50.421   7.295  14.758  0.00  0.00    +0.000 N 
ATOM     24  C   UNL     1      51.536   8.046  15.038  0.00  0.00    +0.000 C 
ATOM     25  O   UNL     1      51.510   9.274  15.013  0.00  0.00    +0.000 OA
ATOM     26  H   UNL     1      50.524   6.303  14.560  0.00  0.00    +0.000 HD
BRANCH  24  27
ATOM     27  C   UNL     1      52.749   7.316  15.424  0.00  0.00    +0.000 A 
ATOM     28  C   UNL     1      53.966   7.655  14.848  0.00  0.00    +0.000 A 
ATOM     29  S   UNL     1      55.281   6.735  15.424  0.00  0.00    +0.000 S 
ATOM     30  C   UNL     1      54.263   5.815  16.430  0.00  0.00    +0.000 A 
ATOM     31  N   UNL     1      54.764   4.804  17.191  0.00  0.00    +0.000 NA
ATOM     32  C   UNL     1      53.877   4.170  17.884  0.00  0.00    +0.000 A 
ATOM     33  N   UNL     1      52.538   4.460  17.890  0.00  0.00    +0.000 N 
ATOM     34  C   UNL     1      51.992   5.490  17.161  0.00  0.00    +0.000 A 
ATOM     35  O   UNL     1      50.794   5.753  17.227  0.00  0.00    +0.000 OA
ATOM     36  C   UNL     1      52.943   6.221  16.348  0.00  0.00    +0.000 A 
ATOM     37  H   UNL     1      51.898   3.933  18.467  0.00  0.00    +0.000 HD
ENDBRANCH  24  27
ENDBRANCH  22  23
ENDBRANCH   4  22
TORSDOF 9
ENDMDL
MODEL 9
REMARK VINA RESULT:    -5.940      4.204      8.873
REMARK INTER + INTRA:          -9.953
REMARK INTER:                  -8.016
REMARK INTRA:                  -1.937
REMARK UNBOUND:                -1.061
REMARK  Name = 
REMARK  9 active torsions:
REMARK  status: ('A' for Active; 'I' for Inactive)
REMARK    1  A    between atoms: N_1  and  C_2
REMARK    2  A    between atoms: C_2  and  C_3
REMARK    3  A    between atoms: C_3  and  N_4
REMARK    4  A    between atoms: C_7  and  C_8
REMARK    5  A    between atoms: N_10  and  C_11
REMARK    6  A    between atoms: C_11  and  C_12
REMARK    7  A    between atoms: C_15  and  C_16
REMARK    8  A    between atoms: C_16  and  N_17
REMARK    9  A    between atoms: C_18  and  C_20
REMARK                            x       y       z     vdW  Elec       q    Type
REMARK                         _______ _______ _______ _____ _____    ______ ____
ROOT
ATOM      1  C   UNL     1      50.171   9.466  16.346  0.00  0.00    +0.000 A 
ATOM      2  C   UNL     1      50.351   8.341  15.531  0.00  0.00    +0.000 A 
ATOM      3  C   UNL     1      49.856   8.323  14.221  0.00  0.00    +0.000 A 
ATOM      4  C   UNL     1      49.189   9.438  13.696  0.00  0.00    +0.000 A 
ATOM      5  C   UNL     1      49.026  10.569  14.507  0.00  0.00    +0.000 A 
ATOM      6  C   UNL     1      49.522  10.587  15.813  0.00  0.00    +0.000 A 
ENDROOT
BRANCH   1   7
ATOM      7  C   UNL     1      50.664   9.482  17.767  0.00  0.00    +0.000 C 
BRANCH   7  10
ATOM      8  C   UNL     1      49.570   7.754  19.113  0.00  0.00    +0.000 C 
ATOM      9  O   UNL     1      48.605   8.476  19.336  0.00  0.00    +0.000 OA
ATOM     10  N   UNL     1      50.646   8.164  18.353  0.00  0.00    +0.000 N 
ATOM     11  H   UNL     1      51.500   7.622  18.346  0.00  0.00    +0.000 HD
BRANCH   8  15
ATOM     12  N   UNL     1      49.575   4.196  18.490  0.00  0.00    +0.000 NA
ATOM     13  C   UNL     1      48.692   4.192  19.672  0.00  0.00    +0.000 C 
ATOM     14  C   UNL     1      48.371   5.653  19.927  0.00  0.00    +0.000 C 
ATOM     15  C   UNL     1      49.699   6.338  19.643  0.00  0.00    +0.000 C 
ATOM     16  C   UNL     1      50.379   5.429  18.616  0.00  0.00    +0.000 C 
BRANCH  12  17
ATOM     17  C   UNL     1      48.778   4.170  17.244  0.00  0.00    +0.000 C 
BRANCH  17  18
ATOM     18  C   UNL     1      48.219   2.771  16.895  0.00  0.00    +0.000 C 
BRANCH  18  19
ATOM     19  N   UNL     1      49.056   2.082  15.910  0.00  0.00    +0.000 NA
ATOM     20  H   UNL     1      48.888   1.079  15.979  0.00  0.00    +0.000 HD
ATOM     21  H   UNL     1      50.039   2.221  16.145  0.00  0.00    +0.000 HD
ENDBRANCH  18  19
ENDBRANCH  17  18
ENDBRANCH  12  17
ENDBRANCH   8  15
ENDBRANCH   7  10
ENDBRANCH   1   7
BRANCH   4  22
ATOM     22  C   UNL     1      48.607   9.417  12.307  0.00  0.00    +0.000 C 
BRANCH  22  23
ATOM     23  N   UNL     1      47.817   8.230  12.085  0.00  0.00    +0.000 N 
ATOM     24  C   UNL     1      46.497   8.180  12.457  0.00  0.00    +0.000 C 
ATOM     25  O   UNL     1      45.927   9.154  12.944  0.00  0.00    +0.000 OA
ATOM     26  H   UNL     1      48.319   7.363  11.907  0.00  0.00    +0.000 HD
BRANCH  24  27
ATOM     27  C   UNL     1      45.779   6.928  12.196  0.00  0.00    +0.000 A 
ATOM     28  C   UNL     1      44.638   6.944  11.404  0.00  0.00    +0.000 A 
ATOM     29  S   UNL     1      43.939   5.406  11.173  0.00  0.00    +0.000 S 
ATOM     30  C   UNL     1      45.109   4.668  12.163  0.00  0.00    +0.000 A 
ATOM     31  N   UNL     1      45.065   3.331  12.416  0.00  0.00    +0.000 NA
ATOM     32  C   UNL     1      45.996   2.909  13.206  0.00  0.00    +0.000 A 
ATOM     33  N   UNL     1      46.969   3.699  13.759  0.00  0.00    +0.000 N 
ATOM     34  C   UNL     1      47.071   5.048  13.507  0.00  0.00    +0.000 A 
ATOM     35  O   UNL     1      47.984   5.718  13.981  0.00  0.00    +0.000 OA
ATOM     36  C   UNL     1      46.035   5.577  12.642  0.00  0.00    +0.000 A 
ATOM     37  H   UNL     1      47.678   3.303  14.359  0.00  0.00    +0.000 HD
ENDBRANCH  24  27
ENDBRANCH  22  23
ENDBRANCH   4  22
TORSDOF 9
ENDMDL
