MODEL 1
REMARK VINA RESULT:    -7.804      0.000      0.000
REMARK INTER + INTRA:         -11.755
REMARK INTER:                 -10.541
REMARK INTRA:                  -1.215
REMARK UNBOUND:                -1.215
REMARK  Name = 
REMARK  6 active torsions:
REMARK  status: ('A' for Active; 'I' for Inactive)
REMARK    1  A    between atoms: C_2  and  C_21
REMARK    2  A    between atoms: N_3  and  C_4
REMARK    3  A    between atoms: C_4  and  C_5
REMARK    4  A    between atoms: C_8  and  C_9
REMARK    5  A    between atoms: C_9  and  C_10
REMARK    6  A    between atoms: C_10  and  C_11
REMARK                            x       y       z     vdW  Elec       q    Type
REMARK                         _______ _______ _______ _____ _____    ______ ____
ROOT
ATOM      1  C   UNL     1      48.867   7.109  13.676  0.00  0.00    +0.000 C 
ENDROOT
BRANCH   1   2
ATOM      2  C   UNL     1      47.470   6.611  13.418  0.00  0.00    +0.000 A 
ATOM      3  C   UNL     1      47.143   5.273  13.666  0.00  0.00    +0.000 A 
ATOM      4  C   UNL     1      45.844   4.808  13.454  0.00  0.00    +0.000 A 
ATOM      5  C   UNL     1      44.839   5.670  12.992  0.00  0.00    +0.000 A 
ATOM      6  C   UNL     1      45.175   6.999  12.708  0.00  0.00    +0.000 A 
ATOM      7  C   UNL     1      46.480   7.463  12.913  0.00  0.00    +0.000 A 
BRANCH   5   8
ATOM      8  C   UNL     1      43.423   5.174  12.790  0.00  0.00    +0.000 C 
BRANCH   8   9
ATOM      9  C   UNL     1      43.148   4.817  11.329  0.00  0.00    +0.000 C 
BRANCH   9  10
ATOM     10  C   UNL     1      43.573   3.403  10.965  0.00  0.00    +0.000 C 
ATOM     11  O   UNL     1      43.389   2.462  11.737  0.00  0.00    +0.000 OA
ATOM     12  N   UNL     1      44.173   3.244   9.718  0.00  0.00    +0.000 N 
ATOM     13  C   UNL     1      44.448   1.896   9.221  0.00  0.00    +0.000 C 
ATOM     14  C   UNL     1      45.853   1.791   8.629  0.00  0.00    +0.000 C 
ATOM     15  C   UNL     1      46.125   2.899   7.611  0.00  0.00    +0.000 C 
ATOM     16  C   UNL     1      45.818   4.270   8.207  0.00  0.00    +0.000 C 
ATOM     17  C   UNL     1      44.395   4.321   8.751  0.00  0.00    +0.000 C 
ENDBRANCH   9  10
ENDBRANCH   8   9
ENDBRANCH   5   8
ENDBRANCH   1   2
BRANCH   1  20
ATOM     18  O   UNL     1      48.343   8.828  15.838  0.00  0.00    +0.000 OA
ATOM     19  C   UNL     1      48.938   7.775  16.049  0.00  0.00    +0.000 C 
ATOM     20  N   UNL     1      49.263   6.900  15.046  0.00  0.00    +0.000 N 
ATOM     21  H   UNL     1      49.610   5.977  15.278  0.00  0.00    +0.000 HD
BRANCH  19  22
ATOM     22  C   UNL     1      49.388   7.415  17.399  0.00  0.00    +0.000 A 
ATOM     23  C   UNL     1      50.233   8.272  18.092  0.00  0.00    +0.000 A 
ATOM     24  S   UNL     1      50.643   7.716  19.652  0.00  0.00    +0.000 S 
ATOM     25  C   UNL     1      49.675   6.330  19.471  0.00  0.00    +0.000 A 
ATOM     26  N   UNL     1      49.540   5.436  20.488  0.00  0.00    +0.000 NA
ATOM     27  C   UNL     1      48.738   4.454  20.230  0.00  0.00    +0.000 A 
ATOM     28  N   UNL     1      48.079   4.276  19.042  0.00  0.00    +0.000 N 
ATOM     29  C   UNL     1      48.259   5.101  17.958  0.00  0.00    +0.000 A 
ATOM     30  O   UNL     1      47.786   4.823  16.862  0.00  0.00    +0.000 OA
ATOM     31  C   UNL     1      49.087   6.266  18.220  0.00  0.00    +0.000 A 
ATOM     32  H   UNL     1      47.500   3.462  18.892  0.00  0.00    +0.000 HD
ENDBRANCH  19  22
ENDBRANCH   1  20
TORSDOF 6
ENDMDL
MODEL 2
REMARK VINA RESULT:    -7.345      3.259      3.935
REMARK INTER + INTRA:         -11.136
REMARK INTER:                 -10.111
REMARK INTRA:                  -1.025
REMARK UNBOUND:                -1.215
REMARK  Name = 
REMARK  6 active torsions:
REMARK  status: ('A' for Active; 'I' for Inactive)
REMARK    1  A    between atoms: C_2  and  C_21
REMARK    2  A    between atoms: N_3  and  C_4
REMARK    3  A    between atoms: C_4  and  C_5
REMARK    4  A    between atoms: C_8  and  C_9
REMARK    5  A    between atoms: C_9  and  C_10
REMARK    6  A    between atoms: C_10  and  C_11
REMARK                            x       y       z     vdW  Elec       q    Type
REMARK                         _______ _______ _______ _____ _____    ______ ____
ROOT
ATOM      1  C   UNL     1      48.731   5.494  18.297  0.00  0.00    +0.000 C 
ENDROOT
BRANCH   1   2
ATOM      2  C   UNL     1      48.287   5.479  16.858  0.00  0.00    +0.000 A 
ATOM      3  C   UNL     1      47.501   4.426  16.376  0.00  0.00    +0.000 A 
ATOM      4  C   UNL     1      47.063   4.417  15.050  0.00  0.00    +0.000 A 
ATOM      5  C   UNL     1      47.398   5.460  14.176  0.00  0.00    +0.000 A 
ATOM      6  C   UNL     1      48.216   6.494  14.648  0.00  0.00    +0.000 A 
ATOM      7  C   UNL     1      48.661   6.500  15.975  0.00  0.00    +0.000 A 
BRANCH   5   8
ATOM      8  C   UNL     1      46.899   5.466  12.746  0.00  0.00    +0.000 C 
BRANCH   8   9
ATOM      9  C   UNL     1      45.385   5.270  12.670  0.00  0.00    +0.000 C 
BRANCH   9  10
ATOM     10  C   UNL     1      44.981   3.913  12.115  0.00  0.00    +0.000 C 
ATOM     11  O   UNL     1      44.839   2.938  12.853  0.00  0.00    +0.000 OA
ATOM     12  N   UNL     1      44.783   3.847  10.738  0.00  0.00    +0.000 N 
ATOM     13  C   UNL     1      44.224   2.628  10.151  0.00  0.00    +0.000 C 
ATOM     14  C   UNL     1      44.993   2.203   8.901  0.00  0.00    +0.000 C 
ATOM     15  C   UNL     1      45.151   3.357   7.911  0.00  0.00    +0.000 C 
ATOM     16  C   UNL     1      45.742   4.584   8.598  0.00  0.00    +0.000 C 
ATOM     17  C   UNL     1      44.914   4.977   9.817  0.00  0.00    +0.000 C 
ENDBRANCH   9  10
ENDBRANCH   8   9
ENDBRANCH   5   8
ENDBRANCH   1   2
BRANCH   1  20
ATOM     18  O   UNL     1      51.420   6.256  17.994  0.00  0.00    +0.000 OA
ATOM     19  C   UNL     1      51.167   5.115  18.369  0.00  0.00    +0.000 C 
ATOM     20  N   UNL     1      49.884   4.654  18.507  0.00  0.00    +0.000 N 
ATOM     21  H   UNL     1      49.716   3.767  18.965  0.00  0.00    +0.000 HD
BRANCH  19  22
ATOM     22  C   UNL     1      52.239   4.150  18.642  0.00  0.00    +0.000 A 
ATOM     23  C   UNL     1      53.319   4.527  19.429  0.00  0.00    +0.000 A 
ATOM     24  S   UNL     1      54.463   3.284  19.665  0.00  0.00    +0.000 S 
ATOM     25  C   UNL     1      53.535   2.185  18.756  0.00  0.00    +0.000 A 
ATOM     26  N   UNL     1      53.933   0.893  18.607  0.00  0.00    +0.000 NA
ATOM     27  C   UNL     1      53.112   0.157  17.932  0.00  0.00    +0.000 A 
ATOM     28  N   UNL     1      51.942   0.603  17.376  0.00  0.00    +0.000 N 
ATOM     29  C   UNL     1      51.547   1.920  17.421  0.00  0.00    +0.000 A 
ATOM     30  O   UNL     1      50.585   2.317  16.776  0.00  0.00    +0.000 OA
ATOM     31  C   UNL     1      52.394   2.772  18.237  0.00  0.00    +0.000 A 
ATOM     32  H   UNL     1      51.366  -0.015  16.822  0.00  0.00    +0.000 HD
ENDBRANCH  19  22
ENDBRANCH   1  20
TORSDOF 6
ENDMDL
MODEL 3
REMARK VINA RESULT:    -7.112      3.066      8.588
REMARK INTER + INTRA:         -10.821
REMARK INTER:                  -9.380
REMARK INTRA:                  -1.440
REMARK UNBOUND:                -1.215
REMARK  Name = 
REMARK  6 active torsions:
REMARK  status: ('A' for Active; 'I' for Inactive)
REMARK    1  A    between atoms: C_2  and  C_21
REMARK    2  A    between atoms: N_3  and  C_4
REMARK    3  A    between atoms: C_4  and  C_5
REMARK    4  A    between atoms: C_8  and  C_9
REMARK    5  A    between atoms: C_9  and  C_10
REMARK    6  A    between atoms: C_10  and  C_11
REMARK                            x       y       z     vdW  Elec       q    Type
REMARK                         _______ _______ _______ _____ _____    ______ ____
ROOT
ATOM      1  C   UNL     1      47.452   7.993  11.801  0.00  0.00    +0.000 C 
ENDROOT
BRANCH   1   2
ATOM      2  C   UNL     1      48.408   7.969  12.964  0.00  0.00    +0.000 A 
ATOM      3  C   UNL     1      47.922   8.025  14.276  0.00  0.00    +0.000 A 
ATOM      4  C   UNL     1      48.799   7.977  15.361  0.00  0.00    +0.000 A 
ATOM      5  C   UNL     1      50.182   7.869  15.161  0.00  0.00    +0.000 A 
ATOM      6  C   UNL     1      50.671   7.852  13.849  0.00  0.00    +0.000 A 
ATOM      7  C   UNL     1      49.792   7.908  12.761  0.00  0.00    +0.000 A 
BRANCH   5   8
ATOM      8  C   UNL     1      51.132   7.789  16.338  0.00  0.00    +0.000 C 
BRANCH   8   9
ATOM      9  C   UNL     1      50.535   6.993  17.498  0.00  0.00    +0.000 C 
BRANCH   9  10
ATOM     10  C   UNL     1      50.764   5.494  17.381  0.00  0.00    +0.000 C 
ATOM     11  O   UNL     1      51.862   5.039  17.060  0.00  0.00    +0.000 OA
ATOM     12  N   UNL     1      49.667   4.682  17.659  0.00  0.00    +0.000 N 
ATOM     13  C   UNL     1      49.850   3.233  17.740  0.00  0.00    +0.000 C 
ATOM     14  C   UNL     1      48.755   2.484  16.980  0.00  0.00    +0.000 C 
ATOM     15  C   UNL     1      47.359   2.960  17.380  0.00  0.00    +0.000 C 
ATOM     16  C   UNL     1      47.250   4.478  17.264  0.00  0.00    +0.000 C 
ATOM     17  C   UNL     1      48.347   5.166  18.067  0.00  0.00    +0.000 C 
ENDBRANCH   9  10
ENDBRANCH   8   9
ENDBRANCH   5   8
ENDBRANCH   1   2
BRANCH   1  20
ATOM     18  O   UNL     1      44.708   7.488  12.140  0.00  0.00    +0.000 OA
ATOM     19  C   UNL     1      45.439   6.570  11.781  0.00  0.00    +0.000 C 
ATOM     20  N   UNL     1      46.792   6.724  11.627  0.00  0.00    +0.000 N 
ATOM     21  H   UNL     1      47.332   5.992  11.181  0.00  0.00    +0.000 HD
BRANCH  19  22
ATOM     22  C   UNL     1      44.905   5.222  11.545  0.00  0.00    +0.000 A 
ATOM     23  C   UNL     1      44.221   4.568  12.561  0.00  0.00    +0.000 A 
ATOM     24  S   UNL     1      43.649   3.023  12.116  0.00  0.00    +0.000 S 
ATOM     25  C   UNL     1      44.262   3.191  10.539  0.00  0.00    +0.000 A 
ATOM     26  N   UNL     1      44.065   2.220   9.607  0.00  0.00    +0.000 NA
ATOM     27  C   UNL     1      44.544   2.498   8.438  0.00  0.00    +0.000 A 
ATOM     28  N   UNL     1      45.219   3.649   8.125  0.00  0.00    +0.000 N 
ATOM     29  C   UNL     1      45.522   4.613   9.057  0.00  0.00    +0.000 A 
ATOM     30  O   UNL     1      46.267   5.547   8.785  0.00  0.00    +0.000 OA
ATOM     31  C   UNL     1      44.938   4.387  10.367  0.00  0.00    +0.000 A 
ATOM     32  H   UNL     1      45.605   3.785   7.203  0.00  0.00    +0.000 HD
ENDBRANCH  19  22
ENDBRANCH   1  20
TORSDOF 6
ENDMDL
MODEL 4
REMARK VINA RESULT:    -7.026      5.154      9.650
REMARK INTER + INTRA:         -10.704
REMARK INTER:                  -9.851
REMARK INTRA:                  -0.854
REMARK UNBOUND:                -1.215
REMARK  Name = 
REMARK  6 active torsions:
REMARK  status: ('A' for Active; 'I' for Inactive)
REMARK    1  A    between atoms: C_2  and  C_21
REMARK    2  A    between atoms: N_3  and  C_4
REMARK    3  A    between atoms: C_4  and  C_5
REMARK    4  A    between atoms: C_8  and  C_9
REMARK    5  A    between atoms: C_9  and  C_10
REMARK    6  A    between atoms: C_10  and  C_11
REMARK                            x       y       z     vdW  Elec       q    Type
REMARK                         _______ _______ _______ _____ _____    ______ ____
ROOT
ATOM      1  C   UNL     1      47.274   3.296  16.811  0.00  0.00    +0.000 C 
ENDROOT
BRANCH   1   2
ATOM      2  C   UNL     1      48.726   3.424  17.189  0.00  0.00    +0.000 A 
ATOM      3  C   UNL     1      49.587   2.328  17.057  0.00  0.00    +0.000 A 
ATOM      4  C   UNL     1      50.939   2.444  17.381  0.00  0.00    +0.000 A 
ATOM      5  C   UNL     1      51.465   3.660  17.842  0.00  0.00    +0.000 A 
ATOM      6  C   UNL     1      50.596   4.745  18.010  0.00  0.00    +0.000 A 
ATOM      7  C   UNL     1      49.238   4.626  17.693  0.00  0.00    +0.000 A 
BRANCH   5   8
ATOM      8  C   UNL     1      52.938   3.795  18.166  0.00  0.00    +0.000 C 
BRANCH   8   9
ATOM      9  C   UNL     1      53.761   2.656  17.566  0.00  0.00    +0.000 C 
BRANCH   9  10
ATOM     10  C   UNL     1      54.162   1.600  18.584  0.00  0.00    +0.000 C 
ATOM     11  O   UNL     1      54.279   1.877  19.778  0.00  0.00    +0.000 OA
ATOM     12  N   UNL     1      54.383   0.319  18.085  0.00  0.00    +0.000 N 
ATOM     13  C   UNL     1      54.599  -0.787  19.019  0.00  0.00    +0.000 C 
ATOM     14  C   UNL     1      55.775  -1.664  18.590  0.00  0.00    +0.000 C 
ATOM     15  C   UNL     1      55.658  -2.095  17.128  0.00  0.00    +0.000 C 
ATOM     16  C   UNL     1      55.439  -0.887  16.222  0.00  0.00    +0.000 C 
ATOM     17  C   UNL     1      54.236  -0.072  16.682  0.00  0.00    +0.000 C 
ENDBRANCH   9  10
ENDBRANCH   8   9
ENDBRANCH   5   8
ENDBRANCH   1   2
BRANCH   1  20
ATOM     18  O   UNL     1      47.231   3.027  14.013  0.00  0.00    +0.000 OA
ATOM     19  C   UNL     1      46.855   4.084  14.512  0.00  0.00    +0.000 C 
ATOM     20  N   UNL     1      46.879   4.308  15.864  0.00  0.00    +0.000 N 
ATOM     21  H   UNL     1      46.417   5.125  16.245  0.00  0.00    +0.000 HD
BRANCH  19  22
ATOM     22  C   UNL     1      46.405   5.202  13.674  0.00  0.00    +0.000 A 
ATOM     23  C   UNL     1      47.267   6.261  13.421  0.00  0.00    +0.000 A 
ATOM     24  S   UNL     1      46.596   7.464  12.414  0.00  0.00    +0.000 S 
ATOM     25  C   UNL     1      45.145   6.592  12.248  0.00  0.00    +0.000 A 
ATOM     26  N   UNL     1      44.141   7.053  11.454  0.00  0.00    +0.000 NA
ATOM     27  C   UNL     1      43.116   6.269  11.384  0.00  0.00    +0.000 A 
ATOM     28  N   UNL     1      42.995   5.079  12.052  0.00  0.00    +0.000 N 
ATOM     29  C   UNL     1      43.943   4.621  12.937  0.00  0.00    +0.000 A 
ATOM     30  O   UNL     1      43.733   3.641  13.641  0.00  0.00    +0.000 OA
ATOM     31  C   UNL     1      45.152   5.424  12.991  0.00  0.00    +0.000 A 
ATOM     32  H   UNL     1      42.148   4.535  11.986  0.00  0.00    +0.000 HD
ENDBRANCH  19  22
ENDBRANCH   1  20
TORSDOF 6
ENDMDL
MODEL 5
REMARK VINA RESULT:    -6.928      3.214      8.909
REMARK INTER + INTRA:         -10.572
REMARK INTER:                  -8.922
REMARK INTRA:                  -1.650
REMARK UNBOUND:                -1.215
REMARK  Name = 
REMARK  6 active torsions:
REMARK  status: ('A' for Active; 'I' for Inactive)
REMARK    1  A    between atoms: C_2  and  C_21
REMARK    2  A    between atoms: N_3  and  C_4
REMARK    3  A    between atoms: C_4  and  C_5
REMARK    4  A    between atoms: C_8  and  C_9
REMARK    5  A    between atoms: C_9  and  C_10
REMARK    6  A    between atoms: C_10  and  C_11
REMARK                            x       y       z     vdW  Elec       q    Type
REMARK                         _______ _______ _______ _____ _____    ______ ____
ROOT
ATOM      1  C   UNL     1      47.326   3.472  16.544  0.00  0.00    +0.000 C 
ENDROOT
BRANCH   1   2
ATOM      2  C   UNL     1      48.106   4.149  17.639  0.00  0.00    +0.000 A 
ATOM      3  C   UNL     1      49.474   3.897  17.788  0.00  0.00    +0.000 A 
ATOM      4  C   UNL     1      50.210   4.538  18.786  0.00  0.00    +0.000 A 
ATOM      5  C   UNL     1      49.597   5.450  19.657  0.00  0.00    +0.000 A 
ATOM      6  C   UNL     1      48.220   5.673  19.532  0.00  0.00    +0.000 A 
ATOM      7  C   UNL     1      47.480   5.023  18.537  0.00  0.00    +0.000 A 
BRANCH   5   8
ATOM      8  C   UNL     1      50.400   6.169  20.720  0.00  0.00    +0.000 C 
BRANCH   8   9
ATOM      9  C   UNL     1      51.126   7.390  20.157  0.00  0.00    +0.000 C 
BRANCH   9  10
ATOM     10  C   UNL     1      50.204   8.569  19.888  0.00  0.00    +0.000 C 
ATOM     11  O   UNL     1      49.779   9.269  20.807  0.00  0.00    +0.000 OA
ATOM     12  N   UNL     1      49.878   8.801  18.554  0.00  0.00    +0.000 N 
ATOM     13  C   UNL     1      49.143  10.015  18.197  0.00  0.00    +0.000 C 
ATOM     14  C   UNL     1      48.001   9.715  17.225  0.00  0.00    +0.000 C 
ATOM     15  C   UNL     1      48.478   8.897  16.025  0.00  0.00    +0.000 C 
ATOM     16  C   UNL     1      49.229   7.650  16.482  0.00  0.00    +0.000 C 
ATOM     17  C   UNL     1      50.372   8.017  17.421  0.00  0.00    +0.000 C 
ENDBRANCH   9  10
ENDBRANCH   8   9
ENDBRANCH   5   8
ENDBRANCH   1   2
BRANCH   1  20
ATOM     18  O   UNL     1      47.392   3.345  13.736  0.00  0.00    +0.000 OA
ATOM     19  C   UNL     1      46.796   4.274  14.273  0.00  0.00    +0.000 C 
ATOM     20  N   UNL     1      46.747   4.428  15.634  0.00  0.00    +0.000 N 
ATOM     21  H   UNL     1      46.118   5.111  16.039  0.00  0.00    +0.000 HD
BRANCH  19  22
ATOM     22  C   UNL     1      46.138   5.317  13.475  0.00  0.00    +0.000 A 
ATOM     23  C   UNL     1      46.803   6.509  13.221  0.00  0.00    +0.000 A 
ATOM     24  S   UNL     1      45.909   7.601  12.264  0.00  0.00    +0.000 S 
ATOM     25  C   UNL     1      44.617   6.504  12.121  0.00  0.00    +0.000 A 
ATOM     26  N   UNL     1      43.525   6.805  11.369  0.00  0.00    +0.000 NA
ATOM     27  C   UNL     1      42.642   5.863  11.312  0.00  0.00    +0.000 A 
ATOM     28  N   UNL     1      42.743   4.658  11.955  0.00  0.00    +0.000 N 
ATOM     29  C   UNL     1      43.783   4.348  12.800  0.00  0.00    +0.000 A 
ATOM     30  O   UNL     1      43.762   3.334  13.487  0.00  0.00    +0.000 OA
ATOM     31  C   UNL     1      44.843   5.340  12.837  0.00  0.00    +0.000 A 
ATOM     32  H   UNL     1      41.995   3.981  11.903  0.00  0.00    +0.000 HD
ENDBRANCH  19  22
ENDBRANCH   1  20
TORSDOF 6
ENDMDL
MODEL 6
REMARK VINA RESULT:    -6.903      3.448      4.969
REMARK INTER + INTRA:         -10.539
REMARK INTER:                  -9.536
REMARK INTRA:                  -1.002
REMARK UNBOUND:                -1.215
REMARK  Name = 
REMARK  6 active torsions:
REMARK  status: ('A' for Active; 'I' for Inactive)
REMARK    1  A    between atoms: C_2  and  C_21
REMARK    2  A    between atoms: N_3  and  C_4
REMARK    3  A    between atoms: C_4  and  C_5
REMARK    4  A    between atoms: C_8  and  C_9
REMARK    5  A    between atoms: C_9  and  C_10
REMARK    6  A    between atoms: C_10  and  C_11
REMARK                            x       y       z     vdW  Elec       q    Type
REMARK                         _______ _______ _______ _____ _____    ______ ____
ROOT
ATOM      1  C   UNL     1      47.914   3.549  17.308  0.00  0.00    +0.000 C 
ENDROOT
BRANCH   1   2
ATOM      2  C   UNL     1      47.914   4.564  16.196  0.00  0.00    +0.000 A 
ATOM      3  C   UNL     1      47.189   4.323  15.023  0.00  0.00    +0.000 A 
ATOM      4  C   UNL     1      47.163   5.269  13.997  0.00  0.00    +0.000 A 
ATOM      5  C   UNL     1      47.858   6.480  14.120  0.00  0.00    +0.000 A 
ATOM      6  C   UNL     1      48.614   6.705  15.277  0.00  0.00    +0.000 A 
ATOM      7  C   UNL     1      48.647   5.752  16.302  0.00  0.00    +0.000 A 
BRANCH   5   8
ATOM      8  C   UNL     1      47.808   7.520  13.020  0.00  0.00    +0.000 C 
BRANCH   8   9
ATOM      9  C   UNL     1      47.089   6.999  11.777  0.00  0.00    +0.000 C 
BRANCH   9  10
ATOM     10  C   UNL     1      45.584   7.211  11.817  0.00  0.00    +0.000 C 
ATOM     11  O   UNL     1      45.100   8.284  12.178  0.00  0.00    +0.000 OA
ATOM     12  N   UNL     1      44.800   6.129  11.425  0.00  0.00    +0.000 N 
ATOM     13  C   UNL     1      43.356   6.309  11.268  0.00  0.00    +0.000 C 
ATOM     14  C   UNL     1      42.574   5.164  11.913  0.00  0.00    +0.000 C 
ATOM     15  C   UNL     1      43.087   3.799  11.456  0.00  0.00    +0.000 C 
ATOM     16  C   UNL     1      44.595   3.691  11.657  0.00  0.00    +0.000 C 
ATOM     17  C   UNL     1      45.320   4.840  10.965  0.00  0.00    +0.000 C 
ENDBRANCH   9  10
ENDBRANCH   8   9
ENDBRANCH   5   8
ENDBRANCH   1   2
BRANCH   1  20
ATOM     18  O   UNL     1      49.669   1.774  16.014  0.00  0.00    +0.000 OA
ATOM     19  C   UNL     1      50.057   2.364  17.018  0.00  0.00    +0.000 C 
ATOM     20  N   UNL     1      49.252   3.218  17.727  0.00  0.00    +0.000 N 
ATOM     21  H   UNL     1      49.655   3.801  18.451  0.00  0.00    +0.000 HD
BRANCH  19  22
ATOM     22  C   UNL     1      51.406   2.144  17.555  0.00  0.00    +0.000 A 
ATOM     23  C   UNL     1      51.961   0.872  17.514  0.00  0.00    +0.000 A 
ATOM     24  S   UNL     1      53.539   0.793  18.158  0.00  0.00    +0.000 S 
ATOM     25  C   UNL     1      53.551   2.463  18.476  0.00  0.00    +0.000 A 
ATOM     26  N   UNL     1      54.655   3.067  18.994  0.00  0.00    +0.000 NA
ATOM     27  C   UNL     1      54.541   4.346  19.143  0.00  0.00    +0.000 A 
ATOM     28  N   UNL     1      53.418   5.071  18.841  0.00  0.00    +0.000 N 
ATOM     29  C   UNL     1      52.250   4.490  18.405  0.00  0.00    +0.000 A 
ATOM     30  O   UNL     1      51.217   5.141  18.302  0.00  0.00    +0.000 OA
ATOM     31  C   UNL     1      52.349   3.065  18.144  0.00  0.00    +0.000 A 
ATOM     32  H   UNL     1      53.381   6.063  19.022  0.00  0.00    +0.000 HD
ENDBRANCH  19  22
ENDBRANCH   1  20
TORSDOF 6
ENDMDL
MODEL 7
REMARK VINA RESULT:    -6.788      3.100      7.942
REMARK INTER + INTRA:         -10.384
REMARK INTER:                  -9.108
REMARK INTRA:                  -1.275
REMARK UNBOUND:                -1.215
REMARK  Name = 
REMARK  6 active torsions:
REMARK  status: ('A' for Active; 'I' for Inactive)
REMARK    1  A    between atoms: C_2  and  C_21
REMARK    2  A    between atoms: N_3  and  C_4
REMARK    3  A    between atoms: C_4  and  C_5
REMARK    4  A    between atoms: C_8  and  C_9
REMARK    5  A    between atoms: C_9  and  C_10
REMARK    6  A    between atoms: C_10  and  C_11
REMARK                            x       y       z     vdW  Elec       q    Type
REMARK                         _______ _______ _______ _____ _____    ______ ____
ROOT
ATOM      1  C   UNL     1      48.861   8.303  13.314  0.00  0.00    +0.000 C 
ENDROOT
BRANCH   1   2
ATOM      2  C   UNL     1      48.979   8.239  14.814  0.00  0.00    +0.000 A 
ATOM      3  C   UNL     1      49.953   7.429  15.409  0.00  0.00    +0.000 A 
ATOM      4  C   UNL     1      50.087   7.383  16.798  0.00  0.00    +0.000 A 
ATOM      5  C   UNL     1      49.252   8.147  17.625  0.00  0.00    +0.000 A 
ATOM      6  C   UNL     1      48.252   8.928  17.031  0.00  0.00    +0.000 A 
ATOM      7  C   UNL     1      48.113   8.968  15.639  0.00  0.00    +0.000 A 
BRANCH   5   8
ATOM      8  C   UNL     1      49.415   8.120  19.130  0.00  0.00    +0.000 C 
BRANCH   8   9
ATOM      9  C   UNL     1      48.475   7.109  19.786  0.00  0.00    +0.000 C 
BRANCH   9  10
ATOM     10  C   UNL     1      49.011   5.687  19.766  0.00  0.00    +0.000 C 
ATOM     11  O   UNL     1      49.927   5.339  20.511  0.00  0.00    +0.000 OA
ATOM     12  N   UNL     1      48.407   4.815  18.863  0.00  0.00    +0.000 N 
ATOM     13  C   UNL     1      48.743   3.392  18.906  0.00  0.00    +0.000 C 
ATOM     14  C   UNL     1      48.996   2.832  17.506  0.00  0.00    +0.000 C 
ATOM     15  C   UNL     1      47.860   3.177  16.543  0.00  0.00    +0.000 C 
ATOM     16  C   UNL     1      47.575   4.675  16.555  0.00  0.00    +0.000 C 
ATOM     17  C   UNL     1      47.300   5.166  17.972  0.00  0.00    +0.000 C 
ENDBRANCH   9  10
ENDBRANCH   8   9
ENDBRANCH   5   8
ENDBRANCH   1   2
BRANCH   1  20
ATOM     18  O   UNL     1      48.083   5.621  12.991  0.00  0.00    +0.000 OA
ATOM     19  C   UNL     1      47.264   6.507  12.762  0.00  0.00    +0.000 C 
ATOM     20  N   UNL     1      47.574   7.838  12.861  0.00  0.00    +0.000 N 
ATOM     21  H   UNL     1      46.835   8.530  12.819  0.00  0.00    +0.000 HD
BRANCH  19  22
ATOM     22  C   UNL     1      45.904   6.186  12.311  0.00  0.00    +0.000 A 
ATOM     23  C   UNL     1      45.105   7.187  11.774  0.00  0.00    +0.000 A 
ATOM     24  S   UNL     1      43.565   6.643  11.281  0.00  0.00    +0.000 S 
ATOM     25  C   UNL     1      43.927   5.043  11.731  0.00  0.00    +0.000 A 
ATOM     26  N   UNL     1      43.031   4.041  11.522  0.00  0.00    +0.000 NA
ATOM     27  C   UNL     1      43.454   2.869  11.869  0.00  0.00    +0.000 A 
ATOM     28  N   UNL     1      44.680   2.614  12.425  0.00  0.00    +0.000 N 
ATOM     29  C   UNL     1      45.577   3.607  12.740  0.00  0.00    +0.000 A 
ATOM     30  O   UNL     1      46.591   3.366  13.385  0.00  0.00    +0.000 OA
ATOM     31  C   UNL     1      45.185   4.934  12.297  0.00  0.00    +0.000 A 
ATOM     32  H   UNL     1      44.931   1.680  12.713  0.00  0.00    +0.000 HD
ENDBRANCH  19  22
ENDBRANCH   1  20
TORSDOF 6
ENDMDL
MODEL 8
REMARK VINA RESULT:    -6.773      3.249      8.169
REMARK INTER + INTRA:         -10.363
REMARK INTER:                  -8.716
REMARK INTRA:                  -1.647
REMARK UNBOUND:                -1.215
REMARK  Name = 
REMARK  6 active torsions:
REMARK  status: ('A' for Active; 'I' for Inactive)
REMARK    1  A    between atoms: C_2  and  C_21
REMARK    2  A    between atoms: N_3  and  C_4
REMARK    3  A    between atoms: C_4  and  C_5
REMARK    4  A    between atoms: C_8  and  C_9
REMARK    5  A    between atoms: C_9  and  C_10
REMARK    6  A    between atoms: C_10  and  C_11
REMARK                            x       y       z     vdW  Elec       q    Type
REMARK                         _______ _______ _______ _____ _____    ______ ____
ROOT
ATOM      1  C   UNL     1      48.350   8.532  14.407  0.00  0.00    +0.000 C 
ENDROOT
BRANCH   1   2
ATOM      2  C   UNL     1      49.223   8.004  15.513  0.00  0.00    +0.000 A 
ATOM      3  C   UNL     1      50.492   7.488  15.223  0.00  0.00    +0.000 A 
ATOM      4  C   UNL     1      51.318   7.020  16.246  0.00  0.00    +0.000 A 
ATOM      5  C   UNL     1      50.898   7.058  17.583  0.00  0.00    +0.000 A 
ATOM      6  C   UNL     1      49.614   7.537  17.869  0.00  0.00    +0.000 A 
ATOM      7  C   UNL     1      48.782   8.000  16.843  0.00  0.00    +0.000 A 
BRANCH   5   8
ATOM      8  C   UNL     1      51.805   6.576  18.696  0.00  0.00    +0.000 C 
BRANCH   8   9
ATOM      9  C   UNL     1      51.278   5.299  19.348  0.00  0.00    +0.000 C 
BRANCH   9  10
ATOM     10  C   UNL     1      51.073   4.159  18.362  0.00  0.00    +0.000 C 
ATOM     11  O   UNL     1      52.022   3.661  17.756  0.00  0.00    +0.000 OA
ATOM     12  N   UNL     1      49.762   3.721  18.193  0.00  0.00    +0.000 N 
ATOM     13  C   UNL     1      49.504   2.519  17.400  0.00  0.00    +0.000 C 
ATOM     14  C   UNL     1      48.342   2.725  16.429  0.00  0.00    +0.000 C 
ATOM     15  C   UNL     1      47.106   3.285  17.133  0.00  0.00    +0.000 C 
ATOM     16  C   UNL     1      47.458   4.536  17.932  0.00  0.00    +0.000 C 
ATOM     17  C   UNL     1      48.600   4.259  18.903  0.00  0.00    +0.000 C 
ENDBRANCH   9  10
ENDBRANCH   8   9
ENDBRANCH   5   8
ENDBRANCH   1   2
BRANCH   1  20
ATOM     18  O   UNL     1      48.718   6.322  12.709  0.00  0.00    +0.000 OA
ATOM     19  C   UNL     1      47.613   6.504  13.213  0.00  0.00    +0.000 C 
ATOM     20  N   UNL     1      47.342   7.576  14.021  0.00  0.00    +0.000 N 
ATOM     21  H   UNL     1      46.472   7.606  14.540  0.00  0.00    +0.000 HD
BRANCH  19  22
ATOM     22  C   UNL     1      46.491   5.601  12.928  0.00  0.00    +0.000 A 
ATOM     23  C   UNL     1      46.575   4.264  13.295  0.00  0.00    +0.000 A 
ATOM     24  S   UNL     1      45.180   3.360  12.912  0.00  0.00    +0.000 S 
ATOM     25  C   UNL     1      44.399   4.732  12.279  0.00  0.00    +0.000 A 
ATOM     26  N   UNL     1      43.122   4.656  11.817  0.00  0.00    +0.000 NA
ATOM     27  C   UNL     1      42.636   5.782  11.407  0.00  0.00    +0.000 A 
ATOM     28  N   UNL     1      43.320   6.969  11.398  0.00  0.00    +0.000 N 
ATOM     29  C   UNL     1      44.640   7.073  11.767  0.00  0.00    +0.000 A 
ATOM     30  O   UNL     1      45.269   8.110  11.591  0.00  0.00    +0.000 OA
ATOM     31  C   UNL     1      45.210   5.854  12.312  0.00  0.00    +0.000 A 
ATOM     32  H   UNL     1      42.895   7.805  11.024  0.00  0.00    +0.000 HD
ENDBRANCH  19  22
ENDBRANCH   1  20
TORSDOF 6
ENDMDL
MODEL 9
REMARK VINA RESULT:    -6.749      2.471      3.121
REMARK INTER + INTRA:         -10.331
REMARK INTER:                  -9.353
REMARK INTRA:                  -0.978
REMARK UNBOUND:                -1.215
REMARK  Name = 
REMARK  6 active torsions:
REMARK  status: ('A' for Active; 'I' for Inactive)
REMARK    1  A    between atoms: C_2  and  C_21
REMARK    2  A    between atoms: N_3  and  C_4
REMARK    3  A    between atoms: C_4  and  C_5
REMARK    4  A    between atoms: C_8  and  C_9
REMARK    5  A    between atoms: C_9  and  C_10
REMARK    6  A    between atoms: C_10  and  C_11
REMARK                            x       y       z     vdW  Elec       q    Type
REMARK                         _______ _______ _______ _____ _____    ______ ____
ROOT
ATOM      1  C   UNL     1      49.222   7.904  13.159  0.00  0.00    +0.000 C 
ENDROOT
BRANCH   1   2
ATOM      2  C   UNL     1      47.880   7.275  12.894  0.00  0.00    +0.000 A 
ATOM      3  C   UNL     1      46.937   7.937  12.100  0.00  0.00    +0.000 A 
ATOM      4  C   UNL     1      45.699   7.351  11.828  0.00  0.00    +0.000 A 
ATOM      5  C   UNL     1      45.376   6.087  12.342  0.00  0.00    +0.000 A 
ATOM      6  C   UNL     1      46.304   5.442  13.168  0.00  0.00    +0.000 A 
ATOM      7  C   UNL     1      47.541   6.033  13.447  0.00  0.00    +0.000 A 
BRANCH   5   8
ATOM      8  C   UNL     1      44.045   5.437  12.024  0.00  0.00    +0.000 C 
BRANCH   8   9
ATOM      9  C   UNL     1      43.970   4.976  10.569  0.00  0.00    +0.000 C 
BRANCH   9  10
ATOM     10  C   UNL     1      44.266   3.496  10.390  0.00  0.00    +0.000 C 
ATOM     11  O   UNL     1      44.058   2.689  11.296  0.00  0.00    +0.000 OA
ATOM     12  N   UNL     1      44.780   3.117   9.152  0.00  0.00    +0.000 N 
ATOM     13  C   UNL     1      44.926   1.695   8.841  0.00  0.00    +0.000 C 
ATOM     14  C   UNL     1      46.283   1.395   8.205  0.00  0.00    +0.000 C 
ATOM     15  C   UNL     1      46.577   2.326   7.028  0.00  0.00    +0.000 C 
ATOM     16  C   UNL     1      46.408   3.786   7.436  0.00  0.00    +0.000 C 
ATOM     17  C   UNL     1      45.026   4.028   8.033  0.00  0.00    +0.000 C 
ENDBRANCH   9  10
ENDBRANCH   8   9
ENDBRANCH   5   8
ENDBRANCH   1   2
BRANCH   1  20
ATOM     18  O   UNL     1      49.284   8.385  15.928  0.00  0.00    +0.000 OA
ATOM     19  C   UNL     1      49.924   7.439  15.477  0.00  0.00    +0.000 C 
ATOM     20  N   UNL     1      49.975   7.159  14.137  0.00  0.00    +0.000 N 
ATOM     21  H   UNL     1      50.381   6.285  13.822  0.00  0.00    +0.000 HD
BRANCH  19  22
ATOM     22  C   UNL     1      50.726   6.577  16.355  0.00  0.00    +0.000 A 
ATOM     23  C   UNL     1      50.097   5.820  17.334  0.00  0.00    +0.000 A 
ATOM     24  S   UNL     1      51.168   4.860  18.250  0.00  0.00    +0.000 S 
ATOM     25  C   UNL     1      52.506   5.392  17.344  0.00  0.00    +0.000 A 
ATOM     26  N   UNL     1      53.752   4.903  17.587  0.00  0.00    +0.000 NA
ATOM     27  C   UNL     1      54.666   5.359  16.795  0.00  0.00    +0.000 A 
ATOM     28  N   UNL     1      54.450   6.275  15.799  0.00  0.00    +0.000 N 
ATOM     29  C   UNL     1      53.228   6.865  15.580  0.00  0.00    +0.000 A 
ATOM     30  O   UNL     1      53.104   7.797  14.794  0.00  0.00    +0.000 OA
ATOM     31  C   UNL     1      52.148   6.328  16.389  0.00  0.00    +0.000 A 
ATOM     32  H   UNL     1      55.218   6.622  15.243  0.00  0.00    +0.000 HD
ENDBRANCH  19  22
ENDBRANCH   1  20
TORSDOF 6
ENDMDL
