MODEL 1
REMARK VINA RESULT:    -8.955      0.000      0.000
REMARK INTER + INTRA:         -12.183
REMARK INTER:                 -11.572
REMARK INTRA:                  -0.611
REMARK UNBOUND:                -0.611
REMARK  Name = 
REMARK  5 active torsions:
REMARK  status: ('A' for Active; 'I' for Inactive)
REMARK    1  A    between atoms: C_2  and  C_4
REMARK    2  A    between atoms: C_8  and  C_9
REMARK    3  A    between atoms: C_9  and  C_10
REMARK    4  A    between atoms: C_10  and  C_11
REMARK    5  A    between atoms: C_15  and  C_16
REMARK                            x       y       z     vdW  Elec       q    Type
REMARK                         _______ _______ _______ _____ _____    ______ ____
ROOT
ATOM      1  C   UNL     1      43.957   6.558  11.498  0.00  0.00    +0.000 C 
ENDROOT
BRANCH   1   2
ATOM      2  C   UNL     1      43.945   5.109  11.074  0.00  0.00    +0.000 A 
ATOM      3  C   UNL     1      43.138   4.185  11.726  0.00  0.00    +0.000 A 
ATOM      4  N   UNL     1      43.079   2.873  11.407  0.00  0.00    +0.000 NA
ATOM      5  C   UNL     1      43.873   2.451  10.391  0.00  0.00    +0.000 A 
ATOM      6  C   UNL     1      44.740   3.265   9.665  0.00  0.00    +0.000 A 
ATOM      7  C   UNL     1      44.763   4.614  10.049  0.00  0.00    +0.000 A 
BRANCH   6   8
ATOM      8  C   UNL     1      45.574   2.769   8.549  0.00  0.00    +0.000 A 
ATOM      9  C   UNL     1      46.059   3.635   7.551  0.00  0.00    +0.000 A 
ATOM     10  C   UNL     1      46.880   3.170   6.515  0.00  0.00    +0.000 A 
ATOM     11  C   UNL     1      47.240   1.826   6.461  0.00  0.00    +0.000 A 
ATOM     12  C   UNL     1      46.772   0.962   7.438  0.00  0.00    +0.000 A 
ATOM     13  F   UNL     1      47.124  -0.330   7.401  0.00  0.00    +0.000 F 
ATOM     14  C   UNL     1      45.947   1.414   8.463  0.00  0.00    +0.000 A 
ENDBRANCH   6   8
ENDBRANCH   1   2
BRANCH   1  15
ATOM     15  C   UNL     1      45.319   7.244  11.317  0.00  0.00    +0.000 C 
BRANCH  15  20
ATOM     16  C   UNL     1      47.170   5.436  14.102  0.00  0.00    +0.000 A 
ATOM     17  C   UNL     1      48.169   6.370  14.334  0.00  0.00    +0.000 A 
ATOM     18  N   UNL     1      48.286   7.535  13.650  0.00  0.00    +0.000 NA
ATOM     19  C   UNL     1      47.356   7.781  12.702  0.00  0.00    +0.000 A 
ATOM     20  C   UNL     1      46.307   6.918  12.401  0.00  0.00    +0.000 A 
ATOM     21  C   UNL     1      46.213   5.726  13.127  0.00  0.00    +0.000 A 
BRANCH  16  23
ATOM     22  N   UNL     1      46.740   4.278  16.194  0.00  0.00    +0.000 N 
ATOM     23  C   UNL     1      47.155   4.191  14.894  0.00  0.00    +0.000 C 
ATOM     24  O   UNL     1      47.466   3.115  14.399  0.00  0.00    +0.000 OA
ATOM     25  H   UNL     1      46.631   3.399  16.685  0.00  0.00    +0.000 HD
ATOM     26  H   UNL     1      46.230   5.074  16.550  0.00  0.00    +0.000 HD
ENDBRANCH  16  23
ENDBRANCH  15  20
ENDBRANCH   1  15
TORSDOF 5
ENDMDL
MODEL 2
REMARK VINA RESULT:    -8.568      1.981      2.856
REMARK INTER + INTRA:         -11.684
REMARK INTER:                 -10.776
REMARK INTRA:                  -0.908
REMARK UNBOUND:                -0.611
REMARK  Name = 
REMARK  5 active torsions:
REMARK  status: ('A' for Active; 'I' for Inactive)
REMARK    1  A    between atoms: C_2  and  C_4
REMARK    2  A    between atoms: C_8  and  C_9
REMARK    3  A    between atoms: C_9  and  C_10
REMARK    4  A    between atoms: C_10  and  C_11
REMARK    5  A    between atoms: C_15  and  C_16
REMARK                            x       y       z     vdW  Elec       q    Type
REMARK                         _______ _______ _______ _____ _____    ______ ____
ROOT
ATOM      1  C   UNL     1      44.238   6.690  11.390  0.00  0.00    +0.000 C 
ENDROOT
BRANCH   1   2
ATOM      2  C   UNL     1      44.159   5.234  10.998  0.00  0.00    +0.000 A 
ATOM      3  C   UNL     1      43.319   4.361  11.676  0.00  0.00    +0.000 A 
ATOM      4  N   UNL     1      43.200   3.046  11.388  0.00  0.00    +0.000 NA
ATOM      5  C   UNL     1      43.966   2.567  10.376  0.00  0.00    +0.000 A 
ATOM      6  C   UNL     1      44.862   3.326   9.625  0.00  0.00    +0.000 A 
ATOM      7  C   UNL     1      44.947   4.682   9.978  0.00  0.00    +0.000 A 
BRANCH   6   8
ATOM      8  C   UNL     1      45.663   2.770   8.515  0.00  0.00    +0.000 A 
ATOM      9  C   UNL     1      46.203   3.595   7.510  0.00  0.00    +0.000 A 
ATOM     10  C   UNL     1      46.994   3.071   6.479  0.00  0.00    +0.000 A 
ATOM     11  C   UNL     1      47.269   1.707   6.437  0.00  0.00    +0.000 A 
ATOM     12  C   UNL     1      46.747   0.882   7.419  0.00  0.00    +0.000 A 
ATOM     13  F   UNL     1      47.016  -0.430   7.393  0.00  0.00    +0.000 F 
ATOM     14  C   UNL     1      45.950   1.393   8.440  0.00  0.00    +0.000 A 
ENDBRANCH   6   8
ENDBRANCH   1   2
BRANCH   1  15
ATOM     15  C   UNL     1      44.904   6.929  12.753  0.00  0.00    +0.000 C 
BRANCH  15  20
ATOM     16  C   UNL     1      48.484   8.044  12.124  0.00  0.00    +0.000 A 
ATOM     17  C   UNL     1      49.144   6.949  12.661  0.00  0.00    +0.000 A 
ATOM     18  N   UNL     1      48.513   5.883  13.214  0.00  0.00    +0.000 NA
ATOM     19  C   UNL     1      47.162   5.910  13.219  0.00  0.00    +0.000 A 
ATOM     20  C   UNL     1      46.405   6.953  12.695  0.00  0.00    +0.000 A 
ATOM     21  C   UNL     1      47.087   8.035  12.128  0.00  0.00    +0.000 A 
BRANCH  16  23
ATOM     22  N   UNL     1      50.603   8.926  11.329  0.00  0.00    +0.000 N 
ATOM     23  C   UNL     1      49.277   9.157  11.568  0.00  0.00    +0.000 C 
ATOM     24  O   UNL     1      48.762  10.234  11.296  0.00  0.00    +0.000 OA
ATOM     25  H   UNL     1      51.102   9.662  10.845  0.00  0.00    +0.000 HD
ATOM     26  H   UNL     1      50.993   7.995  11.284  0.00  0.00    +0.000 HD
ENDBRANCH  16  23
ENDBRANCH  15  20
ENDBRANCH   1  15
TORSDOF 5
ENDMDL
MODEL 3
REMARK VINA RESULT:    -8.547      3.667      6.975
REMARK INTER + INTRA:         -11.656
REMARK INTER:                 -10.872
REMARK INTRA:                  -0.784
REMARK UNBOUND:                -0.611
REMARK  Name = 
REMARK  5 active torsions:
REMARK  status: ('A' for Active; 'I' for Inactive)
REMARK    1  A    between atoms: C_2  and  C_4
REMARK    2  A    between atoms: C_8  and  C_9
REMARK    3  A    between atoms: C_9  and  C_10
REMARK    4  A    between atoms: C_10  and  C_11
REMARK    5  A    between atoms: C_15  and  C_16
REMARK                            x       y       z     vdW  Elec       q    Type
REMARK                         _______ _______ _______ _____ _____    ______ ____
ROOT
ATOM      1  C   UNL     1      44.458   2.919  11.747  0.00  0.00    +0.000 C 
ENDROOT
BRANCH   1   2
ATOM      2  C   UNL     1      45.466   3.833  12.403  0.00  0.00    +0.000 A 
ATOM      3  C   UNL     1      46.411   3.329  13.286  0.00  0.00    +0.000 A 
ATOM      4  N   UNL     1      47.339   4.084  13.915  0.00  0.00    +0.000 NA
ATOM      5  C   UNL     1      47.322   5.416  13.661  0.00  0.00    +0.000 A 
ATOM      6  C   UNL     1      46.420   6.055  12.812  0.00  0.00    +0.000 A 
ATOM      7  C   UNL     1      45.476   5.219  12.196  0.00  0.00    +0.000 A 
BRANCH   6   8
ATOM      8  C   UNL     1      46.448   7.509  12.545  0.00  0.00    +0.000 A 
ATOM      9  C   UNL     1      47.653   8.186  12.276  0.00  0.00    +0.000 A 
ATOM     10  C   UNL     1      47.674   9.557  11.987  0.00  0.00    +0.000 A 
ATOM     11  C   UNL     1      46.485  10.279  11.952  0.00  0.00    +0.000 A 
ATOM     12  C   UNL     1      45.290   9.627  12.212  0.00  0.00    +0.000 A 
ATOM     13  F   UNL     1      44.140  10.312  12.169  0.00  0.00    +0.000 F 
ATOM     14  C   UNL     1      45.263   8.268  12.512  0.00  0.00    +0.000 A 
ENDBRANCH   6   8
ENDBRANCH   1   2
BRANCH   1  15
ATOM     15  C   UNL     1      43.956   3.426  10.387  0.00  0.00    +0.000 C 
BRANCH  15  20
ATOM     16  C   UNL     1      46.514   2.251   7.833  0.00  0.00    +0.000 A 
ATOM     17  C   UNL     1      46.895   3.486   7.330  0.00  0.00    +0.000 A 
ATOM     18  N   UNL     1      46.379   4.666   7.756  0.00  0.00    +0.000 NA
ATOM     19  C   UNL     1      45.450   4.606   8.735  0.00  0.00    +0.000 A 
ATOM     20  C   UNL     1      45.009   3.421   9.316  0.00  0.00    +0.000 A 
ATOM     21  C   UNL     1      45.565   2.223   8.856  0.00  0.00    +0.000 A 
BRANCH  16  23
ATOM     22  N   UNL     1      46.721  -0.170   7.791  0.00  0.00    +0.000 N 
ATOM     23  C   UNL     1      47.129   1.030   7.277  0.00  0.00    +0.000 C 
ATOM     24  O   UNL     1      47.946   1.084   6.366  0.00  0.00    +0.000 OA
ATOM     25  H   UNL     1      47.070  -0.995   7.321  0.00  0.00    +0.000 HD
ATOM     26  H   UNL     1      45.876  -0.269   8.335  0.00  0.00    +0.000 HD
ENDBRANCH  16  23
ENDBRANCH  15  20
ENDBRANCH   1  15
TORSDOF 5
ENDMDL
MODEL 4
REMARK VINA RESULT:    -8.487      1.322      1.677
REMARK INTER + INTRA:         -11.579
REMARK INTER:                 -10.789
REMARK INTRA:                  -0.790
REMARK UNBOUND:                -0.611
REMARK  Name = 
REMARK  5 active torsions:
REMARK  status: ('A' for Active; 'I' for Inactive)
REMARK    1  A    between atoms: C_2  and  C_4
REMARK    2  A    between atoms: C_8  and  C_9
REMARK    3  A    between atoms: C_9  and  C_10
REMARK    4  A    between atoms: C_10  and  C_11
REMARK    5  A    between atoms: C_15  and  C_16
REMARK                            x       y       z     vdW  Elec       q    Type
REMARK                         _______ _______ _______ _____ _____    ______ ____
ROOT
ATOM      1  C   UNL     1      45.220   5.879  12.777  0.00  0.00    +0.000 C 
ENDROOT
BRANCH   1   2
ATOM      2  C   UNL     1      44.719   4.756  11.900  0.00  0.00    +0.000 A 
ATOM      3  C   UNL     1      43.570   4.052  12.236  0.00  0.00    +0.000 A 
ATOM      4  N   UNL     1      43.065   3.033  11.506  0.00  0.00    +0.000 NA
ATOM      5  C   UNL     1      43.744   2.685  10.385  0.00  0.00    +0.000 A 
ATOM      6  C   UNL     1      44.917   3.294   9.941  0.00  0.00    +0.000 A 
ATOM      7  C   UNL     1      45.396   4.338  10.746  0.00  0.00    +0.000 A 
BRANCH   6   8
ATOM      8  C   UNL     1      45.616   2.898   8.700  0.00  0.00    +0.000 A 
ATOM      9  C   UNL     1      45.972   3.845   7.721  0.00  0.00    +0.000 A 
ATOM     10  C   UNL     1      46.668   3.473   6.562  0.00  0.00    +0.000 A 
ATOM     11  C   UNL     1      47.030   2.144   6.363  0.00  0.00    +0.000 A 
ATOM     12  C   UNL     1      46.688   1.200   7.318  0.00  0.00    +0.000 A 
ATOM     13  F   UNL     1      47.043  -0.079   7.141  0.00  0.00    +0.000 F 
ATOM     14  C   UNL     1      45.986   1.559   8.466  0.00  0.00    +0.000 A 
ENDBRANCH   6   8
ENDBRANCH   1   2
BRANCH   1  15
ATOM     15  C   UNL     1      46.746   6.049  12.751  0.00  0.00    +0.000 C 
BRANCH  15  20
ATOM     16  C   UNL     1      47.771   4.529  16.082  0.00  0.00    +0.000 A 
ATOM     17  C   UNL     1      48.657   5.511  16.500  0.00  0.00    +0.000 A 
ATOM     18  N   UNL     1      48.946   6.623  15.778  0.00  0.00    +0.000 NA
ATOM     19  C   UNL     1      48.313   6.762  14.593  0.00  0.00    +0.000 A 
ATOM     20  C   UNL     1      47.398   5.843  14.089  0.00  0.00    +0.000 A 
ATOM     21  C   UNL     1      47.120   4.709  14.860  0.00  0.00    +0.000 A 
BRANCH  16  23
ATOM     22  N   UNL     1      48.649   2.615  17.294  0.00  0.00    +0.000 N 
ATOM     23  C   UNL     1      47.551   3.350  16.941  0.00  0.00    +0.000 C 
ATOM     24  O   UNL     1      46.436   3.061  17.354  0.00  0.00    +0.000 OA
ATOM     25  H   UNL     1      48.492   1.880  17.972  0.00  0.00    +0.000 HD
ATOM     26  H   UNL     1      49.591   2.968  17.202  0.00  0.00    +0.000 HD
ENDBRANCH  16  23
ENDBRANCH  15  20
ENDBRANCH   1  15
TORSDOF 5
ENDMDL
MODEL 5
REMARK VINA RESULT:    -8.195      3.488      6.983
REMARK INTER + INTRA:         -11.201
REMARK INTER:                 -10.315
REMARK INTRA:                  -0.886
REMARK UNBOUND:                -0.611
REMARK  Name = 
REMARK  5 active torsions:
REMARK  status: ('A' for Active; 'I' for Inactive)
REMARK    1  A    between atoms: C_2  and  C_4
REMARK    2  A    between atoms: C_8  and  C_9
REMARK    3  A    between atoms: C_9  and  C_10
REMARK    4  A    between atoms: C_10  and  C_11
REMARK    5  A    between atoms: C_15  and  C_16
REMARK                            x       y       z     vdW  Elec       q    Type
REMARK                         _______ _______ _______ _____ _____    ______ ____
ROOT
ATOM      1  C   UNL     1      43.773   4.419  10.773  0.00  0.00    +0.000 C 
ENDROOT
BRANCH   1   2
ATOM      2  C   UNL     1      44.913   4.760  11.703  0.00  0.00    +0.000 A 
ATOM      3  C   UNL     1      45.172   3.981  12.824  0.00  0.00    +0.000 A 
ATOM      4  N   UNL     1      46.168   4.227  13.704  0.00  0.00    +0.000 NA
ATOM      5  C   UNL     1      46.944   5.313  13.465  0.00  0.00    +0.000 A 
ATOM      6  C   UNL     1      46.786   6.187  12.391  0.00  0.00    +0.000 A 
ATOM      7  C   UNL     1      45.730   5.884  11.518  0.00  0.00    +0.000 A 
BRANCH   6   8
ATOM      8  C   UNL     1      47.669   7.348  12.154  0.00  0.00    +0.000 A 
ATOM      9  C   UNL     1      47.167   8.663  12.125  0.00  0.00    +0.000 A 
ATOM     10  C   UNL     1      48.010   9.766  11.938  0.00  0.00    +0.000 A 
ATOM     11  C   UNL     1      49.381   9.576  11.784  0.00  0.00    +0.000 A 
ATOM     12  C   UNL     1      49.892   8.289  11.812  0.00  0.00    +0.000 A 
ATOM     13  F   UNL     1      51.210   8.097  11.676  0.00  0.00    +0.000 F 
ATOM     14  C   UNL     1      49.058   7.187  11.985  0.00  0.00    +0.000 A 
ENDBRANCH   6   8
ENDBRANCH   1   2
BRANCH   1  15
ATOM     15  C   UNL     1      44.132   4.541   9.285  0.00  0.00    +0.000 C 
BRANCH  15  20
ATOM     16  C   UNL     1      46.626   2.439   7.332  0.00  0.00    +0.000 A 
ATOM     17  C   UNL     1      46.315   1.195   7.861  0.00  0.00    +0.000 A 
ATOM     18  N   UNL     1      45.361   0.993   8.805  0.00  0.00    +0.000 NA
ATOM     19  C   UNL     1      44.683   2.082   9.228  0.00  0.00    +0.000 A 
ATOM     20  C   UNL     1      44.909   3.371   8.753  0.00  0.00    +0.000 A 
ATOM     21  C   UNL     1      45.896   3.543   7.778  0.00  0.00    +0.000 A 
BRANCH  16  23
ATOM     22  N   UNL     1      47.383   3.118   5.126  0.00  0.00    +0.000 N 
ATOM     23  C   UNL     1      47.699   2.541   6.325  0.00  0.00    +0.000 C 
ATOM     24  O   UNL     1      48.837   2.158   6.563  0.00  0.00    +0.000 OA
ATOM     25  H   UNL     1      48.157   3.280   4.494  0.00  0.00    +0.000 HD
ATOM     26  H   UNL     1      46.553   3.678   4.995  0.00  0.00    +0.000 HD
ENDBRANCH  16  23
ENDBRANCH  15  20
ENDBRANCH   1  15
TORSDOF 5
ENDMDL
MODEL 6
REMARK VINA RESULT:    -8.171      3.596      6.867
REMARK INTER + INTRA:         -11.170
REMARK INTER:                 -10.598
REMARK INTRA:                  -0.573
REMARK UNBOUND:                -0.611
REMARK  Name = 
REMARK  5 active torsions:
REMARK  status: ('A' for Active; 'I' for Inactive)
REMARK    1  A    between atoms: C_2  and  C_4
REMARK    2  A    between atoms: C_8  and  C_9
REMARK    3  A    between atoms: C_9  and  C_10
REMARK    4  A    between atoms: C_10  and  C_11
REMARK    5  A    between atoms: C_15  and  C_16
REMARK                            x       y       z     vdW  Elec       q    Type
REMARK                         _______ _______ _______ _____ _____    ______ ____
ROOT
ATOM      1  C   UNL     1      44.400   3.274  11.915  0.00  0.00    +0.000 C 
ENDROOT
BRANCH   1   2
ATOM      2  C   UNL     1      44.751   4.741  11.995  0.00  0.00    +0.000 A 
ATOM      3  C   UNL     1      43.790   5.715  11.758  0.00  0.00    +0.000 A 
ATOM      4  N   UNL     1      44.030   7.044  11.804  0.00  0.00    +0.000 NA
ATOM      5  C   UNL     1      45.298   7.429  12.093  0.00  0.00    +0.000 A 
ATOM      6  C   UNL     1      46.361   6.560  12.335  0.00  0.00    +0.000 A 
ATOM      7  C   UNL     1      46.050   5.194  12.263  0.00  0.00    +0.000 A 
BRANCH   6   8
ATOM      8  C   UNL     1      47.725   7.022  12.668  0.00  0.00    +0.000 A 
ATOM      9  C   UNL     1      48.548   7.641  11.708  0.00  0.00    +0.000 A 
ATOM     10  C   UNL     1      49.827   8.111  12.035  0.00  0.00    +0.000 A 
ATOM     11  C   UNL     1      50.307   7.979  13.334  0.00  0.00    +0.000 A 
ATOM     12  C   UNL     1      49.509   7.374  14.291  0.00  0.00    +0.000 A 
ATOM     13  F   UNL     1      49.958   7.254  15.547  0.00  0.00    +0.000 F 
ATOM     14  C   UNL     1      48.242   6.893  13.972  0.00  0.00    +0.000 A 
ENDBRANCH   6   8
ENDBRANCH   1   2
BRANCH   1  15
ATOM     15  C   UNL     1      43.798   2.855  10.566  0.00  0.00    +0.000 C 
BRANCH  15  20
ATOM     16  C   UNL     1      46.335   2.054   7.850  0.00  0.00    +0.000 A 
ATOM     17  C   UNL     1      46.435   3.313   7.276  0.00  0.00    +0.000 A 
ATOM     18  N   UNL     1      45.738   4.395   7.702  0.00  0.00    +0.000 NA
ATOM     19  C   UNL     1      44.913   4.211   8.756  0.00  0.00    +0.000 A 
ATOM     20  C   UNL     1      44.750   2.994   9.412  0.00  0.00    +0.000 A 
ATOM     21  C   UNL     1      45.488   1.900   8.949  0.00  0.00    +0.000 A 
BRANCH  16  23
ATOM     22  N   UNL     1      46.786  -0.326   7.661  0.00  0.00    +0.000 N 
ATOM     23  C   UNL     1      47.128   0.944   7.287  0.00  0.00    +0.000 C 
ATOM     24  O   UNL     1      48.033   1.147   6.488  0.00  0.00    +0.000 OA
ATOM     25  H   UNL     1      47.266  -1.075   7.179  0.00  0.00    +0.000 HD
ATOM     26  H   UNL     1      45.898  -0.545   8.091  0.00  0.00    +0.000 HD
ENDBRANCH  16  23
ENDBRANCH  15  20
ENDBRANCH   1  15
TORSDOF 5
ENDMDL
MODEL 7
REMARK VINA RESULT:    -8.015      2.549      3.120
REMARK INTER + INTRA:         -10.969
REMARK INTER:                 -10.240
REMARK INTRA:                  -0.729
REMARK UNBOUND:                -0.611
REMARK  Name = 
REMARK  5 active torsions:
REMARK  status: ('A' for Active; 'I' for Inactive)
REMARK    1  A    between atoms: C_2  and  C_4
REMARK    2  A    between atoms: C_8  and  C_9
REMARK    3  A    between atoms: C_9  and  C_10
REMARK    4  A    between atoms: C_10  and  C_11
REMARK    5  A    between atoms: C_15  and  C_16
REMARK                            x       y       z     vdW  Elec       q    Type
REMARK                         _______ _______ _______ _____ _____    ______ ____
ROOT
ATOM      1  C   UNL     1      43.965   6.300  11.664  0.00  0.00    +0.000 C 
ENDROOT
BRANCH   1   2
ATOM      2  C   UNL     1      43.988   4.875  11.164  0.00  0.00    +0.000 A 
ATOM      3  C   UNL     1      43.218   3.895  11.777  0.00  0.00    +0.000 A 
ATOM      4  N   UNL     1      43.192   2.600  11.391  0.00  0.00    +0.000 NA
ATOM      5  C   UNL     1      43.983   2.256  10.344  0.00  0.00    +0.000 A 
ATOM      6  C   UNL     1      44.815   3.132   9.650  0.00  0.00    +0.000 A 
ATOM      7  C   UNL     1      44.805   4.459  10.104  0.00  0.00    +0.000 A 
BRANCH   6   8
ATOM      8  C   UNL     1      45.646   2.720   8.499  0.00  0.00    +0.000 A 
ATOM      9  C   UNL     1      46.167   1.416   8.395  0.00  0.00    +0.000 A 
ATOM     10  C   UNL     1      46.923   1.016   7.285  0.00  0.00    +0.000 A 
ATOM     11  C   UNL     1      47.167   1.912   6.249  0.00  0.00    +0.000 A 
ATOM     12  C   UNL     1      46.659   3.199   6.335  0.00  0.00    +0.000 A 
ATOM     13  F   UNL     1      46.879   4.064   5.337  0.00  0.00    +0.000 F 
ATOM     14  C   UNL     1      45.918   3.607   7.440  0.00  0.00    +0.000 A 
ENDBRANCH   6   8
ENDBRANCH   1   2
BRANCH   1  15
ATOM     15  C   UNL     1      44.974   6.578  12.788  0.00  0.00    +0.000 C 
BRANCH  15  20
ATOM     16  C   UNL     1      48.106   8.594  12.023  0.00  0.00    +0.000 A 
ATOM     17  C   UNL     1      47.529   9.851  11.922  0.00  0.00    +0.000 A 
ATOM     18  N   UNL     1      46.202  10.088  12.079  0.00  0.00    +0.000 NA
ATOM     19  C   UNL     1      45.422   9.021  12.360  0.00  0.00    +0.000 A 
ATOM     20  C   UNL     1      45.902   7.722  12.495  0.00  0.00    +0.000 A 
ATOM     21  C   UNL     1      47.276   7.514  12.331  0.00  0.00    +0.000 A 
BRANCH  16  23
ATOM     22  N   UNL     1      50.151   7.305  12.260  0.00  0.00    +0.000 N 
ATOM     23  C   UNL     1      49.559   8.453  11.810  0.00  0.00    +0.000 C 
ATOM     24  O   UNL     1      50.204   9.311  11.223  0.00  0.00    +0.000 OA
ATOM     25  H   UNL     1      51.123   7.179  12.006  0.00  0.00    +0.000 HD
ATOM     26  H   UNL     1      49.623   6.478  12.497  0.00  0.00    +0.000 HD
ENDBRANCH  16  23
ENDBRANCH  15  20
ENDBRANCH   1  15
TORSDOF 5
ENDMDL
MODEL 8
REMARK VINA RESULT:    -7.545      2.669      3.500
REMARK INTER + INTRA:         -10.361
REMARK INTER:                  -9.628
REMARK INTRA:                  -0.733
REMARK UNBOUND:                -0.611
REMARK  Name = 
REMARK  5 active torsions:
REMARK  status: ('A' for Active; 'I' for Inactive)
REMARK    1  A    between atoms: C_2  and  C_4
REMARK    2  A    between atoms: C_8  and  C_9
REMARK    3  A    between atoms: C_9  and  C_10
REMARK    4  A    between atoms: C_10  and  C_11
REMARK    5  A    between atoms: C_15  and  C_16
REMARK                            x       y       z     vdW  Elec       q    Type
REMARK                         _______ _______ _______ _____ _____    ______ ____
ROOT
ATOM      1  C   UNL     1      45.733   6.971  12.278  0.00  0.00    +0.000 C 
ENDROOT
BRANCH   1   2
ATOM      2  C   UNL     1      45.033   5.871  11.516  0.00  0.00    +0.000 A 
ATOM      3  C   UNL     1      43.725   5.518  11.821  0.00  0.00    +0.000 A 
ATOM      4  N   UNL     1      43.037   4.541  11.189  0.00  0.00    +0.000 NA
ATOM      5  C   UNL     1      43.687   3.869  10.206  0.00  0.00    +0.000 A 
ATOM      6  C   UNL     1      45.001   4.109   9.810  0.00  0.00    +0.000 A 
ATOM      7  C   UNL     1      45.665   5.128  10.510  0.00  0.00    +0.000 A 
BRANCH   6   8
ATOM      8  C   UNL     1      45.667   3.367   8.718  0.00  0.00    +0.000 A 
ATOM      9  C   UNL     1      46.241   4.033   7.618  0.00  0.00    +0.000 A 
ATOM     10  C   UNL     1      46.904   3.332   6.602  0.00  0.00    +0.000 A 
ATOM     11  C   UNL     1      47.014   1.946   6.671  0.00  0.00    +0.000 A 
ATOM     12  C   UNL     1      46.457   1.276   7.747  0.00  0.00    +0.000 A 
ATOM     13  F   UNL     1      46.568  -0.056   7.827  0.00  0.00    +0.000 F 
ATOM     14  C   UNL     1      45.786   1.965   8.754  0.00  0.00    +0.000 A 
ENDBRANCH   6   8
ENDBRANCH   1   2
BRANCH   1  15
ATOM     15  C   UNL     1      47.198   6.656  12.613  0.00  0.00    +0.000 C 
BRANCH  15  20
ATOM     16  C   UNL     1      50.352   8.465  11.502  0.00  0.00    +0.000 A 
ATOM     17  C   UNL     1      49.838   9.750  11.407  0.00  0.00    +0.000 A 
ATOM     18  N   UNL     1      48.546  10.066  11.672  0.00  0.00    +0.000 NA
ATOM     19  C   UNL     1      47.737   9.056  12.059  0.00  0.00    +0.000 A 
ATOM     20  C   UNL     1      48.156   7.736  12.198  0.00  0.00    +0.000 A 
ATOM     21  C   UNL     1      49.496   7.444  11.921  0.00  0.00    +0.000 A 
BRANCH  16  23
ATOM     22  N   UNL     1      52.096   7.033  10.601  0.00  0.00    +0.000 N 
ATOM     23  C   UNL     1      51.771   8.235  11.168  0.00  0.00    +0.000 C 
ATOM     24  O   UNL     1      52.619   9.097  11.356  0.00  0.00    +0.000 OA
ATOM     25  H   UNL     1      53.051   6.940  10.278  0.00  0.00    +0.000 HD
ATOM     26  H   UNL     1      51.406   6.422  10.190  0.00  0.00    +0.000 HD
ENDBRANCH  16  23
ENDBRANCH  15  20
ENDBRANCH   1  15
TORSDOF 5
ENDMDL
MODEL 9
REMARK VINA RESULT:    -7.532      1.640      1.992
REMARK INTER + INTRA:         -10.345
REMARK INTER:                  -9.682
REMARK INTRA:                  -0.663
REMARK UNBOUND:                -0.611
REMARK  Name = 
REMARK  5 active torsions:
REMARK  status: ('A' for Active; 'I' for Inactive)
REMARK    1  A    between atoms: C_2  and  C_4
REMARK    2  A    between atoms: C_8  and  C_9
REMARK    3  A    between atoms: C_9  and  C_10
REMARK    4  A    between atoms: C_10  and  C_11
REMARK    5  A    between atoms: C_15  and  C_16
REMARK                            x       y       z     vdW  Elec       q    Type
REMARK                         _______ _______ _______ _____ _____    ______ ____
ROOT
ATOM      1  C   UNL     1      45.857   7.426  11.766  0.00  0.00    +0.000 C 
ENDROOT
BRANCH   1   2
ATOM      2  C   UNL     1      45.130   6.262  11.136  0.00  0.00    +0.000 A 
ATOM      3  C   UNL     1      43.820   5.968  11.490  0.00  0.00    +0.000 A 
ATOM      4  N   UNL     1      43.108   4.940  10.975  0.00  0.00    +0.000 NA
ATOM      5  C   UNL     1      43.736   4.153  10.066  0.00  0.00    +0.000 A 
ATOM      6  C   UNL     1      45.050   4.324   9.635  0.00  0.00    +0.000 A 
ATOM      7  C   UNL     1      45.739   5.401  10.212  0.00  0.00    +0.000 A 
BRANCH   6   8
ATOM      8  C   UNL     1      45.690   3.455   8.625  0.00  0.00    +0.000 A 
ATOM      9  C   UNL     1      46.354   3.992   7.505  0.00  0.00    +0.000 A 
ATOM     10  C   UNL     1      46.993   3.169   6.569  0.00  0.00    +0.000 A 
ATOM     11  C   UNL     1      46.988   1.787   6.738  0.00  0.00    +0.000 A 
ATOM     12  C   UNL     1      46.341   1.243   7.836  0.00  0.00    +0.000 A 
ATOM     13  F   UNL     1      46.342  -0.084   8.013  0.00  0.00    +0.000 F 
ATOM     14  C   UNL     1      45.694   2.054   8.764  0.00  0.00    +0.000 A 
ENDBRANCH   6   8
ENDBRANCH   1   2
BRANCH   1  15
ATOM     15  C   UNL     1      47.355   7.174  11.987  0.00  0.00    +0.000 C 
BRANCH  15  20
ATOM     16  C   UNL     1      48.694   6.910  15.535  0.00  0.00    +0.000 A 
ATOM     17  C   UNL     1      48.726   8.260  15.851  0.00  0.00    +0.000 A 
ATOM     18  N   UNL     1      48.350   9.244  14.996  0.00  0.00    +0.000 NA
ATOM     19  C   UNL     1      47.913   8.858  13.777  0.00  0.00    +0.000 A 
ATOM     20  C   UNL     1      47.830   7.531  13.366  0.00  0.00    +0.000 A 
ATOM     21  C   UNL     1      48.222   6.541  14.274  0.00  0.00    +0.000 A 
BRANCH  16  23
ATOM     22  N   UNL     1      48.387   4.805  16.709  0.00  0.00    +0.000 N 
ATOM     23  C   UNL     1      49.148   5.928  16.539  0.00  0.00    +0.000 C 
ATOM     24  O   UNL     1      50.184   6.093  17.170  0.00  0.00    +0.000 OA
ATOM     25  H   UNL     1      48.774   4.095  17.318  0.00  0.00    +0.000 HD
ATOM     26  H   UNL     1      47.696   4.510  16.034  0.00  0.00    +0.000 HD
ENDBRANCH  16  23
ENDBRANCH  15  20
ENDBRANCH   1  15
TORSDOF 5
ENDMDL
