MODEL 1
REMARK VINA RESULT:    -7.752      0.000      0.000
REMARK INTER + INTRA:         -10.056
REMARK INTER:                  -9.564
REMARK INTRA:                  -0.492
REMARK UNBOUND:                -0.492
REMARK  Name = 
REMARK  5 active torsions:
REMARK  status: ('A' for Active; 'I' for Inactive)
REMARK    1  A    between atoms: C_1  and  C_2
REMARK    2  A    between atoms: C_2  and  C_3
REMARK    3  A    between atoms: C_2  and  C_14
REMARK    4  A    between atoms: C_3  and  N_4
REMARK    5  A    between atoms: C_8  and  C_9
REMARK                            x       y       z     vdW  Elec       q    Type
REMARK                         _______ _______ _______ _____ _____    ______ ____
ROOT
ATOM      1  N   UNL     1      44.270   5.149   9.714  0.00  0.00    +0.000 N 
ATOM      2  C   UNL     1      44.955   4.085   9.091  0.00  0.00    +0.000 A 
ATOM      3  C   UNL     1      45.892   4.371   8.099  0.00  0.00    +0.000 A 
ATOM      4  C   UNL     1      46.589   3.326   7.490  0.00  0.00    +0.000 A 
ATOM      5  C   UNL     1      46.341   2.008   7.876  0.00  0.00    +0.000 A 
ATOM      6  C   UNL     1      45.375   1.812   8.845  0.00  0.00    +0.000 A 
ATOM      7  N   UNL     1      44.687   2.812   9.449  0.00  0.00    +0.000 NA
ATOM      8  H   UNL     1      44.962   5.808  10.052  0.00  0.00    +0.000 HD
ENDROOT
BRANCH   5   9
ATOM      9  C   UNL     1      47.104   0.899   7.253  0.00  0.00    +0.000 C 
ATOM     10  N   UNL     1      46.834  -0.388   7.632  0.00  0.00    +0.000 N 
ATOM     11  O   UNL     1      47.974   1.121   6.421  0.00  0.00    +0.000 OA
ATOM     12  H   UNL     1      46.168  -0.680   8.329  0.00  0.00    +0.000 HD
ATOM     13  H   UNL     1      47.396  -1.110   7.199  0.00  0.00    +0.000 HD
ENDBRANCH   5   9
BRANCH   1  14
ATOM     14  C   UNL     1      43.378   4.689  10.770  0.00  0.00    +0.000 C 
BRANCH  14  16
ATOM     15  C   UNL     1      43.062   5.057  13.311  0.00  0.00    +0.000 C 
ATOM     16  C   UNL     1      43.983   4.949  12.128  0.00  0.00    +0.000 C 
BRANCH  16  17
ATOM     17  C   UNL     1      45.275   5.762  12.132  0.00  0.00    +0.000 C 
ATOM     18  C   UNL     1      46.400   5.091  12.939  0.00  0.00    +0.000 C 
ATOM     19  C   UNL     1      47.672   5.938  12.967  0.00  0.00    +0.000 C 
ATOM     20  C   UNL     1      47.389   7.340  13.496  0.00  0.00    +0.000 C 
ATOM     21  C   UNL     1      46.311   8.031  12.670  0.00  0.00    +0.000 C 
ATOM     22  C   UNL     1      45.027   7.205  12.614  0.00  0.00    +0.000 C 
ENDBRANCH  16  17
ENDBRANCH  14  16
ENDBRANCH   1  14
TORSDOF 4
ENDMDL
MODEL 2
REMARK VINA RESULT:    -7.409      1.402      2.001
REMARK INTER + INTRA:          -9.633
REMARK INTER:                  -9.118
REMARK INTRA:                  -0.515
REMARK UNBOUND:                -0.492
REMARK  Name = 
REMARK  5 active torsions:
REMARK  status: ('A' for Active; 'I' for Inactive)
REMARK    1  A    between atoms: C_1  and  C_2
REMARK    2  A    between atoms: C_2  and  C_3
REMARK    3  A    between atoms: C_2  and  C_14
REMARK    4  A    between atoms: C_3  and  N_4
REMARK    5  A    between atoms: C_8  and  C_9
REMARK                            x       y       z     vdW  Elec       q    Type
REMARK                         _______ _______ _______ _____ _____    ______ ____
ROOT
ATOM      1  N   UNL     1      44.094   3.362  10.497  0.00  0.00    +0.000 N 
ATOM      2  C   UNL     1      44.976   3.118   9.424  0.00  0.00    +0.000 A 
ATOM      3  C   UNL     1      45.266   1.800   9.072  0.00  0.00    +0.000 A 
ATOM      4  C   UNL     1      46.122   1.547   7.999  0.00  0.00    +0.000 A 
ATOM      5  C   UNL     1      46.681   2.612   7.291  0.00  0.00    +0.000 A 
ATOM      6  C   UNL     1      46.364   3.886   7.725  0.00  0.00    +0.000 A 
ATOM      7  N   UNL     1      45.536   4.153   8.765  0.00  0.00    +0.000 NA
ATOM      8  H   UNL     1      43.243   2.839  10.326  0.00  0.00    +0.000 HD
ENDROOT
BRANCH   5   9
ATOM      9  C   UNL     1      47.564   2.346   6.130  0.00  0.00    +0.000 C 
ATOM     10  N   UNL     1      47.513   3.185   5.050  0.00  0.00    +0.000 N 
ATOM     11  O   UNL     1      48.323   1.385   6.121  0.00  0.00    +0.000 OA
ATOM     12  H   UNL     1      46.904   3.980   4.937  0.00  0.00    +0.000 HD
ATOM     13  H   UNL     1      48.116   2.951   4.271  0.00  0.00    +0.000 HD
ENDBRANCH   5   9
BRANCH   1  14
ATOM     14  C   UNL     1      43.844   4.784  10.695  0.00  0.00    +0.000 C 
BRANCH  14  16
ATOM     15  C   UNL     1      42.636   5.373  12.904  0.00  0.00    +0.000 C 
ATOM     16  C   UNL     1      43.919   5.139  12.159  0.00  0.00    +0.000 C 
BRANCH  16  17
ATOM     17  C   UNL     1      45.164   5.912  12.589  0.00  0.00    +0.000 C 
ATOM     18  C   UNL     1      45.899   6.567  11.407  0.00  0.00    +0.000 C 
ATOM     19  C   UNL     1      47.164   7.300  11.851  0.00  0.00    +0.000 C 
ATOM     20  C   UNL     1      48.098   6.374  12.621  0.00  0.00    +0.000 C 
ATOM     21  C   UNL     1      47.392   5.760  13.825  0.00  0.00    +0.000 C 
ATOM     22  C   UNL     1      46.116   5.025  13.416  0.00  0.00    +0.000 C 
ENDBRANCH  16  17
ENDBRANCH  14  16
ENDBRANCH   1  14
TORSDOF 4
ENDMDL
MODEL 3
REMARK VINA RESULT:    -7.105      3.369      7.049
REMARK INTER + INTRA:          -9.259
REMARK INTER:                  -8.861
REMARK INTRA:                  -0.398
REMARK UNBOUND:                -0.492
REMARK  Name = 
REMARK  5 active torsions:
REMARK  status: ('A' for Active; 'I' for Inactive)
REMARK    1  A    between atoms: C_1  and  C_2
REMARK    2  A    between atoms: C_2  and  C_3
REMARK    3  A    between atoms: C_2  and  C_14
REMARK    4  A    between atoms: C_3  and  N_4
REMARK    5  A    between atoms: C_8  and  C_9
REMARK                            x       y       z     vdW  Elec       q    Type
REMARK                         _______ _______ _______ _____ _____    ______ ____
ROOT
ATOM      1  N   UNL     1      44.805   5.907  10.276  0.00  0.00    +0.000 N 
ATOM      2  C   UNL     1      45.595   6.615  11.204  0.00  0.00    +0.000 A 
ATOM      3  C   UNL     1      44.968   7.434  12.144  0.00  0.00    +0.000 A 
ATOM      4  C   UNL     1      45.740   8.124  13.080  0.00  0.00    +0.000 A 
ATOM      5  C   UNL     1      47.130   7.992  13.065  0.00  0.00    +0.000 A 
ATOM      6  C   UNL     1      47.671   7.184  12.083  0.00  0.00    +0.000 A 
ATOM      7  N   UNL     1      46.939   6.506  11.165  0.00  0.00    +0.000 NA
ATOM      8  H   UNL     1      44.105   5.389  10.795  0.00  0.00    +0.000 HD
ENDROOT
BRANCH   5   9
ATOM      9  C   UNL     1      47.950   8.698  14.079  0.00  0.00    +0.000 C 
ATOM     10  N   UNL     1      47.361   9.098  15.248  0.00  0.00    +0.000 N 
ATOM     11  O   UNL     1      49.134   8.938  13.879  0.00  0.00    +0.000 OA
ATOM     12  H   UNL     1      46.392   8.985  15.500  0.00  0.00    +0.000 HD
ATOM     13  H   UNL     1      47.952   9.598  15.901  0.00  0.00    +0.000 HD
ENDBRANCH   5   9
BRANCH   1  14
ATOM     14  C   UNL     1      45.604   5.050   9.411  0.00  0.00    +0.000 C 
BRANCH  14  16
ATOM     15  C   UNL     1      44.104   3.086  10.172  0.00  0.00    +0.000 C 
ATOM     16  C   UNL     1      44.853   3.786   9.073  0.00  0.00    +0.000 C 
BRANCH  16  17
ATOM     17  C   UNL     1      45.443   2.946   7.943  0.00  0.00    +0.000 C 
ATOM     18  C   UNL     1      46.147   1.675   8.448  0.00  0.00    +0.000 C 
ATOM     19  C   UNL     1      46.768   0.869   7.309  0.00  0.00    +0.000 C 
ATOM     20  C   UNL     1      47.724   1.725   6.485  0.00  0.00    +0.000 C 
ATOM     21  C   UNL     1      47.020   2.961   5.937  0.00  0.00    +0.000 C 
ATOM     22  C   UNL     1      46.380   3.786   7.052  0.00  0.00    +0.000 C 
ENDBRANCH  16  17
ENDBRANCH  14  16
ENDBRANCH   1  14
TORSDOF 4
ENDMDL
MODEL 4
REMARK VINA RESULT:    -7.032      1.529      1.878
REMARK INTER + INTRA:          -9.168
REMARK INTER:                  -8.757
REMARK INTRA:                  -0.411
REMARK UNBOUND:                -0.492
REMARK  Name = 
REMARK  5 active torsions:
REMARK  status: ('A' for Active; 'I' for Inactive)
REMARK    1  A    between atoms: C_1  and  C_2
REMARK    2  A    between atoms: C_2  and  C_3
REMARK    3  A    between atoms: C_2  and  C_14
REMARK    4  A    between atoms: C_3  and  N_4
REMARK    5  A    between atoms: C_8  and  C_9
REMARK                            x       y       z     vdW  Elec       q    Type
REMARK                         _______ _______ _______ _____ _____    ______ ____
ROOT
ATOM      1  N   UNL     1      43.886   3.897  10.417  0.00  0.00    +0.000 N 
ATOM      2  C   UNL     1      44.796   3.496   9.418  0.00  0.00    +0.000 A 
ATOM      3  C   UNL     1      44.901   2.142   9.100  0.00  0.00    +0.000 A 
ATOM      4  C   UNL     1      45.785   1.736   8.098  0.00  0.00    +0.000 A 
ATOM      5  C   UNL     1      46.557   2.686   7.428  0.00  0.00    +0.000 A 
ATOM      6  C   UNL     1      46.413   4.002   7.825  0.00  0.00    +0.000 A 
ATOM      7  N   UNL     1      45.561   4.417   8.796  0.00  0.00    +0.000 NA
ATOM      8  H   UNL     1      42.978   3.511  10.184  0.00  0.00    +0.000 HD
ENDROOT
BRANCH   5   9
ATOM      9  C   UNL     1      47.472   2.261   6.341  0.00  0.00    +0.000 C 
ATOM     10  N   UNL     1      47.662   3.091   5.270  0.00  0.00    +0.000 N 
ATOM     11  O   UNL     1      48.044   1.179   6.385  0.00  0.00    +0.000 OA
ATOM     12  H   UNL     1      47.216   3.982   5.116  0.00  0.00    +0.000 HD
ATOM     13  H   UNL     1      48.276   2.750   4.541  0.00  0.00    +0.000 HD
ENDBRANCH   5   9
BRANCH   1  14
ATOM     14  C   UNL     1      43.850   5.344  10.583  0.00  0.00    +0.000 C 
BRANCH  14  16
ATOM     15  C   UNL     1      44.094   5.602  13.145  0.00  0.00    +0.000 C 
ATOM     16  C   UNL     1      44.680   5.764  11.770  0.00  0.00    +0.000 C 
BRANCH  16  17
ATOM     17  C   UNL     1      45.654   6.914  11.524  0.00  0.00    +0.000 C 
ATOM     18  C   UNL     1      47.094   6.579  11.948  0.00  0.00    +0.000 C 
ATOM     19  C   UNL     1      48.046   7.754  11.733  0.00  0.00    +0.000 C 
ATOM     20  C   UNL     1      47.549   9.005  12.450  0.00  0.00    +0.000 C 
ATOM     21  C   UNL     1      46.141   9.374  11.996  0.00  0.00    +0.000 C 
ATOM     22  C   UNL     1      45.164   8.215  12.190  0.00  0.00    +0.000 C 
ENDBRANCH  16  17
ENDBRANCH  14  16
ENDBRANCH   1  14
TORSDOF 4
ENDMDL
MODEL 5
REMARK VINA RESULT:    -6.574      3.137      6.274
REMARK INTER + INTRA:          -8.603
REMARK INTER:                  -8.017
REMARK INTRA:                  -0.586
REMARK UNBOUND:                -0.492
REMARK  Name = 
REMARK  5 active torsions:
REMARK  status: ('A' for Active; 'I' for Inactive)
REMARK    1  A    between atoms: C_1  and  C_2
REMARK    2  A    between atoms: C_2  and  C_3
REMARK    3  A    between atoms: C_2  and  C_14
REMARK    4  A    between atoms: C_3  and  N_4
REMARK    5  A    between atoms: C_8  and  C_9
REMARK                            x       y       z     vdW  Elec       q    Type
REMARK                         _______ _______ _______ _____ _____    ______ ____
ROOT
ATOM      1  N   UNL     1      44.686   4.936  12.572  0.00  0.00    +0.000 N 
ATOM      2  C   UNL     1      45.908   5.639  12.601  0.00  0.00    +0.000 A 
ATOM      3  C   UNL     1      46.678   5.612  13.764  0.00  0.00    +0.000 A 
ATOM      4  C   UNL     1      47.899   6.288  13.797  0.00  0.00    +0.000 A 
ATOM      5  C   UNL     1      48.335   6.987  12.670  0.00  0.00    +0.000 A 
ATOM      6  C   UNL     1      47.497   6.986  11.571  0.00  0.00    +0.000 A 
ATOM      7  N   UNL     1      46.308   6.337  11.518  0.00  0.00    +0.000 NA
ATOM      8  H   UNL     1      44.869   3.982  12.860  0.00  0.00    +0.000 HD
ENDROOT
BRANCH   5   9
ATOM      9  C   UNL     1      49.647   7.679  12.692  0.00  0.00    +0.000 C 
ATOM     10  N   UNL     1      50.467   7.514  13.775  0.00  0.00    +0.000 N 
ATOM     11  O   UNL     1      49.996   8.400  11.765  0.00  0.00    +0.000 OA
ATOM     12  H   UNL     1      50.265   6.976  14.603  0.00  0.00    +0.000 HD
ATOM     13  H   UNL     1      51.341   8.024  13.758  0.00  0.00    +0.000 HD
ENDBRANCH   5   9
BRANCH   1  14
ATOM     14  C   UNL     1      44.037   5.010  11.269  0.00  0.00    +0.000 C 
BRANCH  14  16
ATOM     15  C   UNL     1      43.374   2.511  11.350  0.00  0.00    +0.000 C 
ATOM     16  C   UNL     1      44.012   3.653  10.611  0.00  0.00    +0.000 C 
BRANCH  16  17
ATOM     17  C   UNL     1      45.176   3.352   9.669  0.00  0.00    +0.000 C 
ATOM     18  C   UNL     1      45.346   4.416   8.570  0.00  0.00    +0.000 C 
ATOM     19  C   UNL     1      46.488   4.078   7.614  0.00  0.00    +0.000 C 
ATOM     20  C   UNL     1      46.305   2.694   7.002  0.00  0.00    +0.000 C 
ATOM     21  C   UNL     1      46.187   1.627   8.085  0.00  0.00    +0.000 C 
ATOM     22  C   UNL     1      45.058   1.939   9.065  0.00  0.00    +0.000 C 
ENDBRANCH  16  17
ENDBRANCH  14  16
ENDBRANCH   1  14
TORSDOF 4
ENDMDL
MODEL 6
REMARK VINA RESULT:    -6.459      4.189      7.011
REMARK INTER + INTRA:          -8.462
REMARK INTER:                  -8.094
REMARK INTRA:                  -0.367
REMARK UNBOUND:                -0.492
REMARK  Name = 
REMARK  5 active torsions:
REMARK  status: ('A' for Active; 'I' for Inactive)
REMARK    1  A    between atoms: C_1  and  C_2
REMARK    2  A    between atoms: C_2  and  C_3
REMARK    3  A    between atoms: C_2  and  C_14
REMARK    4  A    between atoms: C_3  and  N_4
REMARK    5  A    between atoms: C_8  and  C_9
REMARK                            x       y       z     vdW  Elec       q    Type
REMARK                         _______ _______ _______ _____ _____    ______ ____
ROOT
ATOM      1  N   UNL     1      46.212   5.489  12.367  0.00  0.00    +0.000 N 
ATOM      2  C   UNL     1      46.807   5.308  13.633  0.00  0.00    +0.000 A 
ATOM      3  C   UNL     1      47.759   6.227  14.073  0.00  0.00    +0.000 A 
ATOM      4  C   UNL     1      48.340   6.067  15.332  0.00  0.00    +0.000 A 
ATOM      5  C   UNL     1      47.965   4.990  16.137  0.00  0.00    +0.000 A 
ATOM      6  C   UNL     1      47.036   4.111  15.613  0.00  0.00    +0.000 A 
ATOM      7  N   UNL     1      46.462   4.247  14.392  0.00  0.00    +0.000 NA
ATOM      8  H   UNL     1      45.846   6.434  12.329  0.00  0.00    +0.000 HD
ENDROOT
BRANCH   5   9
ATOM      9  C   UNL     1      48.556   4.837  17.489  0.00  0.00    +0.000 C 
ATOM     10  N   UNL     1      47.807   4.263  18.480  0.00  0.00    +0.000 N 
ATOM     11  O   UNL     1      49.692   5.227  17.729  0.00  0.00    +0.000 OA
ATOM     12  H   UNL     1      46.856   3.941  18.402  0.00  0.00    +0.000 HD
ATOM     13  H   UNL     1      48.242   4.201  19.392  0.00  0.00    +0.000 HD
ENDBRANCH   5   9
BRANCH   1  14
ATOM     14  C   UNL     1      45.194   4.486  12.086  0.00  0.00    +0.000 C 
BRANCH  14  16
ATOM     15  C   UNL     1      43.058   5.520  11.058  0.00  0.00    +0.000 C 
ATOM     16  C   UNL     1      44.397   4.865  10.863  0.00  0.00    +0.000 C 
BRANCH  16  17
ATOM     17  C   UNL     1      44.604   3.979   9.637  0.00  0.00    +0.000 C 
ATOM     18  C   UNL     1      44.922   2.519  10.001  0.00  0.00    +0.000 C 
ATOM     19  C   UNL     1      45.167   1.657   8.765  0.00  0.00    +0.000 C 
ATOM     20  C   UNL     1      46.267   2.247   7.890  0.00  0.00    +0.000 C 
ATOM     21  C   UNL     1      45.935   3.677   7.481  0.00  0.00    +0.000 C 
ATOM     22  C   UNL     1      45.675   4.566   8.697  0.00  0.00    +0.000 C 
ENDBRANCH  16  17
ENDBRANCH  14  16
ENDBRANCH   1  14
TORSDOF 4
ENDMDL
MODEL 7
REMARK VINA RESULT:    -6.248      4.731      6.385
REMARK INTER + INTRA:          -8.202
REMARK INTER:                  -7.802
REMARK INTRA:                  -0.400
REMARK UNBOUND:                -0.492
REMARK  Name = 
REMARK  5 active torsions:
REMARK  status: ('A' for Active; 'I' for Inactive)
REMARK    1  A    between atoms: C_1  and  C_2
REMARK    2  A    between atoms: C_2  and  C_3
REMARK    3  A    between atoms: C_2  and  C_14
REMARK    4  A    between atoms: C_3  and  N_4
REMARK    5  A    between atoms: C_8  and  C_9
REMARK                            x       y       z     vdW  Elec       q    Type
REMARK                         _______ _______ _______ _____ _____    ______ ____
ROOT
ATOM      1  N   UNL     1      47.350   4.950  15.265  0.00  0.00    +0.000 N 
ATOM      2  C   UNL     1      46.639   4.848  14.052  0.00  0.00    +0.000 A 
ATOM      3  C   UNL     1      46.454   5.992  13.276  0.00  0.00    +0.000 A 
ATOM      4  C   UNL     1      45.769   5.897  12.063  0.00  0.00    +0.000 A 
ATOM      5  C   UNL     1      45.273   4.663  11.641  0.00  0.00    +0.000 A 
ATOM      6  C   UNL     1      45.475   3.586  12.484  0.00  0.00    +0.000 A 
ATOM      7  N   UNL     1      46.136   3.657  13.665  0.00  0.00    +0.000 NA
ATOM      8  H   UNL     1      48.237   5.399  15.069  0.00  0.00    +0.000 HD
ENDROOT
BRANCH   5   9
ATOM      9  C   UNL     1      44.573   4.554  10.338  0.00  0.00    +0.000 C 
ATOM     10  N   UNL     1      45.136   5.131   9.232  0.00  0.00    +0.000 N 
ATOM     11  O   UNL     1      43.500   3.971  10.244  0.00  0.00    +0.000 OA
ATOM     12  H   UNL     1      45.992   5.662   9.203  0.00  0.00    +0.000 HD
ATOM     13  H   UNL     1      44.612   5.053   8.369  0.00  0.00    +0.000 HD
ENDBRANCH   5   9
BRANCH   1  14
ATOM     14  C   UNL     1      47.512   3.660  15.921  0.00  0.00    +0.000 C 
BRANCH  14  16
ATOM     15  C   UNL     1      47.178   5.018  18.096  0.00  0.00    +0.000 C 
ATOM     16  C   UNL     1      47.793   3.842  17.392  0.00  0.00    +0.000 C 
BRANCH  16  17
ATOM     17  C   UNL     1      49.147   3.329  17.876  0.00  0.00    +0.000 C 
ATOM     18  C   UNL     1      50.184   4.452  18.052  0.00  0.00    +0.000 C 
ATOM     19  C   UNL     1      51.543   3.917  18.496  0.00  0.00    +0.000 C 
ATOM     20  C   UNL     1      52.058   2.852  17.534  0.00  0.00    +0.000 C 
ATOM     21  C   UNL     1      51.059   1.710  17.394  0.00  0.00    +0.000 C 
ATOM     22  C   UNL     1      49.684   2.213  16.958  0.00  0.00    +0.000 C 
ENDBRANCH  16  17
ENDBRANCH  14  16
ENDBRANCH   1  14
TORSDOF 4
ENDMDL
MODEL 8
REMARK VINA RESULT:    -6.225      4.339      6.866
REMARK INTER + INTRA:          -8.172
REMARK INTER:                  -7.698
REMARK INTRA:                  -0.474
REMARK UNBOUND:                -0.492
REMARK  Name = 
REMARK  5 active torsions:
REMARK  status: ('A' for Active; 'I' for Inactive)
REMARK    1  A    between atoms: C_1  and  C_2
REMARK    2  A    between atoms: C_2  and  C_3
REMARK    3  A    between atoms: C_2  and  C_14
REMARK    4  A    between atoms: C_3  and  N_4
REMARK    5  A    between atoms: C_8  and  C_9
REMARK                            x       y       z     vdW  Elec       q    Type
REMARK                         _______ _______ _______ _____ _____    ______ ____
ROOT
ATOM      1  N   UNL     1      48.025   7.096  13.114  0.00  0.00    +0.000 N 
ATOM      2  C   UNL     1      47.919   6.175  14.177  0.00  0.00    +0.000 A 
ATOM      3  C   UNL     1      48.560   6.456  15.384  0.00  0.00    +0.000 A 
ATOM      4  C   UNL     1      48.445   5.561  16.449  0.00  0.00    +0.000 A 
ATOM      5  C   UNL     1      47.694   4.395  16.297  0.00  0.00    +0.000 A 
ATOM      6  C   UNL     1      47.116   4.180  15.060  0.00  0.00    +0.000 A 
ATOM      7  N   UNL     1      47.216   5.036  14.013  0.00  0.00    +0.000 NA
ATOM      8  H   UNL     1      47.752   8.007  13.463  0.00  0.00    +0.000 HD
ENDROOT
BRANCH   5   9
ATOM      9  C   UNL     1      47.543   3.459  17.438  0.00  0.00    +0.000 C 
ATOM     10  N   UNL     1      48.539   3.387  18.374  0.00  0.00    +0.000 N 
ATOM     11  O   UNL     1      46.553   2.746  17.543  0.00  0.00    +0.000 OA
ATOM     12  H   UNL     1      49.407   3.899  18.365  0.00  0.00    +0.000 HD
ATOM     13  H   UNL     1      48.404   2.718  19.122  0.00  0.00    +0.000 HD
ENDBRANCH   5   9
BRANCH   1  14
ATOM     14  C   UNL     1      47.247   6.689  11.952  0.00  0.00    +0.000 C 
BRANCH  14  16
ATOM     15  C   UNL     1      45.680   8.523  12.884  0.00  0.00    +0.000 C 
ATOM     16  C   UNL     1      45.899   7.367  11.949  0.00  0.00    +0.000 C 
BRANCH  16  17
ATOM     17  C   UNL     1      44.710   6.476  11.601  0.00  0.00    +0.000 C 
ATOM     18  C   UNL     1      44.052   5.845  12.842  0.00  0.00    +0.000 C 
ATOM     19  C   UNL     1      42.891   4.924  12.472  0.00  0.00    +0.000 C 
ATOM     20  C   UNL     1      43.333   3.846  11.488  0.00  0.00    +0.000 C 
ATOM     21  C   UNL     1      43.938   4.464  10.234  0.00  0.00    +0.000 C 
ATOM     22  C   UNL     1      45.099   5.399  10.569  0.00  0.00    +0.000 C 
ENDBRANCH  16  17
ENDBRANCH  14  16
ENDBRANCH   1  14
TORSDOF 4
ENDMDL
MODEL 9
REMARK VINA RESULT:    -6.162      5.068      7.635
REMARK INTER + INTRA:          -8.095
REMARK INTER:                  -7.770
REMARK INTRA:                  -0.325
REMARK UNBOUND:                -0.492
REMARK  Name = 
REMARK  5 active torsions:
REMARK  status: ('A' for Active; 'I' for Inactive)
REMARK    1  A    between atoms: C_1  and  C_2
REMARK    2  A    between atoms: C_2  and  C_3
REMARK    3  A    between atoms: C_2  and  C_14
REMARK    4  A    between atoms: C_3  and  N_4
REMARK    5  A    between atoms: C_8  and  C_9
REMARK                            x       y       z     vdW  Elec       q    Type
REMARK                         _______ _______ _______ _____ _____    ______ ____
ROOT
ATOM      1  N   UNL     1      46.749   5.487  13.856  0.00  0.00    +0.000 N 
ATOM      2  C   UNL     1      47.323   5.079  15.078  0.00  0.00    +0.000 A 
ATOM      3  C   UNL     1      48.266   5.903  15.692  0.00  0.00    +0.000 A 
ATOM      4  C   UNL     1      48.825   5.518  16.912  0.00  0.00    +0.000 A 
ATOM      5  C   UNL     1      48.438   4.314  17.504  0.00  0.00    +0.000 A 
ATOM      6  C   UNL     1      47.520   3.546  16.814  0.00  0.00    +0.000 A 
ATOM      7  N   UNL     1      46.966   3.900  15.628  0.00  0.00    +0.000 NA
ATOM      8  H   UNL     1      46.383   6.423  13.981  0.00  0.00    +0.000 HD
ENDROOT
BRANCH   5   9
ATOM      9  C   UNL     1      49.006   3.920  18.816  0.00  0.00    +0.000 C 
ATOM     10  N   UNL     1      48.319   3.031  19.597  0.00  0.00    +0.000 N 
ATOM     11  O   UNL     1      50.067   4.387  19.210  0.00  0.00    +0.000 OA
ATOM     12  H   UNL     1      47.425   2.615  19.387  0.00  0.00    +0.000 HD
ATOM     13  H   UNL     1      48.732   2.809  20.494  0.00  0.00    +0.000 HD
ENDBRANCH   5   9
BRANCH   1  14
ATOM     14  C   UNL     1      45.738   4.552  13.381  0.00  0.00    +0.000 C 
BRANCH  14  16
ATOM     15  C   UNL     1      43.758   5.756  12.233  0.00  0.00    +0.000 C 
ATOM     16  C   UNL     1      45.088   5.066  12.121  0.00  0.00    +0.000 C 
BRANCH  16  17
ATOM     17  C   UNL     1      45.396   4.279  10.849  0.00  0.00    +0.000 C 
ATOM     18  C   UNL     1      45.559   5.180   9.613  0.00  0.00    +0.000 C 
ATOM     19  C   UNL     1      45.826   4.374   8.343  0.00  0.00    +0.000 C 
ATOM     20  C   UNL     1      44.736   3.333   8.112  0.00  0.00    +0.000 C 
ATOM     21  C   UNL     1      44.604   2.402   9.312  0.00  0.00    +0.000 C 
ATOM     22  C   UNL     1      44.345   3.178  10.602  0.00  0.00    +0.000 C 
ENDBRANCH  16  17
ENDBRANCH  14  16
ENDBRANCH   1  14
TORSDOF 4
ENDMDL
