MODEL 1
REMARK VINA RESULT:    -8.377      0.000      0.000
REMARK INTER + INTRA:         -12.628
REMARK INTER:                 -11.805
REMARK INTRA:                  -0.823
REMARK UNBOUND:                -0.823
REMARK  Name = 
REMARK  7 active torsions:
REMARK  status: ('A' for Active; 'I' for Inactive)
REMARK    1  A    between atoms: C_2  and  C_3
REMARK    2  A    between atoms: N_7  and  C_8
REMARK    3  A    between atoms: C_8  and  C_9
REMARK    4  A    between atoms: C_9  and  C_10
REMARK    5  A    between atoms: C_9  and  C_12
REMARK    6  A    between atoms: C_16  and  O_17
REMARK    7  A    between atoms: O_17  and  C_18
REMARK                            x       y       z     vdW  Elec       q    Type
REMARK                         _______ _______ _______ _____ _____    ______ ____
ROOT
ATOM      1  C   UNL     1      43.744   4.876  12.447  0.00  0.00    +0.000 C 
ENDROOT
BRANCH   1   2
ATOM      2  C   UNL     1      45.209   5.276  12.576  0.00  0.00    +0.000 A 
ATOM      3  C   UNL     1      45.760   6.185  11.660  0.00  0.00    +0.000 A 
ATOM      4  C   UNL     1      47.050   6.688  11.843  0.00  0.00    +0.000 A 
ATOM      5  C   UNL     1      47.815   6.289  12.943  0.00  0.00    +0.000 A 
ATOM      6  C   UNL     1      47.295   5.361  13.838  0.00  0.00    +0.000 A 
ATOM      7  C   UNL     1      46.007   4.855  13.648  0.00  0.00    +0.000 A 
BRANCH   6   8
ATOM      8  O   UNL     1      47.913   4.919  14.977  0.00  0.00    +0.000 OA
BRANCH   8   9
ATOM      9  C   UNL     1      47.235   3.994  15.847  0.00  0.00    +0.000 C 
ATOM     10  C   UNL     1      47.160   4.358  17.352  0.00  0.00    +0.000 C 
ATOM     11  C   UNL     1      47.527   2.901  17.679  0.00  0.00    +0.000 C 
ATOM     12  C   UNL     1      48.115   2.787  16.266  0.00  0.00    +0.000 C 
ENDBRANCH   8   9
ENDBRANCH   6   8
ENDBRANCH   1   2
BRANCH   1  13
ATOM     13  C   UNL     1      42.773   6.007  12.087  0.00  0.00    +0.000 C 
ATOM     14  F   UNL     1      41.575   5.473  11.719  0.00  0.00    +0.000 F 
ENDBRANCH   1  13
BRANCH   1  15
ATOM     15  C   UNL     1      43.592   3.699  11.453  0.00  0.00    +0.000 C 
BRANCH  15  20
ATOM     16  C   UNL     1      46.588   2.485   7.495  0.00  0.00    +0.000 A 
ATOM     17  C   UNL     1      46.000   1.652   8.440  0.00  0.00    +0.000 A 
ATOM     18  C   UNL     1      45.072   2.181   9.341  0.00  0.00    +0.000 A 
ATOM     19  C   UNL     1      44.760   3.534   9.289  0.00  0.00    +0.000 A 
ATOM     20  N   UNL     1      43.783   4.124  10.070  0.00  0.00    +0.000 N 
ATOM     21  N   UNL     1      45.339   4.354   8.390  0.00  0.00    +0.000 NA
ATOM     22  C   UNL     1      46.230   3.822   7.514  0.00  0.00    +0.000 A 
ATOM     23  H   UNL     1      43.903   5.130   9.940  0.00  0.00    +0.000 HD
BRANCH  16  25
ATOM     24  N   UNL     1      48.256   1.583   5.734  0.00  0.00    +0.000 NA
ATOM     25  C   UNL     1      47.512   1.984   6.526  0.00  0.00    +0.000 C 
ENDBRANCH  16  25
ENDBRANCH  15  20
ENDBRANCH   1  15
TORSDOF 7
ENDMDL
MODEL 2
REMARK VINA RESULT:    -7.526      1.806      3.410
REMARK INTER + INTRA:         -11.428
REMARK INTER:                 -10.990
REMARK INTRA:                  -0.439
REMARK UNBOUND:                -0.823
REMARK  Name = 
REMARK  7 active torsions:
REMARK  status: ('A' for Active; 'I' for Inactive)
REMARK    1  A    between atoms: C_2  and  C_3
REMARK    2  A    between atoms: N_7  and  C_8
REMARK    3  A    between atoms: C_8  and  C_9
REMARK    4  A    between atoms: C_9  and  C_10
REMARK    5  A    between atoms: C_9  and  C_12
REMARK    6  A    between atoms: C_16  and  O_17
REMARK    7  A    between atoms: O_17  and  C_18
REMARK                            x       y       z     vdW  Elec       q    Type
REMARK                         _______ _______ _______ _____ _____    ______ ____
ROOT
ATOM      1  C   UNL     1      43.297   4.718  12.201  0.00  0.00    +0.000 C 
ENDROOT
BRANCH   1   2
ATOM      2  C   UNL     1      44.670   5.007  12.795  0.00  0.00    +0.000 A 
ATOM      3  C   UNL     1      45.527   3.939  13.105  0.00  0.00    +0.000 A 
ATOM      4  C   UNL     1      46.844   4.176  13.504  0.00  0.00    +0.000 A 
ATOM      5  C   UNL     1      47.330   5.483  13.603  0.00  0.00    +0.000 A 
ATOM      6  C   UNL     1      46.481   6.550  13.332  0.00  0.00    +0.000 A 
ATOM      7  C   UNL     1      45.162   6.311  12.941  0.00  0.00    +0.000 A 
BRANCH   6   8
ATOM      8  O   UNL     1      46.835   7.873  13.344  0.00  0.00    +0.000 OA
BRANCH   8   9
ATOM      9  C   UNL     1      47.327   8.494  12.142  0.00  0.00    +0.000 C 
ATOM     10  C   UNL     1      48.765   8.130  11.692  0.00  0.00    +0.000 C 
ATOM     11  C   UNL     1      49.009   9.622  11.410  0.00  0.00    +0.000 C 
ATOM     12  C   UNL     1      47.849   9.938  12.364  0.00  0.00    +0.000 C 
ENDBRANCH   8   9
ENDBRANCH   6   8
ENDBRANCH   1   2
BRANCH   1  13
ATOM     13  C   UNL     1      42.580   5.914  11.562  0.00  0.00    +0.000 C 
ATOM     14  F   UNL     1      43.504   6.773  11.049  0.00  0.00    +0.000 F 
ENDBRANCH   1  13
BRANCH   1  15
ATOM     15  C   UNL     1      43.380   3.541  11.198  0.00  0.00    +0.000 C 
BRANCH  15  20
ATOM     16  C   UNL     1      46.637   2.450   7.415  0.00  0.00    +0.000 A 
ATOM     17  C   UNL     1      46.000   1.589   8.302  0.00  0.00    +0.000 A 
ATOM     18  C   UNL     1      45.009   2.088   9.152  0.00  0.00    +0.000 A 
ATOM     19  C   UNL     1      44.686   3.439   9.110  0.00  0.00    +0.000 A 
ATOM     20  N   UNL     1      43.654   4.000   9.840  0.00  0.00    +0.000 N 
ATOM     21  N   UNL     1      45.311   4.285   8.268  0.00  0.00    +0.000 NA
ATOM     22  C   UNL     1      46.263   3.783   7.440  0.00  0.00    +0.000 A 
ATOM     23  H   UNL     1      43.770   5.010   9.741  0.00  0.00    +0.000 HD
BRANCH  16  25
ATOM     24  N   UNL     1      48.424   1.605   5.745  0.00  0.00    +0.000 NA
ATOM     25  C   UNL     1      47.627   1.982   6.496  0.00  0.00    +0.000 C 
ENDBRANCH  16  25
ENDBRANCH  15  20
ENDBRANCH   1  15
TORSDOF 7
ENDMDL
MODEL 3
REMARK VINA RESULT:    -7.308      2.385      4.353
REMARK INTER + INTRA:         -11.122
REMARK INTER:                 -10.424
REMARK INTRA:                  -0.698
REMARK UNBOUND:                -0.823
REMARK  Name = 
REMARK  7 active torsions:
REMARK  status: ('A' for Active; 'I' for Inactive)
REMARK    1  A    between atoms: C_2  and  C_3
REMARK    2  A    between atoms: N_7  and  C_8
REMARK    3  A    between atoms: C_8  and  C_9
REMARK    4  A    between atoms: C_9  and  C_10
REMARK    5  A    between atoms: C_9  and  C_12
REMARK    6  A    between atoms: C_16  and  O_17
REMARK    7  A    between atoms: O_17  and  C_18
REMARK                            x       y       z     vdW  Elec       q    Type
REMARK                         _______ _______ _______ _____ _____    ______ ____
ROOT
ATOM      1  C   UNL     1      44.518   4.128  11.862  0.00  0.00    +0.000 C 
ENDROOT
BRANCH   1   2
ATOM      2  C   UNL     1      45.308   5.297  12.439  0.00  0.00    +0.000 A 
ATOM      3  C   UNL     1      46.618   5.086  12.897  0.00  0.00    +0.000 A 
ATOM      4  C   UNL     1      47.419   6.161  13.286  0.00  0.00    +0.000 A 
ATOM      5  C   UNL     1      46.926   7.468  13.227  0.00  0.00    +0.000 A 
ATOM      6  C   UNL     1      45.619   7.688  12.808  0.00  0.00    +0.000 A 
ATOM      7  C   UNL     1      44.818   6.610  12.427  0.00  0.00    +0.000 A 
BRANCH   6   8
ATOM      8  O   UNL     1      45.026   8.913  12.658  0.00  0.00    +0.000 OA
BRANCH   8   9
ATOM      9  C   UNL     1      44.926   9.505  11.350  0.00  0.00    +0.000 C 
ATOM     10  C   UNL     1      45.254  11.015  11.227  0.00  0.00    +0.000 C 
ATOM     11  C   UNL     1      44.011  11.169  10.333  0.00  0.00    +0.000 C 
ATOM     12  C   UNL     1      43.472   9.871  10.950  0.00  0.00    +0.000 C 
ENDBRANCH   8   9
ENDBRANCH   6   8
ENDBRANCH   1   2
BRANCH   1  13
ATOM     13  C   UNL     1      43.931   3.149  12.886  0.00  0.00    +0.000 C 
ATOM     14  F   UNL     1      43.094   3.820  13.725  0.00  0.00    +0.000 F 
ENDBRANCH   1  13
BRANCH   1  15
ATOM     15  C   UNL     1      43.409   4.644  10.913  0.00  0.00    +0.000 C 
BRANCH  15  20
ATOM     16  C   UNL     1      46.692   2.769   7.476  0.00  0.00    +0.000 A 
ATOM     17  C   UNL     1      45.764   2.096   8.263  0.00  0.00    +0.000 A 
ATOM     18  C   UNL     1      44.841   2.829   9.015  0.00  0.00    +0.000 A 
ATOM     19  C   UNL     1      44.874   4.217   8.978  0.00  0.00    +0.000 A 
ATOM     20  N   UNL     1      43.940   5.020   9.607  0.00  0.00    +0.000 N 
ATOM     21  N   UNL     1      45.782   4.879   8.234  0.00  0.00    +0.000 NA
ATOM     22  C   UNL     1      46.664   4.153   7.500  0.00  0.00    +0.000 A 
ATOM     23  H   UNL     1      44.316   5.968   9.550  0.00  0.00    +0.000 HD
BRANCH  16  25
ATOM     24  N   UNL     1      48.397   1.502   5.998  0.00  0.00    +0.000 NA
ATOM     25  C   UNL     1      47.630   2.067   6.657  0.00  0.00    +0.000 C 
ENDBRANCH  16  25
ENDBRANCH  15  20
ENDBRANCH   1  15
TORSDOF 7
ENDMDL
MODEL 4
REMARK VINA RESULT:    -7.049      3.618      7.865
REMARK INTER + INTRA:         -10.757
REMARK INTER:                  -9.914
REMARK INTRA:                  -0.843
REMARK UNBOUND:                -0.823
REMARK  Name = 
REMARK  7 active torsions:
REMARK  status: ('A' for Active; 'I' for Inactive)
REMARK    1  A    between atoms: C_2  and  C_3
REMARK    2  A    between atoms: N_7  and  C_8
REMARK    3  A    between atoms: C_8  and  C_9
REMARK    4  A    between atoms: C_9  and  C_10
REMARK    5  A    between atoms: C_9  and  C_12
REMARK    6  A    between atoms: C_16  and  O_17
REMARK    7  A    between atoms: O_17  and  C_18
REMARK                            x       y       z     vdW  Elec       q    Type
REMARK                         _______ _______ _______ _____ _____    ______ ____
ROOT
ATOM      1  C   UNL     1      45.564   5.991  11.596  0.00  0.00    +0.000 C 
ENDROOT
BRANCH   1   2
ATOM      2  C   UNL     1      45.249   4.757  10.758  0.00  0.00    +0.000 A 
ATOM      3  C   UNL     1      44.561   3.682  11.342  0.00  0.00    +0.000 A 
ATOM      4  C   UNL     1      44.123   2.608  10.564  0.00  0.00    +0.000 A 
ATOM      5  C   UNL     1      44.367   2.587   9.188  0.00  0.00    +0.000 A 
ATOM      6  C   UNL     1      45.077   3.628   8.602  0.00  0.00    +0.000 A 
ATOM      7  C   UNL     1      45.520   4.697   9.384  0.00  0.00    +0.000 A 
BRANCH   6   8
ATOM      8  O   UNL     1      45.345   3.758   7.265  0.00  0.00    +0.000 OA
BRANCH   8   9
ATOM      9  C   UNL     1      46.693   3.595   6.786  0.00  0.00    +0.000 C 
ATOM     10  C   UNL     1      46.874   3.162   5.309  0.00  0.00    +0.000 C 
ATOM     11  C   UNL     1      47.947   2.165   5.777  0.00  0.00    +0.000 C 
ATOM     12  C   UNL     1      47.325   2.233   7.178  0.00  0.00    +0.000 C 
ENDBRANCH   8   9
ENDBRANCH   6   8
ENDBRANCH   1   2
BRANCH   1  13
ATOM     13  C   UNL     1      44.541   7.131  11.516  0.00  0.00    +0.000 C 
ATOM     14  F   UNL     1      43.302   6.611  11.298  0.00  0.00    +0.000 F 
ENDBRANCH   1  13
BRANCH   1  15
ATOM     15  C   UNL     1      45.813   5.591  13.070  0.00  0.00    +0.000 C 
BRANCH  15  20
ATOM     16  C   UNL     1      48.709   4.924  17.226  0.00  0.00    +0.000 A 
ATOM     17  C   UNL     1      47.682   4.126  16.733  0.00  0.00    +0.000 A 
ATOM     18  C   UNL     1      47.136   4.407  15.478  0.00  0.00    +0.000 A 
ATOM     19  C   UNL     1      47.615   5.487  14.748  0.00  0.00    +0.000 A 
ATOM     20  N   UNL     1      47.206   5.781  13.459  0.00  0.00    +0.000 N 
ATOM     21  N   UNL     1      48.596   6.278  15.225  0.00  0.00    +0.000 NA
ATOM     22  C   UNL     1      49.125   5.985  16.441  0.00  0.00    +0.000 A 
ATOM     23  H   UNL     1      47.589   6.705  13.258  0.00  0.00    +0.000 HD
BRANCH  16  25
ATOM     24  N   UNL     1      49.839   4.440  19.504  0.00  0.00    +0.000 NA
ATOM     25  C   UNL     1      49.329   4.654  18.486  0.00  0.00    +0.000 C 
ENDBRANCH  16  25
ENDBRANCH  15  20
ENDBRANCH   1  15
TORSDOF 7
ENDMDL
MODEL 5
REMARK VINA RESULT:    -7.023      2.386      3.310
REMARK INTER + INTRA:         -10.720
REMARK INTER:                 -10.115
REMARK INTRA:                  -0.605
REMARK UNBOUND:                -0.823
REMARK  Name = 
REMARK  7 active torsions:
REMARK  status: ('A' for Active; 'I' for Inactive)
REMARK    1  A    between atoms: C_2  and  C_3
REMARK    2  A    between atoms: N_7  and  C_8
REMARK    3  A    between atoms: C_8  and  C_9
REMARK    4  A    between atoms: C_9  and  C_10
REMARK    5  A    between atoms: C_9  and  C_12
REMARK    6  A    between atoms: C_16  and  O_17
REMARK    7  A    between atoms: O_17  and  C_18
REMARK                            x       y       z     vdW  Elec       q    Type
REMARK                         _______ _______ _______ _____ _____    ______ ____
ROOT
ATOM      1  C   UNL     1      44.674   4.540  11.898  0.00  0.00    +0.000 C 
ENDROOT
BRANCH   1   2
ATOM      2  C   UNL     1      45.245   5.950  11.997  0.00  0.00    +0.000 A 
ATOM      3  C   UNL     1      44.461   7.043  11.595  0.00  0.00    +0.000 A 
ATOM      4  C   UNL     1      44.895   8.351  11.817  0.00  0.00    +0.000 A 
ATOM      5  C   UNL     1      46.121   8.593  12.444  0.00  0.00    +0.000 A 
ATOM      6  C   UNL     1      46.923   7.520  12.816  0.00  0.00    +0.000 A 
ATOM      7  C   UNL     1      46.490   6.213  12.585  0.00  0.00    +0.000 A 
BRANCH   6   8
ATOM      8  O   UNL     1      48.119   7.611  13.476  0.00  0.00    +0.000 OA
BRANCH   8   9
ATOM      9  C   UNL     1      49.166   8.448  12.950  0.00  0.00    +0.000 C 
ATOM     10  C   UNL     1      49.731   8.085  11.554  0.00  0.00    +0.000 C 
ATOM     11  C   UNL     1      51.145   8.322  12.111  0.00  0.00    +0.000 C 
ATOM     12  C   UNL     1      50.569   8.107  13.517  0.00  0.00    +0.000 C 
ENDBRANCH   8   9
ENDBRANCH   6   8
ENDBRANCH   1   2
BRANCH   1  13
ATOM     13  C   UNL     1      44.301   3.876  13.228  0.00  0.00    +0.000 C 
ATOM     14  F   UNL     1      43.325   2.950  13.013  0.00  0.00    +0.000 F 
ENDBRANCH   1  13
BRANCH   1  15
ATOM     15  C   UNL     1      43.470   4.514  10.925  0.00  0.00    +0.000 C 
BRANCH  15  20
ATOM     16  C   UNL     1      46.680   2.661   7.409  0.00  0.00    +0.000 A 
ATOM     17  C   UNL     1      45.883   1.976   8.319  0.00  0.00    +0.000 A 
ATOM     18  C   UNL     1      44.944   2.681   9.077  0.00  0.00    +0.000 A 
ATOM     19  C   UNL     1      44.832   4.057   8.924  0.00  0.00    +0.000 A 
ATOM     20  N   UNL     1      43.868   4.821   9.556  0.00  0.00    +0.000 N 
ATOM     21  N   UNL     1      45.614   4.733   8.059  0.00  0.00    +0.000 NA
ATOM     22  C   UNL     1      46.513   4.032   7.321  0.00  0.00    +0.000 A 
ATOM     23  H   UNL     1      44.140   5.791   9.392  0.00  0.00    +0.000 HD
BRANCH  16  25
ATOM     24  N   UNL     1      48.393   1.437   5.904  0.00  0.00    +0.000 NA
ATOM     25  C   UNL     1      47.626   1.981   6.580  0.00  0.00    +0.000 C 
ENDBRANCH  16  25
ENDBRANCH  15  20
ENDBRANCH   1  15
TORSDOF 7
ENDMDL
MODEL 6
REMARK VINA RESULT:    -6.908      4.214      7.851
REMARK INTER + INTRA:         -10.558
REMARK INTER:                  -9.905
REMARK INTRA:                  -0.653
REMARK UNBOUND:                -0.823
REMARK  Name = 
REMARK  7 active torsions:
REMARK  status: ('A' for Active; 'I' for Inactive)
REMARK    1  A    between atoms: C_2  and  C_3
REMARK    2  A    between atoms: N_7  and  C_8
REMARK    3  A    between atoms: C_8  and  C_9
REMARK    4  A    between atoms: C_9  and  C_10
REMARK    5  A    between atoms: C_9  and  C_12
REMARK    6  A    between atoms: C_16  and  O_17
REMARK    7  A    between atoms: O_17  and  C_18
REMARK                            x       y       z     vdW  Elec       q    Type
REMARK                         _______ _______ _______ _____ _____    ______ ____
ROOT
ATOM      1  C   UNL     1      46.911   4.846  13.647  0.00  0.00    +0.000 C 
ENDROOT
BRANCH   1   2
ATOM      2  C   UNL     1      45.573   4.522  12.992  0.00  0.00    +0.000 A 
ATOM      3  C   UNL     1      44.470   5.357  13.227  0.00  0.00    +0.000 A 
ATOM      4  C   UNL     1      43.277   5.177  12.523  0.00  0.00    +0.000 A 
ATOM      5  C   UNL     1      43.163   4.158  11.574  0.00  0.00    +0.000 A 
ATOM      6  C   UNL     1      44.237   3.301  11.357  0.00  0.00    +0.000 A 
ATOM      7  C   UNL     1      45.426   3.479  12.068  0.00  0.00    +0.000 A 
BRANCH   6   8
ATOM      8  O   UNL     1      44.279   2.295  10.429  0.00  0.00    +0.000 OA
BRANCH   8   9
ATOM      9  C   UNL     1      44.478   2.611   9.039  0.00  0.00    +0.000 C 
ATOM     10  C   UNL     1      45.761   2.063   8.363  0.00  0.00    +0.000 C 
ATOM     11  C   UNL     1      45.953   3.442   7.708  0.00  0.00    +0.000 C 
ATOM     12  C   UNL     1      45.060   4.031   8.808  0.00  0.00    +0.000 C 
ENDBRANCH   8   9
ENDBRANCH   6   8
ENDBRANCH   1   2
BRANCH   1  13
ATOM     13  C   UNL     1      47.523   6.204  13.281  0.00  0.00    +0.000 C 
ATOM     14  F   UNL     1      48.821   6.029  12.908  0.00  0.00    +0.000 F 
ENDBRANCH   1  13
BRANCH   1  15
ATOM     15  C   UNL     1      46.809   4.697  15.184  0.00  0.00    +0.000 C 
BRANCH  15  20
ATOM     16  C   UNL     1      50.883   2.614  17.459  0.00  0.00    +0.000 A 
ATOM     17  C   UNL     1      50.275   3.842  17.697  0.00  0.00    +0.000 A 
ATOM     18  C   UNL     1      49.060   4.139  17.075  0.00  0.00    +0.000 A 
ATOM     19  C   UNL     1      48.484   3.212  16.215  0.00  0.00    +0.000 A 
ATOM     20  N   UNL     1      47.240   3.378  15.635  0.00  0.00    +0.000 N 
ATOM     21  N   UNL     1      49.075   2.028  15.962  0.00  0.00    +0.000 NA
ATOM     22  C   UNL     1      50.250   1.749  16.584  0.00  0.00    +0.000 A 
ATOM     23  H   UNL     1      47.166   2.637  14.935  0.00  0.00    +0.000 HD
BRANCH  16  25
ATOM     24  N   UNL     1      53.099   1.949  18.617  0.00  0.00    +0.000 NA
ATOM     25  C   UNL     1      52.105   2.245  18.103  0.00  0.00    +0.000 C 
ENDBRANCH  16  25
ENDBRANCH  15  20
ENDBRANCH   1  15
TORSDOF 7
ENDMDL
MODEL 7
REMARK VINA RESULT:    -6.588      3.723      7.570
REMARK INTER + INTRA:         -10.107
REMARK INTER:                  -9.160
REMARK INTRA:                  -0.946
REMARK UNBOUND:                -0.823
REMARK  Name = 
REMARK  7 active torsions:
REMARK  status: ('A' for Active; 'I' for Inactive)
REMARK    1  A    between atoms: C_2  and  C_3
REMARK    2  A    between atoms: N_7  and  C_8
REMARK    3  A    between atoms: C_8  and  C_9
REMARK    4  A    between atoms: C_9  and  C_10
REMARK    5  A    between atoms: C_9  and  C_12
REMARK    6  A    between atoms: C_16  and  O_17
REMARK    7  A    between atoms: O_17  and  C_18
REMARK                            x       y       z     vdW  Elec       q    Type
REMARK                         _______ _______ _______ _____ _____    ______ ____
ROOT
ATOM      1  C   UNL     1      45.475   6.441  11.671  0.00  0.00    +0.000 C 
ENDROOT
BRANCH   1   2
ATOM      2  C   UNL     1      45.241   5.178  10.850  0.00  0.00    +0.000 A 
ATOM      3  C   UNL     1      44.511   4.117  11.408  0.00  0.00    +0.000 A 
ATOM      4  C   UNL     1      44.150   3.015  10.631  0.00  0.00    +0.000 A 
ATOM      5  C   UNL     1      44.512   2.950   9.283  0.00  0.00    +0.000 A 
ATOM      6  C   UNL     1      45.265   3.978   8.727  0.00  0.00    +0.000 A 
ATOM      7  C   UNL     1      45.632   5.076   9.508  0.00  0.00    +0.000 A 
BRANCH   6   8
ATOM      8  O   UNL     1      45.647   4.067   7.414  0.00  0.00    +0.000 OA
BRANCH   8   9
ATOM      9  C   UNL     1      46.120   2.894   6.726  0.00  0.00    +0.000 C 
ATOM     10  C   UNL     1      47.432   2.250   7.241  0.00  0.00    +0.000 C 
ATOM     11  C   UNL     1      47.889   2.112   5.778  0.00  0.00    +0.000 C 
ATOM     12  C   UNL     1      46.888   3.218   5.417  0.00  0.00    +0.000 C 
ENDBRANCH   8   9
ENDBRANCH   6   8
ENDBRANCH   1   2
BRANCH   1  13
ATOM     13  C   UNL     1      44.526   7.611  11.382  0.00  0.00    +0.000 C 
ATOM     14  F   UNL     1      43.297   7.125  11.052  0.00  0.00    +0.000 F 
ENDBRANCH   1  13
BRANCH   1  15
ATOM     15  C   UNL     1      45.475   6.109  13.183  0.00  0.00    +0.000 C 
BRANCH  15  20
ATOM     16  C   UNL     1      49.681   8.954  13.750  0.00  0.00    +0.000 A 
ATOM     17  C   UNL     1      48.348   9.313  13.917  0.00  0.00    +0.000 A 
ATOM     18  C   UNL     1      47.360   8.325  13.879  0.00  0.00    +0.000 A 
ATOM     19  C   UNL     1      47.722   7.002  13.660  0.00  0.00    +0.000 A 
ATOM     20  N   UNL     1      46.827   5.948  13.706  0.00  0.00    +0.000 N 
ATOM     21  N   UNL     1      49.009   6.646  13.478  0.00  0.00    +0.000 NA
ATOM     22  C   UNL     1      49.958   7.616  13.530  0.00  0.00    +0.000 A 
ATOM     23  H   UNL     1      47.339   5.143  13.341  0.00  0.00    +0.000 HD
BRANCH  16  25
ATOM     24  N   UNL     1      51.578  10.710  13.879  0.00  0.00    +0.000 NA
ATOM     25  C   UNL     1      50.732   9.920  13.822  0.00  0.00    +0.000 C 
ENDBRANCH  16  25
ENDBRANCH  15  20
ENDBRANCH   1  15
TORSDOF 7
ENDMDL
MODEL 8
REMARK VINA RESULT:    -6.436      3.981      7.437
REMARK INTER + INTRA:          -9.893
REMARK INTER:                  -9.193
REMARK INTRA:                  -0.700
REMARK UNBOUND:                -0.823
REMARK  Name = 
REMARK  7 active torsions:
REMARK  status: ('A' for Active; 'I' for Inactive)
REMARK    1  A    between atoms: C_2  and  C_3
REMARK    2  A    between atoms: N_7  and  C_8
REMARK    3  A    between atoms: C_8  and  C_9
REMARK    4  A    between atoms: C_9  and  C_10
REMARK    5  A    between atoms: C_9  and  C_12
REMARK    6  A    between atoms: C_16  and  O_17
REMARK    7  A    between atoms: O_17  and  C_18
REMARK                            x       y       z     vdW  Elec       q    Type
REMARK                         _______ _______ _______ _____ _____    ______ ____
ROOT
ATOM      1  C   UNL     1      45.889   6.557  11.757  0.00  0.00    +0.000 C 
ENDROOT
BRANCH   1   2
ATOM      2  C   UNL     1      45.397   5.359  10.953  0.00  0.00    +0.000 A 
ATOM      3  C   UNL     1      44.498   4.455  11.541  0.00  0.00    +0.000 A 
ATOM      4  C   UNL     1      43.911   3.439  10.784  0.00  0.00    +0.000 A 
ATOM      5  C   UNL     1      44.214   3.305   9.425  0.00  0.00    +0.000 A 
ATOM      6  C   UNL     1      45.129   4.171   8.839  0.00  0.00    +0.000 A 
ATOM      7  C   UNL     1      45.720   5.182   9.601  0.00  0.00    +0.000 A 
BRANCH   6   8
ATOM      8  O   UNL     1      45.481   4.183   7.516  0.00  0.00    +0.000 OA
BRANCH   8   9
ATOM      9  C   UNL     1      46.749   3.637   7.107  0.00  0.00    +0.000 C 
ATOM     10  C   UNL     1      46.875   3.156   5.639  0.00  0.00    +0.000 C 
ATOM     11  C   UNL     1      47.592   1.898   6.158  0.00  0.00    +0.000 C 
ATOM     12  C   UNL     1      46.943   2.155   7.524  0.00  0.00    +0.000 C 
ENDBRANCH   8   9
ENDBRANCH   6   8
ENDBRANCH   1   2
BRANCH   1  13
ATOM     13  C   UNL     1      44.855   7.661  12.010  0.00  0.00    +0.000 C 
ATOM     14  F   UNL     1      45.338   8.847  11.548  0.00  0.00    +0.000 F 
ENDBRANCH   1  13
BRANCH   1  15
ATOM     15  C   UNL     1      46.517   6.089  13.092  0.00  0.00    +0.000 C 
BRANCH  15  20
ATOM     16  C   UNL     1      51.087   8.359  12.832  0.00  0.00    +0.000 A 
ATOM     17  C   UNL     1      50.276   7.896  11.802  0.00  0.00    +0.000 A 
ATOM     18  C   UNL     1      48.980   7.461  12.091  0.00  0.00    +0.000 A 
ATOM     19  C   UNL     1      48.525   7.484  13.403  0.00  0.00    +0.000 A 
ATOM     20  N   UNL     1      47.228   7.168  13.768  0.00  0.00    +0.000 N 
ATOM     21  N   UNL     1      49.309   7.912  14.411  0.00  0.00    +0.000 NA
ATOM     22  C   UNL     1      50.563   8.342  14.113  0.00  0.00    +0.000 A 
ATOM     23  H   UNL     1      47.242   7.105  14.787  0.00  0.00    +0.000 HD
BRANCH  16  25
ATOM     24  N   UNL     1      53.477   9.246  12.388  0.00  0.00    +0.000 NA
ATOM     25  C   UNL     1      52.406   8.853  12.584  0.00  0.00    +0.000 C 
ENDBRANCH  16  25
ENDBRANCH  15  20
ENDBRANCH   1  15
TORSDOF 7
ENDMDL
MODEL 9
REMARK VINA RESULT:    -5.809      4.269      8.201
REMARK INTER + INTRA:          -9.009
REMARK INTER:                  -8.041
REMARK INTRA:                  -0.968
REMARK UNBOUND:                -0.823
REMARK  Name = 
REMARK  7 active torsions:
REMARK  status: ('A' for Active; 'I' for Inactive)
REMARK    1  A    between atoms: C_2  and  C_3
REMARK    2  A    between atoms: N_7  and  C_8
REMARK    3  A    between atoms: C_8  and  C_9
REMARK    4  A    between atoms: C_9  and  C_10
REMARK    5  A    between atoms: C_9  and  C_12
REMARK    6  A    between atoms: C_16  and  O_17
REMARK    7  A    between atoms: O_17  and  C_18
REMARK                            x       y       z     vdW  Elec       q    Type
REMARK                         _______ _______ _______ _____ _____    ______ ____
ROOT
ATOM      1  C   UNL     1      47.678   7.488  12.087  0.00  0.00    +0.000 C 
ENDROOT
BRANCH   1   2
ATOM      2  C   UNL     1      46.779   6.258  12.114  0.00  0.00    +0.000 A 
ATOM      3  C   UNL     1      46.797   5.414  13.235  0.00  0.00    +0.000 A 
ATOM      4  C   UNL     1      45.877   4.370  13.356  0.00  0.00    +0.000 A 
ATOM      5  C   UNL     1      44.923   4.148  12.358  0.00  0.00    +0.000 A 
ATOM      6  C   UNL     1      44.917   4.955  11.226  0.00  0.00    +0.000 A 
ATOM      7  C   UNL     1      45.843   5.994  11.104  0.00  0.00    +0.000 A 
BRANCH   6   8
ATOM      8  O   UNL     1      44.015   4.881  10.199  0.00  0.00    +0.000 OA
BRANCH   8   9
ATOM      9  C   UNL     1      44.201   3.910   9.151  0.00  0.00    +0.000 C 
ATOM     10  C   UNL     1      44.715   2.509   9.566  0.00  0.00    +0.000 C 
ATOM     11  C   UNL     1      45.682   2.557   8.370  0.00  0.00    +0.000 C 
ATOM     12  C   UNL     1      45.537   4.084   8.382  0.00  0.00    +0.000 C 
ENDBRANCH   8   9
ENDBRANCH   6   8
ENDBRANCH   1   2
BRANCH   1  13
ATOM     13  C   UNL     1      47.022   8.805  12.519  0.00  0.00    +0.000 C 
ATOM     14  F   UNL     1      46.010   8.540  13.391  0.00  0.00    +0.000 F 
ENDBRANCH   1  13
BRANCH   1  15
ATOM     15  C   UNL     1      48.965   7.233  12.908  0.00  0.00    +0.000 C 
BRANCH  15  20
ATOM     16  C   UNL     1      48.594   7.410  18.001  0.00  0.00    +0.000 A 
ATOM     17  C   UNL     1      49.092   6.396  17.191  0.00  0.00    +0.000 A 
ATOM     18  C   UNL     1      49.260   6.628  15.823  0.00  0.00    +0.000 A 
ATOM     19  C   UNL     1      48.914   7.863  15.290  0.00  0.00    +0.000 A 
ATOM     20  N   UNL     1      49.138   8.217  13.971  0.00  0.00    +0.000 N 
ATOM     21  N   UNL     1      48.412   8.847  16.062  0.00  0.00    +0.000 NA
ATOM     22  C   UNL     1      48.266   8.609  17.391  0.00  0.00    +0.000 A 
ATOM     23  H   UNL     1      48.632   9.093  13.836  0.00  0.00    +0.000 HD
BRANCH  16  25
ATOM     24  N   UNL     1      48.321   7.087  20.554  0.00  0.00    +0.000 NA
ATOM     25  C   UNL     1      48.442   7.236  19.412  0.00  0.00    +0.000 C 
ENDBRANCH  16  25
ENDBRANCH  15  20
ENDBRANCH   1  15
TORSDOF 7
ENDMDL
