MODEL 1
REMARK VINA RESULT:    -7.498      0.000      0.000
REMARK INTER + INTRA:          -9.944
REMARK INTER:                  -9.470
REMARK INTRA:                  -0.474
REMARK UNBOUND:                -0.474
REMARK  Name = 
REMARK  5 active torsions:
REMARK  status: ('A' for Active; 'I' for Inactive)
REMARK    1  A    between atoms: N_1  and  C_2
REMARK    2  A    between atoms: C_2  and  C_3
REMARK    3  A    between atoms: C_3  and  C_4
REMARK    4  A    between atoms: C_7  and  C_8
REMARK    5  A    between atoms: C_8  and  N_9
REMARK                            x       y       z     vdW  Elec       q    Type
REMARK                         _______ _______ _______ _____ _____    ______ ____
ROOT
ATOM      1  C   UNL     1      46.148   2.259   7.809  0.00  0.00    +0.000 A 
ATOM      2  C   UNL     1      45.357   1.647   8.787  0.00  0.00    +0.000 A 
ATOM      3  C   UNL     1      44.534   2.418   9.610  0.00  0.00    +0.000 A 
ATOM      4  C   UNL     1      44.548   3.806   9.468  0.00  0.00    +0.000 A 
ATOM      5  N   UNL     1      45.286   4.417   8.502  0.00  0.00    +0.000 NA
ATOM      6  C   UNL     1      46.051   3.641   7.700  0.00  0.00    +0.000 A 
ENDROOT
BRANCH   1   7
ATOM      7  C   UNL     1      47.043   1.463   6.910  0.00  0.00    +0.000 C 
BRANCH   7   8
ATOM      8  C   UNL     1      48.280   2.258   6.490  0.00  0.00    +0.000 C 
BRANCH   8   9
ATOM      9  N   UNL     1      48.268   2.526   5.054  0.00  0.00    +0.000 NA
ATOM     10  H   UNL     1      49.032   2.017   4.611  0.00  0.00    +0.000 HD
ATOM     11  H   UNL     1      48.454   3.515   4.886  0.00  0.00    +0.000 HD
ENDBRANCH   8   9
ENDBRANCH   7   8
ENDBRANCH   1   7
BRANCH   4  12
ATOM     12  C   UNL     1      43.749   4.718  10.363  0.00  0.00    +0.000 C 
BRANCH  12  13
ATOM     13  N   UNL     1      44.580   5.532  11.241  0.00  0.00    +0.000 N 
ATOM     14  N   UNL     1      44.552   6.879  11.097  0.00  0.00    +0.000 NA
ATOM     15  C   UNL     1      45.382   7.318  12.045  0.00  0.00    +0.000 A 
ATOM     16  C   UNL     1      45.957   6.273  12.797  0.00  0.00    +0.000 A 
ATOM     17  C   UNL     1      46.837   6.189  13.890  0.00  0.00    +0.000 A 
ATOM     18  C   UNL     1      47.157   4.924  14.381  0.00  0.00    +0.000 A 
ATOM     19  F   UNL     1      47.957   4.826  15.451  0.00  0.00    +0.000 F 
ATOM     20  C   UNL     1      46.659   3.765  13.798  0.00  0.00    +0.000 A 
ATOM     21  C   UNL     1      45.802   3.830  12.694  0.00  0.00    +0.000 A 
ATOM     22  C   UNL     1      45.446   5.106  12.228  0.00  0.00    +0.000 A 
ENDBRANCH  12  13
ENDBRANCH   4  12
TORSDOF 5
ENDMDL
MODEL 2
REMARK VINA RESULT:    -7.455      1.571      2.335
REMARK INTER + INTRA:          -9.890
REMARK INTER:                  -9.450
REMARK INTRA:                  -0.441
REMARK UNBOUND:                -0.474
REMARK  Name = 
REMARK  5 active torsions:
REMARK  status: ('A' for Active; 'I' for Inactive)
REMARK    1  A    between atoms: N_1  and  C_2
REMARK    2  A    between atoms: C_2  and  C_3
REMARK    3  A    between atoms: C_3  and  C_4
REMARK    4  A    between atoms: C_7  and  C_8
REMARK    5  A    between atoms: C_8  and  N_9
REMARK                            x       y       z     vdW  Elec       q    Type
REMARK                         _______ _______ _______ _____ _____    ______ ____
ROOT
ATOM      1  C   UNL     1      45.869   3.075   7.810  0.00  0.00    +0.000 A 
ATOM      2  C   UNL     1      45.340   2.116   8.681  0.00  0.00    +0.000 A 
ATOM      3  C   UNL     1      44.805   2.503   9.911  0.00  0.00    +0.000 A 
ATOM      4  C   UNL     1      44.847   3.849  10.272  0.00  0.00    +0.000 A 
ATOM      5  N   UNL     1      45.329   4.800   9.426  0.00  0.00    +0.000 NA
ATOM      6  C   UNL     1      45.813   4.398   8.228  0.00  0.00    +0.000 A 
ENDROOT
BRANCH   1   7
ATOM      7  C   UNL     1      46.452   2.695   6.484  0.00  0.00    +0.000 C 
BRANCH   7   8
ATOM      8  C   UNL     1      47.691   1.812   6.640  0.00  0.00    +0.000 C 
BRANCH   8   9
ATOM      9  N   UNL     1      48.539   1.884   5.451  0.00  0.00    +0.000 NA
ATOM     10  H   UNL     1      49.397   1.361   5.619  0.00  0.00    +0.000 HD
ATOM     11  H   UNL     1      48.825   2.850   5.290  0.00  0.00    +0.000 HD
ENDBRANCH   8   9
ENDBRANCH   7   8
ENDBRANCH   1   7
BRANCH   4  12
ATOM     12  C   UNL     1      44.361   4.343  11.611  0.00  0.00    +0.000 C 
BRANCH  12  13
ATOM     13  N   UNL     1      45.442   4.591  12.557  0.00  0.00    +0.000 N 
ATOM     14  N   UNL     1      45.868   3.569  13.339  0.00  0.00    +0.000 NA
ATOM     15  C   UNL     1      46.858   4.107  14.054  0.00  0.00    +0.000 A 
ATOM     16  C   UNL     1      47.074   5.468  13.755  0.00  0.00    +0.000 A 
ATOM     17  C   UNL     1      47.976   6.458  14.178  0.00  0.00    +0.000 A 
ATOM     18  C   UNL     1      47.880   7.725  13.604  0.00  0.00    +0.000 A 
ATOM     19  F   UNL     1      48.762   8.669  13.961  0.00  0.00    +0.000 F 
ATOM     20  C   UNL     1      46.905   8.030  12.662  0.00  0.00    +0.000 A 
ATOM     21  C   UNL     1      45.983   7.063  12.248  0.00  0.00    +0.000 A 
ATOM     22  C   UNL     1      46.108   5.776  12.796  0.00  0.00    +0.000 A 
ENDBRANCH  12  13
ENDBRANCH   4  12
TORSDOF 5
ENDMDL
MODEL 3
REMARK VINA RESULT:    -6.656      3.004      6.427
REMARK INTER + INTRA:          -8.881
REMARK INTER:                  -8.405
REMARK INTRA:                  -0.476
REMARK UNBOUND:                -0.474
REMARK  Name = 
REMARK  5 active torsions:
REMARK  status: ('A' for Active; 'I' for Inactive)
REMARK    1  A    between atoms: N_1  and  C_2
REMARK    2  A    between atoms: C_2  and  C_3
REMARK    3  A    between atoms: C_3  and  C_4
REMARK    4  A    between atoms: C_7  and  C_8
REMARK    5  A    between atoms: C_8  and  N_9
REMARK                            x       y       z     vdW  Elec       q    Type
REMARK                         _______ _______ _______ _____ _____    ______ ____
ROOT
ATOM      1  C   UNL     1      46.674   7.521  13.059  0.00  0.00    +0.000 A 
ATOM      2  C   UNL     1      45.934   8.270  12.137  0.00  0.00    +0.000 A 
ATOM      3  C   UNL     1      44.870   7.685  11.449  0.00  0.00    +0.000 A 
ATOM      4  C   UNL     1      44.587   6.336  11.663  0.00  0.00    +0.000 A 
ATOM      5  N   UNL     1      45.275   5.599  12.577  0.00  0.00    +0.000 NA
ATOM      6  C   UNL     1      46.282   6.202  13.251  0.00  0.00    +0.000 A 
ENDROOT
BRANCH   1   7
ATOM      7  C   UNL     1      47.822   8.116  13.813  0.00  0.00    +0.000 C 
BRANCH   7   8
ATOM      8  C   UNL     1      48.578   7.062  14.623  0.00  0.00    +0.000 C 
BRANCH   8   9
ATOM      9  N   UNL     1      49.981   6.997  14.219  0.00  0.00    +0.000 NA
ATOM     10  H   UNL     1      50.067   6.399  13.398  0.00  0.00    +0.000 HD
ATOM     11  H   UNL     1      50.531   6.550  14.952  0.00  0.00    +0.000 HD
ENDBRANCH   8   9
ENDBRANCH   7   8
ENDBRANCH   1   7
BRANCH   4  12
ATOM     12  C   UNL     1      43.506   5.607  10.907  0.00  0.00    +0.000 C 
BRANCH  12  13
ATOM     13  N   UNL     1      43.901   4.265  10.493  0.00  0.00    +0.000 N 
ATOM     14  N   UNL     1      43.367   3.202  11.142  0.00  0.00    +0.000 NA
ATOM     15  C   UNL     1      43.900   2.149  10.518  0.00  0.00    +0.000 A 
ATOM     16  C   UNL     1      44.781   2.515   9.480  0.00  0.00    +0.000 A 
ATOM     17  C   UNL     1      45.551   1.826   8.528  0.00  0.00    +0.000 A 
ATOM     18  C   UNL     1      46.299   2.574   7.620  0.00  0.00    +0.000 A 
ATOM     19  F   UNL     1      47.003   1.936   6.675  0.00  0.00    +0.000 F 
ATOM     20  C   UNL     1      46.324   3.963   7.661  0.00  0.00    +0.000 A 
ATOM     21  C   UNL     1      45.583   4.664   8.620  0.00  0.00    +0.000 A 
ATOM     22  C   UNL     1      44.797   3.909   9.505  0.00  0.00    +0.000 A 
ENDBRANCH  12  13
ENDBRANCH   4  12
TORSDOF 5
ENDMDL
MODEL 4
REMARK VINA RESULT:    -5.896      2.836      6.628
REMARK INTER + INTRA:          -7.921
REMARK INTER:                  -7.444
REMARK INTRA:                  -0.476
REMARK UNBOUND:                -0.474
REMARK  Name = 
REMARK  5 active torsions:
REMARK  status: ('A' for Active; 'I' for Inactive)
REMARK    1  A    between atoms: N_1  and  C_2
REMARK    2  A    between atoms: C_2  and  C_3
REMARK    3  A    between atoms: C_3  and  C_4
REMARK    4  A    between atoms: C_7  and  C_8
REMARK    5  A    between atoms: C_8  and  N_9
REMARK                            x       y       z     vdW  Elec       q    Type
REMARK                         _______ _______ _______ _____ _____    ______ ____
ROOT
ATOM      1  C   UNL     1      46.686   5.253  13.634  0.00  0.00    +0.000 A 
ATOM      2  C   UNL     1      46.707   6.323  12.733  0.00  0.00    +0.000 A 
ATOM      3  C   UNL     1      46.019   6.236  11.522  0.00  0.00    +0.000 A 
ATOM      4  C   UNL     1      45.350   5.053  11.209  0.00  0.00    +0.000 A 
ATOM      5  N   UNL     1      45.292   4.013  12.084  0.00  0.00    +0.000 NA
ATOM      6  C   UNL     1      45.944   4.138  13.264  0.00  0.00    +0.000 A 
ENDROOT
BRANCH   1   7
ATOM      7  C   UNL     1      47.414   5.311  14.941  0.00  0.00    +0.000 C 
BRANCH   7   8
ATOM      8  C   UNL     1      47.338   3.982  15.695  0.00  0.00    +0.000 C 
BRANCH   8   9
ATOM      9  N   UNL     1      46.588   4.128  16.940  0.00  0.00    +0.000 NA
ATOM     10  H   UNL     1      46.478   3.213  17.375  0.00  0.00    +0.000 HD
ATOM     11  H   UNL     1      45.645   4.459  16.739  0.00  0.00    +0.000 HD
ENDBRANCH   8   9
ENDBRANCH   7   8
ENDBRANCH   1   7
BRANCH   4  12
ATOM     12  C   UNL     1      44.646   4.846   9.892  0.00  0.00    +0.000 C 
BRANCH  12  13
ATOM     13  N   UNL     1      45.503   4.259   8.870  0.00  0.00    +0.000 N 
ATOM     14  N   UNL     1      46.269   5.082   8.113  0.00  0.00    +0.000 NA
ATOM     15  C   UNL     1      46.937   4.248   7.313  0.00  0.00    +0.000 A 
ATOM     16  C   UNL     1      46.607   2.895   7.532  0.00  0.00    +0.000 A 
ATOM     17  C   UNL     1      47.026   1.661   7.006  0.00  0.00    +0.000 A 
ATOM     18  C   UNL     1      46.458   0.498   7.524  0.00  0.00    +0.000 A 
ATOM     19  F   UNL     1      46.879  -0.689   7.068  0.00  0.00    +0.000 F 
ATOM     20  C   UNL     1      45.478   0.537   8.508  0.00  0.00    +0.000 A 
ATOM     21  C   UNL     1      45.031   1.758   9.025  0.00  0.00    +0.000 A 
ATOM     22  C   UNL     1      45.636   2.927   8.533  0.00  0.00    +0.000 A 
ENDBRANCH  12  13
ENDBRANCH   4  12
TORSDOF 5
ENDMDL
MODEL 5
REMARK VINA RESULT:    -5.763      4.982      7.874
REMARK INTER + INTRA:          -7.753
REMARK INTER:                  -7.668
REMARK INTRA:                  -0.085
REMARK UNBOUND:                -0.474
REMARK  Name = 
REMARK  5 active torsions:
REMARK  status: ('A' for Active; 'I' for Inactive)
REMARK    1  A    between atoms: N_1  and  C_2
REMARK    2  A    between atoms: C_2  and  C_3
REMARK    3  A    between atoms: C_3  and  C_4
REMARK    4  A    between atoms: C_7  and  C_8
REMARK    5  A    between atoms: C_8  and  N_9
REMARK                            x       y       z     vdW  Elec       q    Type
REMARK                         _______ _______ _______ _____ _____    ______ ____
ROOT
ATOM      1  C   UNL     1      50.925   2.724  17.606  0.00  0.00    +0.000 A 
ATOM      2  C   UNL     1      50.353   3.889  18.129  0.00  0.00    +0.000 A 
ATOM      3  C   UNL     1      49.107   4.325  17.674  0.00  0.00    +0.000 A 
ATOM      4  C   UNL     1      48.468   3.606  16.664  0.00  0.00    +0.000 A 
ATOM      5  N   UNL     1      48.993   2.454  16.165  0.00  0.00    +0.000 NA
ATOM      6  C   UNL     1      50.188   2.041  16.648  0.00  0.00    +0.000 A 
ENDROOT
BRANCH   1   7
ATOM      7  C   UNL     1      52.260   2.229  18.070  0.00  0.00    +0.000 C 
BRANCH   7   8
ATOM      8  C   UNL     1      52.565   0.830  17.532  0.00  0.00    +0.000 C 
BRANCH   8   9
ATOM      9  N   UNL     1      52.040  -0.201  18.425  0.00  0.00    +0.000 NA
ATOM     10  H   UNL     1      52.510  -1.084  18.232  0.00  0.00    +0.000 HD
ATOM     11  H   UNL     1      51.052  -0.359  18.227  0.00  0.00    +0.000 HD
ENDBRANCH   8   9
ENDBRANCH   7   8
ENDBRANCH   1   7
BRANCH   4  12
ATOM     12  C   UNL     1      47.158   4.048  16.063  0.00  0.00    +0.000 C 
BRANCH  12  13
ATOM     13  N   UNL     1      47.321   4.986  14.959  0.00  0.00    +0.000 N 
ATOM     14  N   UNL     1      48.271   5.948  15.059  0.00  0.00    +0.000 NA
ATOM     15  C   UNL     1      48.181   6.605  13.901  0.00  0.00    +0.000 A 
ATOM     16  C   UNL     1      47.179   6.089  13.054  0.00  0.00    +0.000 A 
ATOM     17  C   UNL     1      46.709   6.379  11.762  0.00  0.00    +0.000 A 
ATOM     18  C   UNL     1      45.680   5.595  11.244  0.00  0.00    +0.000 A 
ATOM     19  F   UNL     1      45.251   5.826   9.996  0.00  0.00    +0.000 F 
ATOM     20  C   UNL     1      45.096   4.572  11.982  0.00  0.00    +0.000 A 
ATOM     21  C   UNL     1      45.534   4.287  13.281  0.00  0.00    +0.000 A 
ATOM     22  C   UNL     1      46.601   5.050  13.783  0.00  0.00    +0.000 A 
ENDBRANCH  12  13
ENDBRANCH   4  12
TORSDOF 5
ENDMDL
MODEL 6
REMARK VINA RESULT:    -5.739      4.404      6.834
REMARK INTER + INTRA:          -7.722
REMARK INTER:                  -7.219
REMARK INTRA:                  -0.504
REMARK UNBOUND:                -0.474
REMARK  Name = 
REMARK  5 active torsions:
REMARK  status: ('A' for Active; 'I' for Inactive)
REMARK    1  A    between atoms: N_1  and  C_2
REMARK    2  A    between atoms: C_2  and  C_3
REMARK    3  A    between atoms: C_3  and  C_4
REMARK    4  A    between atoms: C_7  and  C_8
REMARK    5  A    between atoms: C_8  and  N_9
REMARK                            x       y       z     vdW  Elec       q    Type
REMARK                         _______ _______ _______ _____ _____    ______ ____
ROOT
ATOM      1  C   UNL     1      46.741   5.706  12.725  0.00  0.00    +0.000 A 
ATOM      2  C   UNL     1      47.654   6.258  13.630  0.00  0.00    +0.000 A 
ATOM      3  C   UNL     1      47.867   5.654  14.870  0.00  0.00    +0.000 A 
ATOM      4  C   UNL     1      47.126   4.521  15.205  0.00  0.00    +0.000 A 
ATOM      5  N   UNL     1      46.257   3.951  14.327  0.00  0.00    +0.000 NA
ATOM      6  C   UNL     1      46.094   4.543  13.121  0.00  0.00    +0.000 A 
ENDROOT
BRANCH   1   7
ATOM      7  C   UNL     1      46.487   6.329  11.387  0.00  0.00    +0.000 C 
BRANCH   7   8
ATOM      8  C   UNL     1      45.387   5.596  10.618  0.00  0.00    +0.000 C 
BRANCH   8   9
ATOM      9  N   UNL     1      45.714   5.501   9.197  0.00  0.00    +0.000 NA
ATOM     10  H   UNL     1      45.446   6.368   8.732  0.00  0.00    +0.000 HD
ATOM     11  H   UNL     1      45.157   4.765   8.763  0.00  0.00    +0.000 HD
ENDBRANCH   8   9
ENDBRANCH   7   8
ENDBRANCH   1   7
BRANCH   4  12
ATOM     12  C   UNL     1      47.239   3.850  16.550  0.00  0.00    +0.000 C 
BRANCH  12  13
ATOM     13  N   UNL     1      48.558   3.280  16.798  0.00  0.00    +0.000 N 
ATOM     14  N   UNL     1      48.875   2.099  16.214  0.00  0.00    +0.000 NA
ATOM     15  C   UNL     1      50.129   1.875  16.611  0.00  0.00    +0.000 A 
ATOM     16  C   UNL     1      50.627   2.889  17.455  0.00  0.00    +0.000 A 
ATOM     17  C   UNL     1      51.848   3.150  18.100  0.00  0.00    +0.000 A 
ATOM     18  C   UNL     1      51.959   4.317  18.852  0.00  0.00    +0.000 A 
ATOM     19  F   UNL     1      53.130   4.606  19.436  0.00  0.00    +0.000 F 
ATOM     20  C   UNL     1      50.892   5.196  19.003  0.00  0.00    +0.000 A 
ATOM     21  C   UNL     1      49.662   4.939  18.389  0.00  0.00    +0.000 A 
ATOM     22  C   UNL     1      49.566   3.784  17.595  0.00  0.00    +0.000 A 
ENDBRANCH  12  13
ENDBRANCH   4  12
TORSDOF 5
ENDMDL
MODEL 7
REMARK VINA RESULT:    -5.523      4.498      7.915
REMARK INTER + INTRA:          -7.450
REMARK INTER:                  -7.102
REMARK INTRA:                  -0.348
REMARK UNBOUND:                -0.474
REMARK  Name = 
REMARK  5 active torsions:
REMARK  status: ('A' for Active; 'I' for Inactive)
REMARK    1  A    between atoms: N_1  and  C_2
REMARK    2  A    between atoms: C_2  and  C_3
REMARK    3  A    between atoms: C_3  and  C_4
REMARK    4  A    between atoms: C_7  and  C_8
REMARK    5  A    between atoms: C_8  and  N_9
REMARK                            x       y       z     vdW  Elec       q    Type
REMARK                         _______ _______ _______ _____ _____    ______ ____
ROOT
ATOM      1  C   UNL     1      47.914   5.286  17.879  0.00  0.00    +0.000 A 
ATOM      2  C   UNL     1      48.441   5.979  16.784  0.00  0.00    +0.000 A 
ATOM      3  C   UNL     1      48.168   5.551  15.484  0.00  0.00    +0.000 A 
ATOM      4  C   UNL     1      47.400   4.402  15.299  0.00  0.00    +0.000 A 
ATOM      5  N   UNL     1      46.852   3.732  16.349  0.00  0.00    +0.000 NA
ATOM      6  C   UNL     1      47.110   4.189  17.597  0.00  0.00    +0.000 A 
ENDROOT
BRANCH   1   7
ATOM      7  C   UNL     1      48.187   5.716  19.287  0.00  0.00    +0.000 C 
BRANCH   7   8
ATOM      8  C   UNL     1      49.154   4.764  19.995  0.00  0.00    +0.000 C 
BRANCH   8   9
ATOM      9  N   UNL     1      48.435   3.654  20.616  0.00  0.00    +0.000 NA
ATOM     10  H   UNL     1      48.679   2.787  20.140  0.00  0.00    +0.000 HD
ATOM     11  H   UNL     1      47.431   3.775  20.483  0.00  0.00    +0.000 HD
ENDBRANCH   8   9
ENDBRANCH   7   8
ENDBRANCH   1   7
BRANCH   4  12
ATOM     12  C   UNL     1      47.120   3.828  13.933  0.00  0.00    +0.000 C 
BRANCH  12  13
ATOM     13  N   UNL     1      45.940   4.405  13.300  0.00  0.00    +0.000 N 
ATOM     14  N   UNL     1      44.794   3.681  13.283  0.00  0.00    +0.000 NA
ATOM     15  C   UNL     1      43.921   4.484  12.671  0.00  0.00    +0.000 A 
ATOM     16  C   UNL     1      44.487   5.714  12.279  0.00  0.00    +0.000 A 
ATOM     17  C   UNL     1      44.019   6.881  11.654  0.00  0.00    +0.000 A 
ATOM     18  C   UNL     1      44.917   7.929  11.459  0.00  0.00    +0.000 A 
ATOM     19  F   UNL     1      44.476   9.068  10.906  0.00  0.00    +0.000 F 
ATOM     20  C   UNL     1      46.251   7.830  11.832  0.00  0.00    +0.000 A 
ATOM     21  C   UNL     1      46.741   6.664  12.433  0.00  0.00    +0.000 A 
ATOM     22  C   UNL     1      45.824   5.626  12.668  0.00  0.00    +0.000 A 
ENDBRANCH  12  13
ENDBRANCH   4  12
TORSDOF 5
ENDMDL
MODEL 8
REMARK VINA RESULT:    -5.485      5.106      8.114
REMARK INTER + INTRA:          -7.402
REMARK INTER:                  -6.883
REMARK INTRA:                  -0.519
REMARK UNBOUND:                -0.474
REMARK  Name = 
REMARK  5 active torsions:
REMARK  status: ('A' for Active; 'I' for Inactive)
REMARK    1  A    between atoms: N_1  and  C_2
REMARK    2  A    between atoms: C_2  and  C_3
REMARK    3  A    between atoms: C_3  and  C_4
REMARK    4  A    between atoms: C_7  and  C_8
REMARK    5  A    between atoms: C_8  and  N_9
REMARK                            x       y       z     vdW  Elec       q    Type
REMARK                         _______ _______ _______ _____ _____    ______ ____
ROOT
ATOM      1  C   UNL     1      51.191   2.863  17.666  0.00  0.00    +0.000 A 
ATOM      2  C   UNL     1      50.887   4.182  18.023  0.00  0.00    +0.000 A 
ATOM      3  C   UNL     1      49.620   4.706  17.758  0.00  0.00    +0.000 A 
ATOM      4  C   UNL     1      48.685   3.910  17.097  0.00  0.00    +0.000 A 
ATOM      5  N   UNL     1      48.951   2.617  16.771  0.00  0.00    +0.000 NA
ATOM      6  C   UNL     1      50.177   2.127  17.067  0.00  0.00    +0.000 A 
ENDROOT
BRANCH   1   7
ATOM      7  C   UNL     1      52.540   2.269  17.934  0.00  0.00    +0.000 C 
BRANCH   7   8
ATOM      8  C   UNL     1      52.687   0.885  17.299  0.00  0.00    +0.000 C 
BRANCH   8   9
ATOM      9  N   UNL     1      52.740  -0.158  18.321  0.00  0.00    +0.000 NA
ATOM     10  H   UNL     1      53.579  -0.720  18.184  0.00  0.00    +0.000 HD
ATOM     11  H   UNL     1      51.952  -0.795  18.204  0.00  0.00    +0.000 HD
ENDBRANCH   8   9
ENDBRANCH   7   8
ENDBRANCH   1   7
BRANCH   4  12
ATOM     12  C   UNL     1      47.321   4.422  16.706  0.00  0.00    +0.000 C 
BRANCH  12  13
ATOM     13  N   UNL     1      47.205   4.712  15.282  0.00  0.00    +0.000 N 
ATOM     14  N   UNL     1      46.465   3.880  14.509  0.00  0.00    +0.000 NA
ATOM     15  C   UNL     1      46.537   4.428  13.294  0.00  0.00    +0.000 A 
ATOM     16  C   UNL     1      47.324   5.597  13.265  0.00  0.00    +0.000 A 
ATOM     17  C   UNL     1      47.685   6.541  12.289  0.00  0.00    +0.000 A 
ATOM     18  C   UNL     1      48.488   7.613  12.675  0.00  0.00    +0.000 A 
ATOM     19  F   UNL     1      48.804   8.548  11.768  0.00  0.00    +0.000 F 
ATOM     20  C   UNL     1      48.957   7.746  13.976  0.00  0.00    +0.000 A 
ATOM     21  C   UNL     1      48.628   6.801  14.955  0.00  0.00    +0.000 A 
ATOM     22  C   UNL     1      47.784   5.745  14.574  0.00  0.00    +0.000 A 
ENDBRANCH  12  13
ENDBRANCH   4  12
TORSDOF 5
ENDMDL
MODEL 9
REMARK VINA RESULT:    -5.252      4.386      6.685
REMARK INTER + INTRA:          -7.108
REMARK INTER:                  -6.780
REMARK INTRA:                  -0.328
REMARK UNBOUND:                -0.474
REMARK  Name = 
REMARK  5 active torsions:
REMARK  status: ('A' for Active; 'I' for Inactive)
REMARK    1  A    between atoms: N_1  and  C_2
REMARK    2  A    between atoms: C_2  and  C_3
REMARK    3  A    between atoms: C_3  and  C_4
REMARK    4  A    between atoms: C_7  and  C_8
REMARK    5  A    between atoms: C_8  and  N_9
REMARK                            x       y       z     vdW  Elec       q    Type
REMARK                         _______ _______ _______ _____ _____    ______ ____
ROOT
ATOM      1  C   UNL     1      46.513   5.755  12.673  0.00  0.00    +0.000 A 
ATOM      2  C   UNL     1      47.494   6.316  13.498  0.00  0.00    +0.000 A 
ATOM      3  C   UNL     1      47.835   5.699  14.703  0.00  0.00    +0.000 A 
ATOM      4  C   UNL     1      47.154   4.544  15.087  0.00  0.00    +0.000 A 
ATOM      5  N   UNL     1      46.220   3.966  14.284  0.00  0.00    +0.000 NA
ATOM      6  C   UNL     1      45.932   4.571  13.108  0.00  0.00    +0.000 A 
ENDROOT
BRANCH   1   7
ATOM      7  C   UNL     1      46.121   6.391  11.375  0.00  0.00    +0.000 C 
BRANCH   7   8
ATOM      8  C   UNL     1      45.312   5.436  10.496  0.00  0.00    +0.000 C 
BRANCH   8   9
ATOM      9  N   UNL     1      45.763   5.493   9.107  0.00  0.00    +0.000 NA
ATOM     10  H   UNL     1      44.971   5.714   8.505  0.00  0.00    +0.000 HD
ATOM     11  H   UNL     1      46.092   4.574   8.813  0.00  0.00    +0.000 HD
ENDBRANCH   8   9
ENDBRANCH   7   8
ENDBRANCH   1   7
BRANCH   4  12
ATOM     12  C   UNL     1      47.407   3.857  16.404  0.00  0.00    +0.000 C 
BRANCH  12  13
ATOM     13  N   UNL     1      48.462   4.489  17.187  0.00  0.00    +0.000 N 
ATOM     14  N   UNL     1      49.752   4.176  16.911  0.00  0.00    +0.000 NA
ATOM     15  C   UNL     1      50.451   4.926  17.765  0.00  0.00    +0.000 A 
ATOM     16  C   UNL     1      49.632   5.713  18.601  0.00  0.00    +0.000 A 
ATOM     17  C   UNL     1      49.849   6.665  19.612  0.00  0.00    +0.000 A 
ATOM     18  C   UNL     1      48.738   7.263  20.202  0.00  0.00    +0.000 A 
ATOM     19  F   UNL     1      48.926   8.207  21.135  0.00  0.00    +0.000 F 
ATOM     20  C   UNL     1      47.441   6.916  19.841  0.00  0.00    +0.000 A 
ATOM     21  C   UNL     1      47.207   5.952  18.855  0.00  0.00    +0.000 A 
ATOM     22  C   UNL     1      48.328   5.383  18.230  0.00  0.00    +0.000 A 
ENDBRANCH  12  13
ENDBRANCH   4  12
TORSDOF 5
ENDMDL
