MODEL 1
REMARK VINA RESULT:    -8.893      0.000      0.000
REMARK INTER + INTRA:         -12.317
REMARK INTER:                 -11.493
REMARK INTRA:                  -0.824
REMARK UNBOUND:                -0.824
REMARK  Name = 
REMARK  5 active torsions:
REMARK  status: ('A' for Active; 'I' for Inactive)
REMARK    1  A    between atoms: C_2  and  C_4
REMARK    2  A    between atoms: N_8  and  C_9
REMARK    3  A    between atoms: C_9  and  C_10
REMARK    4  A    between atoms: C_10  and  C_11
REMARK    5  A    between atoms: C_15  and  C_16
REMARK                            x       y       z     vdW  Elec       q    Type
REMARK                         _______ _______ _______ _____ _____    ______ ____
ROOT
ATOM      1  C   UNL     1      43.013   4.374  11.045  0.00  0.00    +0.000 C 
ENDROOT
BRANCH   1   6
ATOM      2  C   UNL     1      46.431   2.493   7.747  0.00  0.00    +0.000 A 
ATOM      3  C   UNL     1      45.690   1.885   8.751  0.00  0.00    +0.000 A 
ATOM      4  C   UNL     1      44.829   2.665   9.522  0.00  0.00    +0.000 A 
ATOM      5  C   UNL     1      44.735   4.038   9.296  0.00  0.00    +0.000 A 
ATOM      6  N   UNL     1      43.897   4.856  10.008  0.00  0.00    +0.000 N 
ATOM      7  N   UNL     1      45.470   4.639   8.339  0.00  0.00    +0.000 NA
ATOM      8  C   UNL     1      46.301   3.866   7.591  0.00  0.00    +0.000 A 
ATOM      9  H   UNL     1      43.987   5.841   9.790  0.00  0.00    +0.000 HD
BRANCH   2  11
ATOM     10  N   UNL     1      48.454   2.400   6.413  0.00  0.00    +0.000 N 
ATOM     11  C   UNL     1      47.347   1.740   6.869  0.00  0.00    +0.000 C 
ATOM     12  O   UNL     1      47.143   0.566   6.587  0.00  0.00    +0.000 OA
ATOM     13  H   UNL     1      49.124   1.843   5.893  0.00  0.00    +0.000 HD
ATOM     14  H   UNL     1      48.779   3.266   6.817  0.00  0.00    +0.000 HD
ENDBRANCH   2  11
ENDBRANCH   1   6
BRANCH   1  15
ATOM     15  C   UNL     1      43.074   5.235  12.307  0.00  0.00    +0.000 C 
BRANCH  15  16
ATOM     16  C   UNL     1      44.516   5.415  12.723  0.00  0.00    +0.000 A 
ATOM     17  C   UNL     1      45.237   4.349  13.271  0.00  0.00    +0.000 A 
ATOM     18  C   UNL     1      46.587   4.503  13.569  0.00  0.00    +0.000 A 
ATOM     19  C   UNL     1      47.230   5.715  13.305  0.00  0.00    +0.000 A 
ATOM     20  C   UNL     1      46.550   6.799  12.722  0.00  0.00    +0.000 A 
ATOM     21  C   UNL     1      45.178   6.626  12.457  0.00  0.00    +0.000 A 
BRANCH  20  22
ATOM     22  C   UNL     1      47.258   8.047  12.350  0.00  0.00    +0.000 A 
ATOM     23  C   UNL     1      48.586   8.020  11.900  0.00  0.00    +0.000 A 
ATOM     24  C   UNL     1      49.209   9.202  11.529  0.00  0.00    +0.000 A 
ATOM     25  N   UNL     1      48.611  10.408  11.562  0.00  0.00    +0.000 NA
ATOM     26  C   UNL     1      47.333  10.428  11.992  0.00  0.00    +0.000 A 
ATOM     27  C   UNL     1      46.632   9.300  12.393  0.00  0.00    +0.000 A 
ENDBRANCH  20  22
ENDBRANCH  15  16
ENDBRANCH   1  15
TORSDOF 5
ENDMDL
MODEL 2
REMARK VINA RESULT:    -8.597      2.481      3.713
REMARK INTER + INTRA:         -11.933
REMARK INTER:                 -10.989
REMARK INTRA:                  -0.944
REMARK UNBOUND:                -0.824
REMARK  Name = 
REMARK  5 active torsions:
REMARK  status: ('A' for Active; 'I' for Inactive)
REMARK    1  A    between atoms: C_2  and  C_4
REMARK    2  A    between atoms: N_8  and  C_9
REMARK    3  A    between atoms: C_9  and  C_10
REMARK    4  A    between atoms: C_10  and  C_11
REMARK    5  A    between atoms: C_15  and  C_16
REMARK                            x       y       z     vdW  Elec       q    Type
REMARK                         _______ _______ _______ _____ _____    ______ ____
ROOT
ATOM      1  C   UNL     1      43.309   4.937  10.823  0.00  0.00    +0.000 C 
ENDROOT
BRANCH   1   6
ATOM      2  C   UNL     1      46.489   2.702   7.508  0.00  0.00    +0.000 A 
ATOM      3  C   UNL     1      46.112   4.028   7.670  0.00  0.00    +0.000 A 
ATOM      4  C   UNL     1      45.194   4.352   8.669  0.00  0.00    +0.000 A 
ATOM      5  C   UNL     1      44.651   3.351   9.474  0.00  0.00    +0.000 A 
ATOM      6  N   UNL     1      43.758   3.607  10.481  0.00  0.00    +0.000 N 
ATOM      7  N   UNL     1      44.995   2.059   9.306  0.00  0.00    +0.000 NA
ATOM      8  C   UNL     1      45.895   1.757   8.333  0.00  0.00    +0.000 A 
ATOM      9  H   UNL     1      43.389   2.779  10.935  0.00  0.00    +0.000 HD
BRANCH   2  11
ATOM     10  N   UNL     1      47.493   2.971   5.318  0.00  0.00    +0.000 N 
ATOM     11  C   UNL     1      47.471   2.274   6.494  0.00  0.00    +0.000 C 
ATOM     12  O   UNL     1      48.255   1.358   6.707  0.00  0.00    +0.000 OA
ATOM     13  H   UNL     1      48.236   2.731   4.670  0.00  0.00    +0.000 HD
ATOM     14  H   UNL     1      47.046   3.869   5.206  0.00  0.00    +0.000 HD
ENDBRANCH   2  11
ENDBRANCH   1   6
BRANCH   1  15
ATOM     15  C   UNL     1      43.556   5.275  12.293  0.00  0.00    +0.000 C 
BRANCH  15  16
ATOM     16  C   UNL     1      45.024   5.568  12.501  0.00  0.00    +0.000 A 
ATOM     17  C   UNL     1      45.712   6.415  11.626  0.00  0.00    +0.000 A 
ATOM     18  C   UNL     1      47.039   6.746  11.877  0.00  0.00    +0.000 A 
ATOM     19  C   UNL     1      47.683   6.249  13.014  0.00  0.00    +0.000 A 
ATOM     20  C   UNL     1      47.016   5.424  13.937  0.00  0.00    +0.000 A 
ATOM     21  C   UNL     1      45.683   5.081  13.644  0.00  0.00    +0.000 A 
BRANCH  20  22
ATOM     22  C   UNL     1      47.669   4.982  15.192  0.00  0.00    +0.000 A 
ATOM     23  C   UNL     1      48.580   5.810  15.865  0.00  0.00    +0.000 A 
ATOM     24  C   UNL     1      49.150   5.380  17.054  0.00  0.00    +0.000 A 
ATOM     25  N   UNL     1      48.877   4.194  17.630  0.00  0.00    +0.000 NA
ATOM     26  C   UNL     1      47.999   3.403  16.982  0.00  0.00    +0.000 A 
ATOM     27  C   UNL     1      47.386   3.744  15.784  0.00  0.00    +0.000 A 
ENDBRANCH  20  22
ENDBRANCH  15  16
ENDBRANCH   1  15
TORSDOF 5
ENDMDL
MODEL 3
REMARK VINA RESULT:    -8.590      1.637      2.033
REMARK INTER + INTRA:         -11.924
REMARK INTER:                 -11.000
REMARK INTRA:                  -0.924
REMARK UNBOUND:                -0.824
REMARK  Name = 
REMARK  5 active torsions:
REMARK  status: ('A' for Active; 'I' for Inactive)
REMARK    1  A    between atoms: C_2  and  C_4
REMARK    2  A    between atoms: N_8  and  C_9
REMARK    3  A    between atoms: C_9  and  C_10
REMARK    4  A    between atoms: C_10  and  C_11
REMARK    5  A    between atoms: C_15  and  C_16
REMARK                            x       y       z     vdW  Elec       q    Type
REMARK                         _______ _______ _______ _____ _____    ______ ____
ROOT
ATOM      1  C   UNL     1      43.363   3.635  11.302  0.00  0.00    +0.000 C 
ENDROOT
BRANCH   1   6
ATOM      2  C   UNL     1      46.477   2.771   7.346  0.00  0.00    +0.000 A 
ATOM      3  C   UNL     1      45.850   3.929   7.787  0.00  0.00    +0.000 A 
ATOM      4  C   UNL     1      45.026   3.863   8.910  0.00  0.00    +0.000 A 
ATOM      5  C   UNL     1      44.822   2.647   9.561  0.00  0.00    +0.000 A 
ATOM      6  N   UNL     1      44.037   2.520  10.677  0.00  0.00    +0.000 N 
ATOM      7  N   UNL     1      45.409   1.515   9.123  0.00  0.00    +0.000 NA
ATOM      8  C   UNL     1      46.214   1.594   8.031  0.00  0.00    +0.000 A 
ATOM      9  H   UNL     1      43.918   1.567  11.000  0.00  0.00    +0.000 HD
BRANCH   2  11
ATOM     10  N   UNL     1      48.698   2.466   6.423  0.00  0.00    +0.000 N 
ATOM     11  C   UNL     1      47.384   2.755   6.182  0.00  0.00    +0.000 C 
ATOM     12  O   UNL     1      46.974   2.960   5.047  0.00  0.00    +0.000 OA
ATOM     13  H   UNL     1      49.290   2.362   5.605  0.00  0.00    +0.000 HD
ATOM     14  H   UNL     1      49.018   2.055   7.287  0.00  0.00    +0.000 HD
ENDBRANCH   2  11
ENDBRANCH   1   6
BRANCH   1  15
ATOM     15  C   UNL     1      43.711   3.768  12.785  0.00  0.00    +0.000 C 
BRANCH  15  16
ATOM     16  C   UNL     1      44.828   4.772  12.951  0.00  0.00    +0.000 A 
ATOM     17  C   UNL     1      46.091   4.366  13.391  0.00  0.00    +0.000 A 
ATOM     18  C   UNL     1      47.134   5.284  13.457  0.00  0.00    +0.000 A 
ATOM     19  C   UNL     1      46.928   6.609  13.065  0.00  0.00    +0.000 A 
ATOM     20  C   UNL     1      45.682   7.050  12.582  0.00  0.00    +0.000 A 
ATOM     21  C   UNL     1      44.637   6.107  12.553  0.00  0.00    +0.000 A 
BRANCH  20  22
ATOM     22  C   UNL     1      45.494   8.428  12.072  0.00  0.00    +0.000 A 
ATOM     23  C   UNL     1      46.467   9.418  12.281  0.00  0.00    +0.000 A 
ATOM     24  C   UNL     1      46.275  10.689  11.764  0.00  0.00    +0.000 A 
ATOM     25  N   UNL     1      45.195  11.052  11.045  0.00  0.00    +0.000 NA
ATOM     26  C   UNL     1      44.265  10.097  10.844  0.00  0.00    +0.000 A 
ATOM     27  C   UNL     1      44.365   8.801  11.330  0.00  0.00    +0.000 A 
ENDBRANCH  20  22
ENDBRANCH  15  16
ENDBRANCH   1  15
TORSDOF 5
ENDMDL
MODEL 4
REMARK VINA RESULT:    -7.815      3.556      7.152
REMARK INTER + INTRA:         -10.923
REMARK INTER:                 -10.185
REMARK INTRA:                  -0.737
REMARK UNBOUND:                -0.824
REMARK  Name = 
REMARK  5 active torsions:
REMARK  status: ('A' for Active; 'I' for Inactive)
REMARK    1  A    between atoms: C_2  and  C_4
REMARK    2  A    between atoms: N_8  and  C_9
REMARK    3  A    between atoms: C_9  and  C_10
REMARK    4  A    between atoms: C_10  and  C_11
REMARK    5  A    between atoms: C_15  and  C_16
REMARK                            x       y       z     vdW  Elec       q    Type
REMARK                         _______ _______ _______ _____ _____    ______ ____
ROOT
ATOM      1  C   UNL     1      47.413   7.246  11.766  0.00  0.00    +0.000 C 
ENDROOT
BRANCH   1   6
ATOM      2  C   UNL     1      47.629   4.319  15.947  0.00  0.00    +0.000 A 
ATOM      3  C   UNL     1      46.940   4.165  14.751  0.00  0.00    +0.000 A 
ATOM      4  C   UNL     1      47.059   5.152  13.773  0.00  0.00    +0.000 A 
ATOM      5  C   UNL     1      47.840   6.282  14.008  0.00  0.00    +0.000 A 
ATOM      6  N   UNL     1      48.009   7.279  13.082  0.00  0.00    +0.000 N 
ATOM      7  N   UNL     1      48.492   6.449  15.176  0.00  0.00    +0.000 NA
ATOM      8  C   UNL     1      48.373   5.477  16.119  0.00  0.00    +0.000 A 
ATOM      9  H   UNL     1      48.540   8.075  13.414  0.00  0.00    +0.000 HD
BRANCH   2  11
ATOM     10  N   UNL     1      48.776   2.905  17.548  0.00  0.00    +0.000 N 
ATOM     11  C   UNL     1      47.580   3.312  17.025  0.00  0.00    +0.000 C 
ATOM     12  O   UNL     1      46.517   2.885  17.455  0.00  0.00    +0.000 OA
ATOM     13  H   UNL     1      48.724   2.288  18.353  0.00  0.00    +0.000 HD
ATOM     14  H   UNL     1      49.638   3.407  17.398  0.00  0.00    +0.000 HD
ENDBRANCH   2  11
ENDBRANCH   1   6
BRANCH   1  15
ATOM     15  C   UNL     1      45.923   7.587  11.793  0.00  0.00    +0.000 C 
BRANCH  15  16
ATOM     16  C   UNL     1      45.128   6.406  11.287  0.00  0.00    +0.000 A 
ATOM     17  C   UNL     1      43.772   6.273  11.602  0.00  0.00    +0.000 A 
ATOM     18  C   UNL     1      43.031   5.229  11.059  0.00  0.00    +0.000 A 
ATOM     19  C   UNL     1      43.633   4.323  10.182  0.00  0.00    +0.000 A 
ATOM     20  C   UNL     1      44.984   4.443   9.810  0.00  0.00    +0.000 A 
ATOM     21  C   UNL     1      45.718   5.491  10.397  0.00  0.00    +0.000 A 
BRANCH  20  22
ATOM     22  C   UNL     1      45.592   3.542   8.803  0.00  0.00    +0.000 A 
ATOM     23  C   UNL     1      46.211   4.054   7.653  0.00  0.00    +0.000 A 
ATOM     24  C   UNL     1      46.799   3.187   6.745  0.00  0.00    +0.000 A 
ATOM     25  N   UNL     1      46.827   1.849   6.897  0.00  0.00    +0.000 NA
ATOM     26  C   UNL     1      46.234   1.362   8.005  0.00  0.00    +0.000 A 
ATOM     27  C   UNL     1      45.613   2.150   8.963  0.00  0.00    +0.000 A 
ENDBRANCH  20  22
ENDBRANCH  15  16
ENDBRANCH   1  15
TORSDOF 5
ENDMDL
MODEL 5
REMARK VINA RESULT:    -7.412      1.925      2.795
REMARK INTER + INTRA:         -10.402
REMARK INTER:                  -9.670
REMARK INTRA:                  -0.732
REMARK UNBOUND:                -0.824
REMARK  Name = 
REMARK  5 active torsions:
REMARK  status: ('A' for Active; 'I' for Inactive)
REMARK    1  A    between atoms: C_2  and  C_4
REMARK    2  A    between atoms: N_8  and  C_9
REMARK    3  A    between atoms: C_9  and  C_10
REMARK    4  A    between atoms: C_10  and  C_11
REMARK    5  A    between atoms: C_15  and  C_16
REMARK                            x       y       z     vdW  Elec       q    Type
REMARK                         _______ _______ _______ _____ _____    ______ ____
ROOT
ATOM      1  C   UNL     1      43.664   5.284  10.988  0.00  0.00    +0.000 C 
ENDROOT
BRANCH   1   6
ATOM      2  C   UNL     1      46.421   2.561   7.659  0.00  0.00    +0.000 A 
ATOM      3  C   UNL     1      46.288   3.931   7.840  0.00  0.00    +0.000 A 
ATOM      4  C   UNL     1      45.434   4.401   8.837  0.00  0.00    +0.000 A 
ATOM      5  C   UNL     1      44.713   3.503   9.623  0.00  0.00    +0.000 A 
ATOM      6  N   UNL     1      43.870   3.900  10.628  0.00  0.00    +0.000 N 
ATOM      7  N   UNL     1      44.819   2.172   9.437  0.00  0.00    +0.000 NA
ATOM      8  C   UNL     1      45.659   1.728   8.465  0.00  0.00    +0.000 A 
ATOM      9  H   UNL     1      43.354   3.146  11.066  0.00  0.00    +0.000 HD
BRANCH   2  11
ATOM     10  N   UNL     1      48.156   2.839   5.988  0.00  0.00    +0.000 N 
ATOM     11  C   UNL     1      47.321   1.979   6.645  0.00  0.00    +0.000 C 
ATOM     12  O   UNL     1      47.342   0.775   6.423  0.00  0.00    +0.000 OA
ATOM     13  H   UNL     1      48.835   2.414   5.365  0.00  0.00    +0.000 HD
ATOM     14  H   UNL     1      48.340   3.776   6.312  0.00  0.00    +0.000 HD
ENDBRANCH   2  11
ENDBRANCH   1   6
BRANCH   1  15
ATOM     15  C   UNL     1      44.123   5.589  12.414  0.00  0.00    +0.000 C 
BRANCH  15  16
ATOM     16  C   UNL     1      45.152   6.695  12.385  0.00  0.00    +0.000 A 
ATOM     17  C   UNL     1      44.863   7.921  11.779  0.00  0.00    +0.000 A 
ATOM     18  C   UNL     1      45.787   8.960  11.835  0.00  0.00    +0.000 A 
ATOM     19  C   UNL     1      46.996   8.788  12.514  0.00  0.00    +0.000 A 
ATOM     20  C   UNL     1      47.309   7.583  13.168  0.00  0.00    +0.000 A 
ATOM     21  C   UNL     1      46.371   6.539  13.070  0.00  0.00    +0.000 A 
BRANCH  20  22
ATOM     22  C   UNL     1      48.546   7.439  13.971  0.00  0.00    +0.000 A 
ATOM     23  C   UNL     1      49.745   8.050  13.574  0.00  0.00    +0.000 A 
ATOM     24  C   UNL     1      50.876   7.922  14.364  0.00  0.00    +0.000 A 
ATOM     25  N   UNL     1      50.906   7.240  15.525  0.00  0.00    +0.000 NA
ATOM     26  C   UNL     1      49.752   6.657  15.905  0.00  0.00    +0.000 A 
ATOM     27  C   UNL     1      48.573   6.722  15.175  0.00  0.00    +0.000 A 
ENDBRANCH  20  22
ENDBRANCH  15  16
ENDBRANCH   1  15
TORSDOF 5
ENDMDL
MODEL 6
REMARK VINA RESULT:    -7.218      4.160      7.642
REMARK INTER + INTRA:         -10.152
REMARK INTER:                  -9.756
REMARK INTRA:                  -0.396
REMARK UNBOUND:                -0.824
REMARK  Name = 
REMARK  5 active torsions:
REMARK  status: ('A' for Active; 'I' for Inactive)
REMARK    1  A    between atoms: C_2  and  C_4
REMARK    2  A    between atoms: N_8  and  C_9
REMARK    3  A    between atoms: C_9  and  C_10
REMARK    4  A    between atoms: C_10  and  C_11
REMARK    5  A    between atoms: C_15  and  C_16
REMARK                            x       y       z     vdW  Elec       q    Type
REMARK                         _______ _______ _______ _____ _____    ______ ____
ROOT
ATOM      1  C   UNL     1      46.614   6.866  12.971  0.00  0.00    +0.000 C 
ENDROOT
BRANCH   1   6
ATOM      2  C   UNL     1      48.523   4.411  17.024  0.00  0.00    +0.000 A 
ATOM      3  C   UNL     1      48.844   5.636  16.455  0.00  0.00    +0.000 A 
ATOM      4  C   UNL     1      48.154   6.054  15.318  0.00  0.00    +0.000 A 
ATOM      5  C   UNL     1      47.173   5.240  14.754  0.00  0.00    +0.000 A 
ATOM      6  N   UNL     1      46.448   5.600  13.648  0.00  0.00    +0.000 N 
ATOM      7  N   UNL     1      46.872   4.039  15.288  0.00  0.00    +0.000 NA
ATOM      8  C   UNL     1      47.549   3.646  16.399  0.00  0.00    +0.000 A 
ATOM      9  H   UNL     1      45.824   4.881  13.303  0.00  0.00    +0.000 HD
BRANCH   2  11
ATOM     10  N   UNL     1      48.394   3.279  19.164  0.00  0.00    +0.000 N 
ATOM     11  C   UNL     1      49.185   3.903  18.241  0.00  0.00    +0.000 C 
ATOM     12  O   UNL     1      50.394   4.007  18.402  0.00  0.00    +0.000 OA
ATOM     13  H   UNL     1      48.875   2.849  19.947  0.00  0.00    +0.000 HD
ATOM     14  H   UNL     1      47.460   2.959  18.957  0.00  0.00    +0.000 HD
ENDBRANCH   2  11
ENDBRANCH   1   6
BRANCH   1  15
ATOM     15  C   UNL     1      45.460   7.171  12.016  0.00  0.00    +0.000 C 
BRANCH  15  16
ATOM     16  C   UNL     1      44.864   5.874  11.519  0.00  0.00    +0.000 A 
ATOM     17  C   UNL     1      43.614   5.444  11.975  0.00  0.00    +0.000 A 
ATOM     18  C   UNL     1      43.038   4.294  11.446  0.00  0.00    +0.000 A 
ATOM     19  C   UNL     1      43.697   3.577  10.443  0.00  0.00    +0.000 A 
ATOM     20  C   UNL     1      44.937   3.996   9.931  0.00  0.00    +0.000 A 
ATOM     21  C   UNL     1      45.511   5.146  10.505  0.00  0.00    +0.000 A 
BRANCH  20  22
ATOM     22  C   UNL     1      45.585   3.292   8.799  0.00  0.00    +0.000 A 
ATOM     23  C   UNL     1      46.101   4.002   7.704  0.00  0.00    +0.000 A 
ATOM     24  C   UNL     1      46.729   3.316   6.676  0.00  0.00    +0.000 A 
ATOM     25  N   UNL     1      46.892   1.979   6.656  0.00  0.00    +0.000 NA
ATOM     26  C   UNL     1      46.397   1.302   7.711  0.00  0.00    +0.000 A 
ATOM     27  C   UNL     1      45.745   1.900   8.781  0.00  0.00    +0.000 A 
ENDBRANCH  20  22
ENDBRANCH  15  16
ENDBRANCH   1  15
TORSDOF 5
ENDMDL
MODEL 7
REMARK VINA RESULT:    -7.055      2.775      6.827
REMARK INTER + INTRA:          -9.942
REMARK INTER:                  -9.167
REMARK INTRA:                  -0.775
REMARK UNBOUND:                -0.824
REMARK  Name = 
REMARK  5 active torsions:
REMARK  status: ('A' for Active; 'I' for Inactive)
REMARK    1  A    between atoms: C_2  and  C_4
REMARK    2  A    between atoms: N_8  and  C_9
REMARK    3  A    between atoms: C_9  and  C_10
REMARK    4  A    between atoms: C_10  and  C_11
REMARK    5  A    between atoms: C_15  and  C_16
REMARK                            x       y       z     vdW  Elec       q    Type
REMARK                         _______ _______ _______ _____ _____    ______ ____
ROOT
ATOM      1  C   UNL     1      44.984   7.042  12.548  0.00  0.00    +0.000 C 
ENDROOT
BRANCH   1   6
ATOM      2  C   UNL     1      49.838   8.406  11.728  0.00  0.00    +0.000 A 
ATOM      3  C   UNL     1      49.250   7.161  11.903  0.00  0.00    +0.000 A 
ATOM      4  C   UNL     1      47.876   7.090  12.131  0.00  0.00    +0.000 A 
ATOM      5  C   UNL     1      47.115   8.256  12.202  0.00  0.00    +0.000 A 
ATOM      6  N   UNL     1      45.760   8.252  12.407  0.00  0.00    +0.000 N 
ATOM      7  N   UNL     1      47.684   9.469  12.057  0.00  0.00    +0.000 NA
ATOM      8  C   UNL     1      49.023   9.524  11.829  0.00  0.00    +0.000 A 
ATOM      9  H   UNL     1      45.349   9.172  12.512  0.00  0.00    +0.000 HD
BRANCH   2  11
ATOM     10  N   UNL     1      52.147   8.074  12.391  0.00  0.00    +0.000 N 
ATOM     11  C   UNL     1      51.279   8.571  11.458  0.00  0.00    +0.000 C 
ATOM     12  O   UNL     1      51.682   9.101  10.430  0.00  0.00    +0.000 OA
ATOM     13  H   UNL     1      53.131   8.107  12.147  0.00  0.00    +0.000 HD
ATOM     14  H   UNL     1      51.863   7.426  13.110  0.00  0.00    +0.000 HD
ENDBRANCH   2  11
ENDBRANCH   1   6
BRANCH   1  15
ATOM     15  C   UNL     1      44.171   6.723  11.293  0.00  0.00    +0.000 C 
BRANCH  15  16
ATOM     16  C   UNL     1      44.222   5.237  11.025  0.00  0.00    +0.000 A 
ATOM     17  C   UNL     1      43.402   4.356  11.738  0.00  0.00    +0.000 A 
ATOM     18  C   UNL     1      43.396   3.002  11.422  0.00  0.00    +0.000 A 
ATOM     19  C   UNL     1      44.192   2.520  10.380  0.00  0.00    +0.000 A 
ATOM     20  C   UNL     1      45.003   3.378   9.615  0.00  0.00    +0.000 A 
ATOM     21  C   UNL     1      45.013   4.739   9.974  0.00  0.00    +0.000 A 
BRANCH  20  22
ATOM     22  C   UNL     1      45.767   2.881   8.447  0.00  0.00    +0.000 A 
ATOM     23  C   UNL     1      46.150   1.535   8.350  0.00  0.00    +0.000 A 
ATOM     24  C   UNL     1      46.837   1.095   7.229  0.00  0.00    +0.000 A 
ATOM     25  N   UNL     1      47.165   1.889   6.191  0.00  0.00    +0.000 NA
ATOM     26  C   UNL     1      46.793   3.181   6.287  0.00  0.00    +0.000 A 
ATOM     27  C   UNL     1      46.112   3.713   7.373  0.00  0.00    +0.000 A 
ENDBRANCH  20  22
ENDBRANCH  15  16
ENDBRANCH   1  15
TORSDOF 5
ENDMDL
MODEL 8
REMARK VINA RESULT:    -6.886      5.251      7.321
REMARK INTER + INTRA:          -9.722
REMARK INTER:                  -8.751
REMARK INTRA:                  -0.971
REMARK UNBOUND:                -0.824
REMARK  Name = 
REMARK  5 active torsions:
REMARK  status: ('A' for Active; 'I' for Inactive)
REMARK    1  A    between atoms: C_2  and  C_4
REMARK    2  A    between atoms: N_8  and  C_9
REMARK    3  A    between atoms: C_9  and  C_10
REMARK    4  A    between atoms: C_10  and  C_11
REMARK    5  A    between atoms: C_15  and  C_16
REMARK                            x       y       z     vdW  Elec       q    Type
REMARK                         _______ _______ _______ _____ _____    ______ ____
ROOT
ATOM      1  C   UNL     1      48.723   6.786  14.661  0.00  0.00    +0.000 C 
ENDROOT
BRANCH   1   6
ATOM      2  C   UNL     1      44.777   4.385  12.481  0.00  0.00    +0.000 A 
ATOM      3  C   UNL     1      45.978   3.907  12.989  0.00  0.00    +0.000 A 
ATOM      4  C   UNL     1      46.894   4.814  13.520  0.00  0.00    +0.000 A 
ATOM      5  C   UNL     1      46.611   6.179  13.518  0.00  0.00    +0.000 A 
ATOM      6  N   UNL     1      47.462   7.119  14.039  0.00  0.00    +0.000 N 
ATOM      7  N   UNL     1      45.458   6.652  13.005  0.00  0.00    +0.000 NA
ATOM      8  C   UNL     1      44.571   5.757  12.495  0.00  0.00    +0.000 A 
ATOM      9  H   UNL     1      47.164   8.077  13.902  0.00  0.00    +0.000 HD
BRANCH   2  11
ATOM     10  N   UNL     1      43.686   2.220  12.416  0.00  0.00    +0.000 N 
ATOM     11  C   UNL     1      43.741   3.494  11.922  0.00  0.00    +0.000 C 
ATOM     12  O   UNL     1      42.946   3.886  11.078  0.00  0.00    +0.000 OA
ATOM     13  H   UNL     1      42.910   1.650  12.096  0.00  0.00    +0.000 HD
ATOM     14  H   UNL     1      44.149   1.944  13.269  0.00  0.00    +0.000 HD
ENDBRANCH   2  11
ENDBRANCH   1   6
BRANCH   1  15
ATOM     15  C   UNL     1      48.665   6.888  16.185  0.00  0.00    +0.000 C 
BRANCH  15  16
ATOM     16  C   UNL     1      48.663   5.501  16.783  0.00  0.00    +0.000 A 
ATOM     17  C   UNL     1      47.463   4.807  16.966  0.00  0.00    +0.000 A 
ATOM     18  C   UNL     1      47.481   3.498  17.436  0.00  0.00    +0.000 A 
ATOM     19  C   UNL     1      48.697   2.866  17.707  0.00  0.00    +0.000 A 
ATOM     20  C   UNL     1      49.927   3.516  17.502  0.00  0.00    +0.000 A 
ATOM     21  C   UNL     1      49.879   4.849  17.054  0.00  0.00    +0.000 A 
BRANCH  20  22
ATOM     22  C   UNL     1      51.216   2.810  17.693  0.00  0.00    +0.000 A 
ATOM     23  C   UNL     1      51.357   1.455  17.361  0.00  0.00    +0.000 A 
ATOM     24  C   UNL     1      52.585   0.832  17.522  0.00  0.00    +0.000 A 
ATOM     25  N   UNL     1      53.688   1.456  17.979  0.00  0.00    +0.000 NA
ATOM     26  C   UNL     1      53.549   2.759  18.294  0.00  0.00    +0.000 A 
ATOM     27  C   UNL     1      52.359   3.463  18.176  0.00  0.00    +0.000 A 
ENDBRANCH  20  22
ENDBRANCH  15  16
ENDBRANCH   1  15
TORSDOF 5
ENDMDL
MODEL 9
REMARK VINA RESULT:    -6.714      3.760      7.360
REMARK INTER + INTRA:          -9.501
REMARK INTER:                  -8.485
REMARK INTRA:                  -1.015
REMARK UNBOUND:                -0.824
REMARK  Name = 
REMARK  5 active torsions:
REMARK  status: ('A' for Active; 'I' for Inactive)
REMARK    1  A    between atoms: C_2  and  C_4
REMARK    2  A    between atoms: N_8  and  C_9
REMARK    3  A    between atoms: C_9  and  C_10
REMARK    4  A    between atoms: C_10  and  C_11
REMARK    5  A    between atoms: C_15  and  C_16
REMARK                            x       y       z     vdW  Elec       q    Type
REMARK                         _______ _______ _______ _____ _____    ______ ____
ROOT
ATOM      1  C   UNL     1      48.716   7.435  12.394  0.00  0.00    +0.000 C 
ENDROOT
BRANCH   1   6
ATOM      2  C   UNL     1      47.717   4.567  16.501  0.00  0.00    +0.000 A 
ATOM      3  C   UNL     1      47.299   4.461  15.182  0.00  0.00    +0.000 A 
ATOM      4  C   UNL     1      47.725   5.417  14.260  0.00  0.00    +0.000 A 
ATOM      5  C   UNL     1      48.540   6.471  14.669  0.00  0.00    +0.000 A 
ATOM      6  N   UNL     1      49.005   7.432  13.810  0.00  0.00    +0.000 N 
ATOM      7  N   UNL     1      48.930   6.593  15.954  0.00  0.00    +0.000 NA
ATOM      8  C   UNL     1      48.512   5.652  16.841  0.00  0.00    +0.000 A 
ATOM      9  H   UNL     1      49.524   8.179  14.256  0.00  0.00    +0.000 HD
BRANCH   2  11
ATOM     10  N   UNL     1      48.103   3.543  18.665  0.00  0.00    +0.000 N 
ATOM     11  C   UNL     1      47.333   3.587  17.536  0.00  0.00    +0.000 C 
ATOM     12  O   UNL     1      46.351   2.868  17.405  0.00  0.00    +0.000 OA
ATOM     13  H   UNL     1      47.772   2.936  19.408  0.00  0.00    +0.000 HD
ATOM     14  H   UNL     1      48.752   4.275  18.913  0.00  0.00    +0.000 HD
ENDBRANCH   2  11
ENDBRANCH   1   6
BRANCH   1  15
ATOM     15  C   UNL     1      47.507   8.305  12.049  0.00  0.00    +0.000 C 
BRANCH  15  16
ATOM     16  C   UNL     1      46.295   7.425  11.854  0.00  0.00    +0.000 A 
ATOM     17  C   UNL     1      45.063   7.773  12.417  0.00  0.00    +0.000 A 
ATOM     18  C   UNL     1      43.936   7.001  12.158  0.00  0.00    +0.000 A 
ATOM     19  C   UNL     1      44.025   5.888  11.319  0.00  0.00    +0.000 A 
ATOM     20  C   UNL     1      45.236   5.525  10.703  0.00  0.00    +0.000 A 
ATOM     21  C   UNL     1      46.368   6.305  11.006  0.00  0.00    +0.000 A 
BRANCH  20  22
ATOM     22  C   UNL     1      45.306   4.405   9.734  0.00  0.00    +0.000 A 
ATOM     23  C   UNL     1      44.826   3.129  10.065  0.00  0.00    +0.000 A 
ATOM     24  C   UNL     1      44.877   2.111   9.125  0.00  0.00    +0.000 A 
ATOM     25  N   UNL     1      45.360   2.266   7.878  0.00  0.00    +0.000 NA
ATOM     26  C   UNL     1      45.817   3.495   7.563  0.00  0.00    +0.000 A 
ATOM     27  C   UNL     1      45.816   4.571   8.439  0.00  0.00    +0.000 A 
ENDBRANCH  20  22
ENDBRANCH  15  16
ENDBRANCH   1  15
TORSDOF 5
ENDMDL
