MODEL 1
REMARK VINA RESULT:    -8.161      0.000      0.000
REMARK INTER + INTRA:         -10.691
REMARK INTER:                 -10.070
REMARK INTRA:                  -0.621
REMARK UNBOUND:                -0.621
REMARK  Name = 
REMARK  5 active torsions:
REMARK  status: ('A' for Active; 'I' for Inactive)
REMARK    1  A    between atoms: C_1  and  C_2
REMARK    2  A    between atoms: C_2  and  O_3
REMARK    3  A    between atoms: C_2  and  C_13
REMARK    4  A    between atoms: O_3  and  C_4
REMARK    5  A    between atoms: C_7  and  C_8
REMARK                            x       y       z     vdW  Elec       q    Type
REMARK                         _______ _______ _______ _____ _____    ______ ____
ROOT
ATOM      1  C   UNL     1      44.487   3.099   9.310  0.00  0.00    +0.000 A 
ATOM      2  C   UNL     1      45.032   1.818   9.219  0.00  0.00    +0.000 A 
ATOM      3  C   UNL     1      46.032   1.537   8.292  0.00  0.00    +0.000 A 
ATOM      4  C   UNL     1      46.466   2.516   7.395  0.00  0.00    +0.000 A 
ATOM      5  C   UNL     1      45.827   3.761   7.384  0.00  0.00    +0.000 A 
ATOM      6  C   UNL     1      44.840   4.048   8.344  0.00  0.00    +0.000 A 
ENDROOT
BRANCH   4   7
ATOM      7  C   UNL     1      47.647   2.182   6.562  0.00  0.00    +0.000 C 
ATOM      8  N   UNL     1      47.926   2.975   5.490  0.00  0.00    +0.000 N 
ATOM      9  O   UNL     1      48.352   1.206   6.814  0.00  0.00    +0.000 OA
ATOM     10  H   UNL     1      47.248   3.610   5.093  0.00  0.00    +0.000 HD
ATOM     11  H   UNL     1      48.677   2.652   4.892  0.00  0.00    +0.000 HD
ENDBRANCH   4   7
BRANCH   1  12
ATOM     12  O   UNL     1      43.607   3.500  10.283  0.00  0.00    +0.000 OA
BRANCH  12  14
ATOM     13  C   UNL     1      42.616   5.122  11.772  0.00  0.00    +0.000 C 
ATOM     14  C   UNL     1      43.762   4.841  10.801  0.00  0.00    +0.000 C 
BRANCH  14  15
ATOM     15  C   UNL     1      45.168   5.018  11.440  0.00  0.00    +0.000 C 
ATOM     16  C   UNL     1      45.095   4.765  12.961  0.00  0.00    +0.000 C 
ATOM     17  C   UNL     1      46.391   5.068  13.703  0.00  0.00    +0.000 C 
ATOM     18  C   UNL     1      46.888   6.471  13.385  0.00  0.00    +0.000 C 
ATOM     19  C   UNL     1      47.109   6.619  11.887  0.00  0.00    +0.000 C 
ATOM     20  C   UNL     1      45.813   6.379  11.114  0.00  0.00    +0.000 C 
ENDBRANCH  14  15
ENDBRANCH  12  14
ENDBRANCH   1  12
TORSDOF 4
ENDMDL
MODEL 2
REMARK VINA RESULT:    -7.125      1.090      1.785
REMARK INTER + INTRA:          -9.412
REMARK INTER:                  -9.273
REMARK INTRA:                  -0.140
REMARK UNBOUND:                -0.621
REMARK  Name = 
REMARK  5 active torsions:
REMARK  status: ('A' for Active; 'I' for Inactive)
REMARK    1  A    between atoms: C_1  and  C_2
REMARK    2  A    between atoms: C_2  and  O_3
REMARK    3  A    between atoms: C_2  and  C_13
REMARK    4  A    between atoms: O_3  and  C_4
REMARK    5  A    between atoms: C_7  and  C_8
REMARK                            x       y       z     vdW  Elec       q    Type
REMARK                         _______ _______ _______ _____ _____    ______ ____
ROOT
ATOM      1  C   UNL     1      44.804   3.608   9.362  0.00  0.00    +0.000 A 
ATOM      2  C   UNL     1      45.533   4.511   8.589  0.00  0.00    +0.000 A 
ATOM      3  C   UNL     1      46.417   4.058   7.613  0.00  0.00    +0.000 A 
ATOM      4  C   UNL     1      46.635   2.690   7.431  0.00  0.00    +0.000 A 
ATOM      5  C   UNL     1      46.015   1.780   8.296  0.00  0.00    +0.000 A 
ATOM      6  C   UNL     1      45.100   2.244   9.258  0.00  0.00    +0.000 A 
ENDROOT
BRANCH   4   7
ATOM      7  C   UNL     1      47.459   2.295   6.262  0.00  0.00    +0.000 C 
ATOM      8  N   UNL     1      47.360   3.036   5.123  0.00  0.00    +0.000 N 
ATOM      9  O   UNL     1      48.201   1.314   6.305  0.00  0.00    +0.000 OA
ATOM     10  H   UNL     1      46.591   3.668   4.951  0.00  0.00    +0.000 HD
ATOM     11  H   UNL     1      47.859   2.670   4.321  0.00  0.00    +0.000 HD
ENDBRANCH   4   7
BRANCH   1  12
ATOM     12  O   UNL     1      43.812   3.963  10.240  0.00  0.00    +0.000 OA
BRANCH  12  14
ATOM     13  C   UNL     1      44.965   3.216  12.226  0.00  0.00    +0.000 C 
ATOM     14  C   UNL     1      44.220   4.376  11.564  0.00  0.00    +0.000 C 
BRANCH  14  15
ATOM     15  C   UNL     1      45.056   5.685  11.494  0.00  0.00    +0.000 C 
ATOM     16  C   UNL     1      46.156   5.671  12.578  0.00  0.00    +0.000 C 
ATOM     17  C   UNL     1      46.929   6.978  12.692  0.00  0.00    +0.000 C 
ATOM     18  C   UNL     1      45.985   8.160  12.859  0.00  0.00    +0.000 C 
ATOM     19  C   UNL     1      45.028   8.233  11.678  0.00  0.00    +0.000 C 
ATOM     20  C   UNL     1      44.193   6.958  11.567  0.00  0.00    +0.000 C 
ENDBRANCH  14  15
ENDBRANCH  12  14
ENDBRANCH   1  12
TORSDOF 4
ENDMDL
MODEL 3
REMARK VINA RESULT:    -6.594      3.651      6.346
REMARK INTER + INTRA:          -8.758
REMARK INTER:                  -8.130
REMARK INTRA:                  -0.627
REMARK UNBOUND:                -0.621
REMARK  Name = 
REMARK  5 active torsions:
REMARK  status: ('A' for Active; 'I' for Inactive)
REMARK    1  A    between atoms: C_1  and  C_2
REMARK    2  A    between atoms: C_2  and  O_3
REMARK    3  A    between atoms: C_2  and  C_13
REMARK    4  A    between atoms: O_3  and  C_4
REMARK    5  A    between atoms: C_7  and  C_8
REMARK                            x       y       z     vdW  Elec       q    Type
REMARK                         _______ _______ _______ _____ _____    ______ ____
ROOT
ATOM      1  C   UNL     1      46.330   6.092  11.802  0.00  0.00    +0.000 A 
ATOM      2  C   UNL     1      46.345   5.276  12.933  0.00  0.00    +0.000 A 
ATOM      3  C   UNL     1      47.212   5.543  13.989  0.00  0.00    +0.000 A 
ATOM      4  C   UNL     1      48.123   6.600  13.912  0.00  0.00    +0.000 A 
ATOM      5  C   UNL     1      48.212   7.337  12.726  0.00  0.00    +0.000 A 
ATOM      6  C   UNL     1      47.312   7.081  11.674  0.00  0.00    +0.000 A 
ENDROOT
BRANCH   4   7
ATOM      7  C   UNL     1      48.885   6.917  15.145  0.00  0.00    +0.000 C 
ATOM      8  N   UNL     1      48.248   7.596  16.140  0.00  0.00    +0.000 N 
ATOM      9  O   UNL     1      50.066   6.595  15.268  0.00  0.00    +0.000 OA
ATOM     10  H   UNL     1      47.388   8.104  15.988  0.00  0.00    +0.000 HD
ATOM     11  H   UNL     1      48.833   7.880  16.917  0.00  0.00    +0.000 HD
ENDBRANCH   4   7
BRANCH   1  12
ATOM     12  O   UNL     1      45.416   5.989  10.784  0.00  0.00    +0.000 OA
BRANCH  12  14
ATOM     13  C   UNL     1      43.090   5.396  11.048  0.00  0.00    +0.000 C 
ATOM     14  C   UNL     1      44.507   4.866  10.825  0.00  0.00    +0.000 C 
BRANCH  14  15
ATOM     15  C   UNL     1      44.647   4.005   9.538  0.00  0.00    +0.000 C 
ATOM     16  C   UNL     1      44.903   2.529   9.912  0.00  0.00    +0.000 C 
ATOM     17  C   UNL     1      45.209   1.632   8.719  0.00  0.00    +0.000 C 
ATOM     18  C   UNL     1      46.339   2.208   7.878  0.00  0.00    +0.000 C 
ATOM     19  C   UNL     1      45.969   3.600   7.389  0.00  0.00    +0.000 C 
ATOM     20  C   UNL     1      45.710   4.544   8.563  0.00  0.00    +0.000 C 
ENDBRANCH  14  15
ENDBRANCH  12  14
ENDBRANCH   1  12
TORSDOF 4
ENDMDL
MODEL 4
REMARK VINA RESULT:    -5.733      3.720      6.476
REMARK INTER + INTRA:          -7.695
REMARK INTER:                  -7.038
REMARK INTRA:                  -0.658
REMARK UNBOUND:                -0.621
REMARK  Name = 
REMARK  5 active torsions:
REMARK  status: ('A' for Active; 'I' for Inactive)
REMARK    1  A    between atoms: C_1  and  C_2
REMARK    2  A    between atoms: C_2  and  O_3
REMARK    3  A    between atoms: C_2  and  C_13
REMARK    4  A    between atoms: O_3  and  C_4
REMARK    5  A    between atoms: C_7  and  C_8
REMARK                            x       y       z     vdW  Elec       q    Type
REMARK                         _______ _______ _______ _____ _____    ______ ____
ROOT
ATOM      1  C   UNL     1      46.635   6.656  12.134  0.00  0.00    +0.000 A 
ATOM      2  C   UNL     1      46.787   6.055  13.383  0.00  0.00    +0.000 A 
ATOM      3  C   UNL     1      47.928   6.284  14.147  0.00  0.00    +0.000 A 
ATOM      4  C   UNL     1      48.969   7.073  13.651  0.00  0.00    +0.000 A 
ATOM      5  C   UNL     1      48.888   7.565  12.343  0.00  0.00    +0.000 A 
ATOM      6  C   UNL     1      47.718   7.355  11.590  0.00  0.00    +0.000 A 
ENDROOT
BRANCH   4   7
ATOM      7  C   UNL     1      50.066   7.402  14.595  0.00  0.00    +0.000 C 
ATOM      8  N   UNL     1      50.737   8.574  14.419  0.00  0.00    +0.000 N 
ATOM      9  O   UNL     1      50.379   6.635  15.504  0.00  0.00    +0.000 OA
ATOM     10  H   UNL     1      50.701   9.098  13.556  0.00  0.00    +0.000 HD
ATOM     11  H   UNL     1      51.542   8.710  15.020  0.00  0.00    +0.000 HD
ENDBRANCH   4   7
BRANCH   1  12
ATOM     12  O   UNL     1      45.489   6.602  11.381  0.00  0.00    +0.000 OA
BRANCH  12  14
ATOM     13  C   UNL     1      43.232   5.752  11.260  0.00  0.00    +0.000 C 
ATOM     14  C   UNL     1      44.704   5.391  11.462  0.00  0.00    +0.000 C 
BRANCH  14  15
ATOM     15  C   UNL     1      45.224   4.336  10.444  0.00  0.00    +0.000 C 
ATOM     16  C   UNL     1      45.616   5.026   9.119  0.00  0.00    +0.000 C 
ATOM     17  C   UNL     1      45.990   4.058   8.004  0.00  0.00    +0.000 C 
ATOM     18  C   UNL     1      44.902   3.014   7.799  0.00  0.00    +0.000 C 
ATOM     19  C   UNL     1      44.670   2.242   9.089  0.00  0.00    +0.000 C 
ATOM     20  C   UNL     1      44.236   3.176  10.218  0.00  0.00    +0.000 C 
ENDBRANCH  14  15
ENDBRANCH  12  14
ENDBRANCH   1  12
TORSDOF 4
ENDMDL
MODEL 5
REMARK VINA RESULT:    -5.490      2.814      4.611
REMARK INTER + INTRA:          -7.396
REMARK INTER:                  -6.763
REMARK INTRA:                  -0.633
REMARK UNBOUND:                -0.621
REMARK  Name = 
REMARK  5 active torsions:
REMARK  status: ('A' for Active; 'I' for Inactive)
REMARK    1  A    between atoms: C_1  and  C_2
REMARK    2  A    between atoms: C_2  and  O_3
REMARK    3  A    between atoms: C_2  and  C_13
REMARK    4  A    between atoms: O_3  and  C_4
REMARK    5  A    between atoms: C_7  and  C_8
REMARK                            x       y       z     vdW  Elec       q    Type
REMARK                         _______ _______ _______ _____ _____    ______ ____
ROOT
ATOM      1  C   UNL     1      45.654   5.082  12.531  0.00  0.00    +0.000 A 
ATOM      2  C   UNL     1      45.217   3.758  12.528  0.00  0.00    +0.000 A 
ATOM      3  C   UNL     1      44.934   3.107  11.330  0.00  0.00    +0.000 A 
ATOM      4  C   UNL     1      45.026   3.786  10.113  0.00  0.00    +0.000 A 
ATOM      5  C   UNL     1      45.328   5.153  10.116  0.00  0.00    +0.000 A 
ATOM      6  C   UNL     1      45.643   5.796  11.327  0.00  0.00    +0.000 A 
ENDROOT
BRANCH   4   7
ATOM      7  C   UNL     1      44.874   2.973   8.881  0.00  0.00    +0.000 C 
ATOM      8  N   UNL     1      45.244   3.527   7.692  0.00  0.00    +0.000 N 
ATOM      9  O   UNL     1      44.411   1.834   8.919  0.00  0.00    +0.000 OA
ATOM     10  H   UNL     1      45.375   4.522   7.573  0.00  0.00    +0.000 HD
ATOM     11  H   UNL     1      45.028   2.977   6.869  0.00  0.00    +0.000 HD
ENDBRANCH   4   7
BRANCH   1  12
ATOM     12  O   UNL     1      46.091   5.752  13.646  0.00  0.00    +0.000 OA
BRANCH  12  14
ATOM     13  C   UNL     1      48.277   6.750  13.876  0.00  0.00    +0.000 C 
ATOM     14  C   UNL     1      47.442   5.487  14.088  0.00  0.00    +0.000 C 
BRANCH  14  15
ATOM     15  C   UNL     1      47.445   4.986  15.559  0.00  0.00    +0.000 C 
ATOM     16  C   UNL     1      48.586   5.665  16.348  0.00  0.00    +0.000 C 
ATOM     17  C   UNL     1      48.771   5.123  17.760  0.00  0.00    +0.000 C 
ATOM     18  C   UNL     1      48.914   3.608  17.749  0.00  0.00    +0.000 C 
ATOM     19  C   UNL     1      47.686   2.973  17.114  0.00  0.00    +0.000 C 
ATOM     20  C   UNL     1      47.501   3.451  15.675  0.00  0.00    +0.000 C 
ENDBRANCH  14  15
ENDBRANCH  12  14
ENDBRANCH   1  12
TORSDOF 4
ENDMDL
MODEL 6
REMARK VINA RESULT:    -5.442      3.291      5.519
REMARK INTER + INTRA:          -7.336
REMARK INTER:                  -6.660
REMARK INTRA:                  -0.675
REMARK UNBOUND:                -0.621
REMARK  Name = 
REMARK  5 active torsions:
REMARK  status: ('A' for Active; 'I' for Inactive)
REMARK    1  A    between atoms: C_1  and  C_2
REMARK    2  A    between atoms: C_2  and  O_3
REMARK    3  A    between atoms: C_2  and  C_13
REMARK    4  A    between atoms: O_3  and  C_4
REMARK    5  A    between atoms: C_7  and  C_8
REMARK                            x       y       z     vdW  Elec       q    Type
REMARK                         _______ _______ _______ _____ _____    ______ ____
ROOT
ATOM      1  C   UNL     1      47.175   5.514  12.914  0.00  0.00    +0.000 A 
ATOM      2  C   UNL     1      46.412   4.420  13.322  0.00  0.00    +0.000 A 
ATOM      3  C   UNL     1      45.318   3.998  12.571  0.00  0.00    +0.000 A 
ATOM      4  C   UNL     1      44.929   4.698  11.426  0.00  0.00    +0.000 A 
ATOM      5  C   UNL     1      45.602   5.877  11.086  0.00  0.00    +0.000 A 
ATOM      6  C   UNL     1      46.725   6.280  11.833  0.00  0.00    +0.000 A 
ENDROOT
BRANCH   4   7
ATOM      7  C   UNL     1      43.864   4.082  10.596  0.00  0.00    +0.000 C 
ATOM      8  N   UNL     1      43.809   4.406   9.274  0.00  0.00    +0.000 N 
ATOM      9  O   UNL     1      43.038   3.313  11.084  0.00  0.00    +0.000 OA
ATOM     10  H   UNL     1      44.280   5.213   8.891  0.00  0.00    +0.000 HD
ATOM     11  H   UNL     1      43.007   4.045   8.770  0.00  0.00    +0.000 HD
ENDBRANCH   4   7
BRANCH   1  12
ATOM     12  O   UNL     1      48.346   5.908  13.510  0.00  0.00    +0.000 OA
BRANCH  12  14
ATOM     13  C   UNL     1      48.870   6.664  15.743  0.00  0.00    +0.000 C 
ATOM     14  C   UNL     1      48.285   7.057  14.386  0.00  0.00    +0.000 C 
BRANCH  14  15
ATOM     15  C   UNL     1      49.001   8.275  13.737  0.00  0.00    +0.000 C 
ATOM     16  C   UNL     1      47.967   9.354  13.350  0.00  0.00    +0.000 C 
ATOM     17  C   UNL     1      48.553  10.521  12.565  0.00  0.00    +0.000 C 
ATOM     18  C   UNL     1      49.335  10.029  11.357  0.00  0.00    +0.000 C 
ATOM     19  C   UNL     1      50.454   9.099  11.803  0.00  0.00    +0.000 C 
ATOM     20  C   UNL     1      49.897   7.885  12.546  0.00  0.00    +0.000 C 
ENDBRANCH  14  15
ENDBRANCH  12  14
ENDBRANCH   1  12
TORSDOF 4
ENDMDL
MODEL 7
REMARK VINA RESULT:    -5.377      3.263      5.479
REMARK INTER + INTRA:          -7.256
REMARK INTER:                  -6.656
REMARK INTRA:                  -0.599
REMARK UNBOUND:                -0.621
REMARK  Name = 
REMARK  5 active torsions:
REMARK  status: ('A' for Active; 'I' for Inactive)
REMARK    1  A    between atoms: C_1  and  C_2
REMARK    2  A    between atoms: C_2  and  O_3
REMARK    3  A    between atoms: C_2  and  C_13
REMARK    4  A    between atoms: O_3  and  C_4
REMARK    5  A    between atoms: C_7  and  C_8
REMARK                            x       y       z     vdW  Elec       q    Type
REMARK                         _______ _______ _______ _____ _____    ______ ____
ROOT
ATOM      1  C   UNL     1      46.497   5.995  12.582  0.00  0.00    +0.000 A 
ATOM      2  C   UNL     1      45.960   6.097  11.299  0.00  0.00    +0.000 A 
ATOM      3  C   UNL     1      45.201   5.061  10.762  0.00  0.00    +0.000 A 
ATOM      4  C   UNL     1      45.012   3.875  11.476  0.00  0.00    +0.000 A 
ATOM      5  C   UNL     1      45.662   3.707  12.704  0.00  0.00    +0.000 A 
ATOM      6  C   UNL     1      46.402   4.771  13.253  0.00  0.00    +0.000 A 
ENDROOT
BRANCH   4   7
ATOM      7  C   UNL     1      44.052   2.897  10.905  0.00  0.00    +0.000 C 
ATOM      8  N   UNL     1      44.433   2.185   9.808  0.00  0.00    +0.000 N 
ATOM      9  O   UNL     1      42.934   2.740  11.392  0.00  0.00    +0.000 OA
ATOM     10  H   UNL     1      45.212   2.459   9.225  0.00  0.00    +0.000 HD
ATOM     11  H   UNL     1      43.712   1.607   9.392  0.00  0.00    +0.000 HD
ENDBRANCH   4   7
BRANCH   1  12
ATOM     12  O   UNL     1      47.132   7.017  13.241  0.00  0.00    +0.000 OA
BRANCH  12  14
ATOM     13  C   UNL     1      49.261   7.494  12.206  0.00  0.00    +0.000 C 
ATOM     14  C   UNL     1      48.560   6.895  13.426  0.00  0.00    +0.000 C 
BRANCH  14  15
ATOM     15  C   UNL     1      48.994   7.551  14.768  0.00  0.00    +0.000 C 
ATOM     16  C   UNL     1      48.923   6.516  15.911  0.00  0.00    +0.000 C 
ATOM     17  C   UNL     1      49.178   7.102  17.294  0.00  0.00    +0.000 C 
ATOM     18  C   UNL     1      48.275   8.298  17.556  0.00  0.00    +0.000 C 
ATOM     19  C   UNL     1      48.503   9.366  16.497  0.00  0.00    +0.000 C 
ATOM     20  C   UNL     1      48.201   8.829  15.099  0.00  0.00    +0.000 C 
ENDBRANCH  14  15
ENDBRANCH  12  14
ENDBRANCH   1  12
TORSDOF 4
ENDMDL
MODEL 8
REMARK VINA RESULT:    -5.366      3.261      5.453
REMARK INTER + INTRA:          -7.242
REMARK INTER:                  -6.739
REMARK INTRA:                  -0.504
REMARK UNBOUND:                -0.621
REMARK  Name = 
REMARK  5 active torsions:
REMARK  status: ('A' for Active; 'I' for Inactive)
REMARK    1  A    between atoms: C_1  and  C_2
REMARK    2  A    between atoms: C_2  and  O_3
REMARK    3  A    between atoms: C_2  and  C_13
REMARK    4  A    between atoms: O_3  and  C_4
REMARK    5  A    between atoms: C_7  and  C_8
REMARK                            x       y       z     vdW  Elec       q    Type
REMARK                         _______ _______ _______ _____ _____    ______ ____
ROOT
ATOM      1  C   UNL     1      46.295   6.184  12.542  0.00  0.00    +0.000 A 
ATOM      2  C   UNL     1      45.761   5.183  13.353  0.00  0.00    +0.000 A 
ATOM      3  C   UNL     1      45.021   4.141  12.801  0.00  0.00    +0.000 A 
ATOM      4  C   UNL     1      44.749   4.110  11.430  0.00  0.00    +0.000 A 
ATOM      5  C   UNL     1      45.160   5.182  10.630  0.00  0.00    +0.000 A 
ATOM      6  C   UNL     1      45.933   6.216  11.190  0.00  0.00    +0.000 A 
ENDROOT
BRANCH   4   7
ATOM      7  C   UNL     1      44.105   2.881  10.904  0.00  0.00    +0.000 C 
ATOM      8  N   UNL     1      44.708   2.227   9.873  0.00  0.00    +0.000 N 
ATOM      9  O   UNL     1      43.043   2.467  11.369  0.00  0.00    +0.000 OA
ATOM     10  H   UNL     1      45.416   2.658   9.295  0.00  0.00    +0.000 HD
ATOM     11  H   UNL     1      44.183   1.455   9.479  0.00  0.00    +0.000 HD
ENDBRANCH   4   7
BRANCH   1  12
ATOM     12  O   UNL     1      47.151   7.162  12.980  0.00  0.00    +0.000 OA
BRANCH  12  14
ATOM     13  C   UNL     1      46.329   9.384  12.510  0.00  0.00    +0.000 C 
ATOM     14  C   UNL     1      47.341   8.306  12.117  0.00  0.00    +0.000 C 
BRANCH  14  15
ATOM     15  C   UNL     1      48.815   8.795  12.176  0.00  0.00    +0.000 C 
ATOM     16  C   UNL     1      48.952  10.156  11.461  0.00  0.00    +0.000 C 
ATOM     17  C   UNL     1      50.389  10.645  11.329  0.00  0.00    +0.000 C 
ATOM     18  C   UNL     1      51.272   9.581  10.694  0.00  0.00    +0.000 C 
ATOM     19  C   UNL     1      51.239   8.309  11.529  0.00  0.00    +0.000 C 
ATOM     20  C   UNL     1      49.817   7.758  11.635  0.00  0.00    +0.000 C 
ENDBRANCH  14  15
ENDBRANCH  12  14
ENDBRANCH   1  12
TORSDOF 4
ENDMDL
