MODEL 1
REMARK VINA RESULT:    -9.392      0.000      0.000
REMARK INTER + INTRA:         -12.365
REMARK INTER:                 -11.588
REMARK INTRA:                  -0.777
REMARK UNBOUND:                -0.777
REMARK  Name = 
REMARK  4 active torsions:
REMARK  status: ('A' for Active; 'I' for Inactive)
REMARK    1  A    between atoms: C_2  and  C_4
REMARK    2  A    between atoms: C_7  and  C_8
REMARK    3  A    between atoms: C_8  and  N_9
REMARK    4  A    between atoms: C_12  and  C_13
REMARK                            x       y       z     vdW  Elec       q    Type
REMARK                         _______ _______ _______ _____ _____    ______ ____
ROOT
ATOM      1  N   UNL     1      44.253   3.121  11.828  0.00  0.00    +0.000 N 
ATOM      2  C   UNL     1      45.278   3.885  12.357  0.00  0.00    +0.000 A 
ATOM      3  C   UNL     1      45.407   5.250  12.119  0.00  0.00    +0.000 A 
ATOM      4  C   UNL     1      46.397   6.013  12.762  0.00  0.00    +0.000 A 
ATOM      5  C   UNL     1      47.239   5.329  13.640  0.00  0.00    +0.000 A 
ATOM      6  C   UNL     1      47.061   3.964  13.818  0.00  0.00    +0.000 A 
ATOM      7  N   UNL     1      46.105   3.241  13.197  0.00  0.00    +0.000 NA
ATOM      8  H   UNL     1      44.464   2.140  11.997  0.00  0.00    +0.000 HD
ENDROOT
BRANCH   4   9
ATOM      9  C   UNL     1      46.509   7.471  12.526  0.00  0.00    +0.000 A 
ATOM     10  C   UNL     1      47.753   8.093  12.311  0.00  0.00    +0.000 A 
ATOM     11  C   UNL     1      47.854   9.474  12.093  0.00  0.00    +0.000 A 
ATOM     12  C   UNL     1      46.708  10.262  12.074  0.00  0.00    +0.000 A 
ATOM     13  C   UNL     1      45.475   9.664  12.275  0.00  0.00    +0.000 A 
ATOM     14  F   UNL     1      44.365  10.413  12.249  0.00  0.00    +0.000 F 
ATOM     15  C   UNL     1      45.369   8.295  12.505  0.00  0.00    +0.000 A 
ENDBRANCH   4   9
BRANCH   1  16
ATOM     16  C   UNL     1      43.713   3.437  10.523  0.00  0.00    +0.000 C 
BRANCH  16  20
ATOM     17  C   UNL     1      46.578   2.589   7.399  0.00  0.00    +0.000 A 
ATOM     18  C   UNL     1      46.072   1.548   8.184  0.00  0.00    +0.000 A 
ATOM     19  C   UNL     1      45.153   1.826   9.201  0.00  0.00    +0.000 A 
ATOM     20  C   UNL     1      44.734   3.144   9.449  0.00  0.00    +0.000 A 
ATOM     21  C   UNL     1      45.251   4.181   8.661  0.00  0.00    +0.000 A 
ATOM     22  C   UNL     1      46.172   3.905   7.646  0.00  0.00    +0.000 A 
BRANCH  17  24
ATOM     23  N   UNL     1      47.555   3.205   5.252  0.00  0.00    +0.000 N 
ATOM     24  C   UNL     1      47.569   2.349   6.317  0.00  0.00    +0.000 C 
ATOM     25  O   UNL     1      48.391   1.445   6.387  0.00  0.00    +0.000 OA
ATOM     26  H   UNL     1      48.301   3.090   4.577  0.00  0.00    +0.000 HD
ATOM     27  H   UNL     1      47.077   4.094   5.276  0.00  0.00    +0.000 HD
ENDBRANCH  17  24
ENDBRANCH  16  20
ENDBRANCH   1  16
TORSDOF 4
ENDMDL
MODEL 2
REMARK VINA RESULT:    -9.343      1.578      2.134
REMARK INTER + INTRA:         -12.304
REMARK INTER:                 -11.504
REMARK INTRA:                  -0.801
REMARK UNBOUND:                -0.777
REMARK  Name = 
REMARK  4 active torsions:
REMARK  status: ('A' for Active; 'I' for Inactive)
REMARK    1  A    between atoms: C_2  and  C_4
REMARK    2  A    between atoms: C_7  and  C_8
REMARK    3  A    between atoms: C_8  and  N_9
REMARK    4  A    between atoms: C_12  and  C_13
REMARK                            x       y       z     vdW  Elec       q    Type
REMARK                         _______ _______ _______ _____ _____    ______ ____
ROOT
ATOM      1  N   UNL     1      43.999   4.220  11.724  0.00  0.00    +0.000 N 
ATOM      2  C   UNL     1      45.159   4.724  12.285  0.00  0.00    +0.000 A 
ATOM      3  C   UNL     1      45.698   5.958  11.932  0.00  0.00    +0.000 A 
ATOM      4  C   UNL     1      46.816   6.484  12.601  0.00  0.00    +0.000 A 
ATOM      5  C   UNL     1      47.353   5.704  13.626  0.00  0.00    +0.000 A 
ATOM      6  C   UNL     1      46.772   4.477  13.914  0.00  0.00    +0.000 A 
ATOM      7  N   UNL     1      45.697   3.981  13.266  0.00  0.00    +0.000 NA
ATOM      8  H   UNL     1      43.901   3.248  12.008  0.00  0.00    +0.000 HD
ENDROOT
BRANCH   4   9
ATOM      9  C   UNL     1      47.366   7.812  12.239  0.00  0.00    +0.000 A 
ATOM     10  C   UNL     1      46.597   8.985  12.343  0.00  0.00    +0.000 A 
ATOM     11  C   UNL     1      47.120  10.238  11.995  0.00  0.00    +0.000 A 
ATOM     12  C   UNL     1      48.432  10.344  11.546  0.00  0.00    +0.000 A 
ATOM     13  C   UNL     1      49.205   9.199  11.446  0.00  0.00    +0.000 A 
ATOM     14  F   UNL     1      50.473   9.293  11.024  0.00  0.00    +0.000 F 
ATOM     15  C   UNL     1      48.688   7.950  11.777  0.00  0.00    +0.000 A 
ENDBRANCH   4   9
BRANCH   1  16
ATOM     16  C   UNL     1      43.674   4.513  10.344  0.00  0.00    +0.000 C 
BRANCH  16  20
ATOM     17  C   UNL     1      46.470   2.476   7.749  0.00  0.00    +0.000 A 
ATOM     18  C   UNL     1      46.337   3.867   7.680  0.00  0.00    +0.000 A 
ATOM     19  C   UNL     1      45.425   4.522   8.513  0.00  0.00    +0.000 A 
ATOM     20  C   UNL     1      44.632   3.799   9.418  0.00  0.00    +0.000 A 
ATOM     21  C   UNL     1      44.767   2.405   9.477  0.00  0.00    +0.000 A 
ATOM     22  C   UNL     1      45.676   1.748   8.644  0.00  0.00    +0.000 A 
BRANCH  17  24
ATOM     23  N   UNL     1      48.507   2.404   6.413  0.00  0.00    +0.000 N 
ATOM     24  C   UNL     1      47.412   1.730   6.875  0.00  0.00    +0.000 C 
ATOM     25  O   UNL     1      47.239   0.548   6.605  0.00  0.00    +0.000 OA
ATOM     26  H   UNL     1      49.189   1.853   5.906  0.00  0.00    +0.000 HD
ATOM     27  H   UNL     1      48.813   3.279   6.811  0.00  0.00    +0.000 HD
ENDBRANCH  17  24
ENDBRANCH  16  20
ENDBRANCH   1  16
TORSDOF 4
ENDMDL
MODEL 3
REMARK VINA RESULT:    -8.049      4.657      8.314
REMARK INTER + INTRA:         -10.708
REMARK INTER:                 -10.203
REMARK INTRA:                  -0.505
REMARK UNBOUND:                -0.777
REMARK  Name = 
REMARK  4 active torsions:
REMARK  status: ('A' for Active; 'I' for Inactive)
REMARK    1  A    between atoms: C_2  and  C_4
REMARK    2  A    between atoms: C_7  and  C_8
REMARK    3  A    between atoms: C_8  and  N_9
REMARK    4  A    between atoms: C_12  and  C_13
REMARK                            x       y       z     vdW  Elec       q    Type
REMARK                         _______ _______ _______ _____ _____    ______ ____
ROOT
ATOM      1  N   UNL     1      45.590   5.047  13.992  0.00  0.00    +0.000 N 
ATOM      2  C   UNL     1      44.932   4.960  12.778  0.00  0.00    +0.000 A 
ATOM      3  C   UNL     1      45.506   4.395  11.644  0.00  0.00    +0.000 A 
ATOM      4  C   UNL     1      44.768   4.225  10.460  0.00  0.00    +0.000 A 
ATOM      5  C   UNL     1      43.441   4.657  10.485  0.00  0.00    +0.000 A 
ATOM      6  C   UNL     1      42.939   5.224  11.648  0.00  0.00    +0.000 A 
ATOM      7  N   UNL     1      43.656   5.381  12.781  0.00  0.00    +0.000 NA
ATOM      8  H   UNL     1      45.044   5.642  14.611  0.00  0.00    +0.000 HD
ENDROOT
BRANCH   4   9
ATOM      9  C   UNL     1      45.377   3.595   9.265  0.00  0.00    +0.000 A 
ATOM     10  C   UNL     1      45.853   4.362   8.185  0.00  0.00    +0.000 A 
ATOM     11  C   UNL     1      46.424   3.761   7.055  0.00  0.00    +0.000 A 
ATOM     12  C   UNL     1      46.542   2.377   6.987  0.00  0.00    +0.000 A 
ATOM     13  C   UNL     1      46.085   1.608   8.045  0.00  0.00    +0.000 A 
ATOM     14  F   UNL     1      46.203   0.275   7.992  0.00  0.00    +0.000 F 
ATOM     15  C   UNL     1      45.505   2.198   9.164  0.00  0.00    +0.000 A 
ENDBRANCH   4   9
BRANCH   1  16
ATOM     16  C   UNL     1      47.024   5.243  14.027  0.00  0.00    +0.000 C 
BRANCH  16  20
ATOM     17  C   UNL     1      48.582   4.597  18.007  0.00  0.00    +0.000 A 
ATOM     18  C   UNL     1      47.665   3.693  17.460  0.00  0.00    +0.000 A 
ATOM     19  C   UNL     1      47.155   3.910  16.177  0.00  0.00    +0.000 A 
ATOM     20  C   UNL     1      47.548   5.031  15.428  0.00  0.00    +0.000 A 
ATOM     21  C   UNL     1      48.463   5.934  15.986  0.00  0.00    +0.000 A 
ATOM     22  C   UNL     1      48.972   5.721  17.270  0.00  0.00    +0.000 A 
BRANCH  17  24
ATOM     23  N   UNL     1      48.463   3.602  20.230  0.00  0.00    +0.000 N 
ATOM     24  C   UNL     1      49.142   4.421  19.373  0.00  0.00    +0.000 C 
ATOM     25  O   UNL     1      50.189   4.958  19.712  0.00  0.00    +0.000 OA
ATOM     26  H   UNL     1      48.913   3.414  21.117  0.00  0.00    +0.000 HD
ATOM     27  H   UNL     1      47.756   2.955  19.915  0.00  0.00    +0.000 HD
ENDBRANCH  17  24
ENDBRANCH  16  20
ENDBRANCH   1  16
TORSDOF 4
ENDMDL
MODEL 4
REMARK VINA RESULT:    -7.836      3.866      7.210
REMARK INTER + INTRA:         -10.445
REMARK INTER:                  -9.902
REMARK INTRA:                  -0.543
REMARK UNBOUND:                -0.777
REMARK  Name = 
REMARK  4 active torsions:
REMARK  status: ('A' for Active; 'I' for Inactive)
REMARK    1  A    between atoms: C_2  and  C_4
REMARK    2  A    between atoms: C_7  and  C_8
REMARK    3  A    between atoms: C_8  and  N_9
REMARK    4  A    between atoms: C_12  and  C_13
REMARK                            x       y       z     vdW  Elec       q    Type
REMARK                         _______ _______ _______ _____ _____    ______ ____
ROOT
ATOM      1  N   UNL     1      44.636   6.549  12.444  0.00  0.00    +0.000 N 
ATOM      2  C   UNL     1      44.321   5.368  11.795  0.00  0.00    +0.000 A 
ATOM      3  C   UNL     1      45.001   4.919  10.667  0.00  0.00    +0.000 A 
ATOM      4  C   UNL     1      44.725   3.663  10.101  0.00  0.00    +0.000 A 
ATOM      5  C   UNL     1      43.736   2.901  10.725  0.00  0.00    +0.000 A 
ATOM      6  C   UNL     1      43.090   3.419  11.839  0.00  0.00    +0.000 A 
ATOM      7  N   UNL     1      43.364   4.626  12.376  0.00  0.00    +0.000 NA
ATOM      8  H   UNL     1      43.904   6.746  13.124  0.00  0.00    +0.000 HD
ENDROOT
BRANCH   4   9
ATOM      9  C   UNL     1      45.473   3.179   8.917  0.00  0.00    +0.000 A 
ATOM     10  C   UNL     1      45.924   4.058   7.915  0.00  0.00    +0.000 A 
ATOM     11  C   UNL     1      46.627   3.595   6.795  0.00  0.00    +0.000 A 
ATOM     12  C   UNL     1      46.904   2.239   6.659  0.00  0.00    +0.000 A 
ATOM     13  C   UNL     1      46.474   1.361   7.640  0.00  0.00    +0.000 A 
ATOM     14  F   UNL     1      46.745   0.054   7.522  0.00  0.00    +0.000 F 
ATOM     15  C   UNL     1      45.764   1.813   8.749  0.00  0.00    +0.000 A 
ENDBRANCH   4   9
BRANCH   1  16
ATOM     16  C   UNL     1      45.122   7.684  11.689  0.00  0.00    +0.000 C 
BRANCH  16  20
ATOM     17  C   UNL     1      49.296   8.351  12.594  0.00  0.00    +0.000 A 
ATOM     18  C   UNL     1      48.436   9.440  12.420  0.00  0.00    +0.000 A 
ATOM     19  C   UNL     1      47.088   9.222  12.117  0.00  0.00    +0.000 A 
ATOM     20  C   UNL     1      46.586   7.918  11.979  0.00  0.00    +0.000 A 
ATOM     21  C   UNL     1      47.456   6.833  12.149  0.00  0.00    +0.000 A 
ATOM     22  C   UNL     1      48.804   7.049  12.449  0.00  0.00    +0.000 A 
BRANCH  17  24
ATOM     23  N   UNL     1      51.256   7.798  13.933  0.00  0.00    +0.000 N 
ATOM     24  C   UNL     1      50.740   8.529  12.901  0.00  0.00    +0.000 C 
ATOM     25  O   UNL     1      51.451   9.271  12.237  0.00  0.00    +0.000 OA
ATOM     26  H   UNL     1      52.259   7.854  14.061  0.00  0.00    +0.000 HD
ATOM     27  H   UNL     1      50.776   7.004  14.330  0.00  0.00    +0.000 HD
ENDBRANCH  17  24
ENDBRANCH  16  20
ENDBRANCH   1  16
TORSDOF 4
ENDMDL
MODEL 5
REMARK VINA RESULT:    -7.643      3.815      7.104
REMARK INTER + INTRA:         -10.207
REMARK INTER:                  -9.618
REMARK INTRA:                  -0.589
REMARK UNBOUND:                -0.777
REMARK  Name = 
REMARK  4 active torsions:
REMARK  status: ('A' for Active; 'I' for Inactive)
REMARK    1  A    between atoms: C_2  and  C_4
REMARK    2  A    between atoms: C_7  and  C_8
REMARK    3  A    between atoms: C_8  and  N_9
REMARK    4  A    between atoms: C_12  and  C_13
REMARK                            x       y       z     vdW  Elec       q    Type
REMARK                         _______ _______ _______ _____ _____    ______ ____
ROOT
ATOM      1  N   UNL     1      45.685   5.312  13.766  0.00  0.00    +0.000 N 
ATOM      2  C   UNL     1      45.026   5.138  12.561  0.00  0.00    +0.000 A 
ATOM      3  C   UNL     1      45.606   4.506  11.465  0.00  0.00    +0.000 A 
ATOM      4  C   UNL     1      44.868   4.250  10.296  0.00  0.00    +0.000 A 
ATOM      5  C   UNL     1      43.536   4.666  10.296  0.00  0.00    +0.000 A 
ATOM      6  C   UNL     1      43.029   5.303  11.421  0.00  0.00    +0.000 A 
ATOM      7  N   UNL     1      43.746   5.542  12.539  0.00  0.00    +0.000 NA
ATOM      8  H   UNL     1      45.133   5.939  14.346  0.00  0.00    +0.000 HD
ENDROOT
BRANCH   4   9
ATOM      9  C   UNL     1      45.484   3.551   9.143  0.00  0.00    +0.000 A 
ATOM     10  C   UNL     1      46.005   4.256   8.042  0.00  0.00    +0.000 A 
ATOM     11  C   UNL     1      46.581   3.589   6.953  0.00  0.00    +0.000 A 
ATOM     12  C   UNL     1      46.659   2.201   6.947  0.00  0.00    +0.000 A 
ATOM     13  C   UNL     1      46.158   1.493   8.027  0.00  0.00    +0.000 A 
ATOM     14  F   UNL     1      46.238   0.156   8.035  0.00  0.00    +0.000 F 
ATOM     15  C   UNL     1      45.572   2.148   9.107  0.00  0.00    +0.000 A 
ENDBRANCH   4   9
BRANCH   1  16
ATOM     16  C   UNL     1      47.117   5.528  13.784  0.00  0.00    +0.000 C 
BRANCH  16  20
ATOM     17  C   UNL     1      48.043   9.322  11.931  0.00  0.00    +0.000 A 
ATOM     18  C   UNL     1      48.940   8.254  11.824  0.00  0.00    +0.000 A 
ATOM     19  C   UNL     1      48.643   7.031  12.432  0.00  0.00    +0.000 A 
ATOM     20  C   UNL     1      47.453   6.861  13.159  0.00  0.00    +0.000 A 
ATOM     21  C   UNL     1      46.563   7.938  13.266  0.00  0.00    +0.000 A 
ATOM     22  C   UNL     1      46.859   9.162  12.661  0.00  0.00    +0.000 A 
BRANCH  17  24
ATOM     23  N   UNL     1      47.242  11.412  10.965  0.00  0.00    +0.000 N 
ATOM     24  C   UNL     1      48.318  10.648  11.317  0.00  0.00    +0.000 C 
ATOM     25  O   UNL     1      49.461  11.060  11.163  0.00  0.00    +0.000 OA
ATOM     26  H   UNL     1      47.447  12.350  10.644  0.00  0.00    +0.000 HD
ATOM     27  H   UNL     1      46.310  11.224  11.301  0.00  0.00    +0.000 HD
ENDBRANCH  17  24
ENDBRANCH  16  20
ENDBRANCH   1  16
TORSDOF 4
ENDMDL
MODEL 6
REMARK VINA RESULT:    -7.319      4.829      8.017
REMARK INTER + INTRA:          -9.807
REMARK INTER:                  -9.060
REMARK INTRA:                  -0.747
REMARK UNBOUND:                -0.777
REMARK  Name = 
REMARK  4 active torsions:
REMARK  status: ('A' for Active; 'I' for Inactive)
REMARK    1  A    between atoms: C_2  and  C_4
REMARK    2  A    between atoms: C_7  and  C_8
REMARK    3  A    between atoms: C_8  and  N_9
REMARK    4  A    between atoms: C_12  and  C_13
REMARK                            x       y       z     vdW  Elec       q    Type
REMARK                         _______ _______ _______ _____ _____    ______ ____
ROOT
ATOM      1  N   UNL     1      48.310   6.126  16.297  0.00  0.00    +0.000 N 
ATOM      2  C   UNL     1      48.171   6.187  14.921  0.00  0.00    +0.000 A 
ATOM      3  C   UNL     1      47.147   5.542  14.233  0.00  0.00    +0.000 A 
ATOM      4  C   UNL     1      46.975   5.717  12.850  0.00  0.00    +0.000 A 
ATOM      5  C   UNL     1      47.884   6.561  12.210  0.00  0.00    +0.000 A 
ATOM      6  C   UNL     1      48.889   7.159  12.958  0.00  0.00    +0.000 A 
ATOM      7  N   UNL     1      49.044   6.986  14.287  0.00  0.00    +0.000 NA
ATOM      8  H   UNL     1      49.212   6.524  16.546  0.00  0.00    +0.000 HD
ENDROOT
BRANCH   4   9
ATOM      9  C   UNL     1      45.865   5.051  12.129  0.00  0.00    +0.000 A 
ATOM     10  C   UNL     1      45.457   5.467  10.848  0.00  0.00    +0.000 A 
ATOM     11  C   UNL     1      44.403   4.837  10.174  0.00  0.00    +0.000 A 
ATOM     12  C   UNL     1      43.740   3.766  10.763  0.00  0.00    +0.000 A 
ATOM     13  C   UNL     1      44.135   3.338  12.020  0.00  0.00    +0.000 A 
ATOM     14  F   UNL     1      43.509   2.300  12.591  0.00  0.00    +0.000 F 
ATOM     15  C   UNL     1      45.172   3.968  12.701  0.00  0.00    +0.000 A 
ENDBRANCH   4   9
BRANCH   1  16
ATOM     16  C   UNL     1      47.927   4.926  17.011  0.00  0.00    +0.000 C 
BRANCH  16  20
ATOM     17  C   UNL     1      51.310   2.283  17.521  0.00  0.00    +0.000 A 
ATOM     18  C   UNL     1      51.455   3.655  17.749  0.00  0.00    +0.000 A 
ATOM     19  C   UNL     1      50.362   4.509  17.573  0.00  0.00    +0.000 A 
ATOM     20  C   UNL     1      49.116   4.006  17.164  0.00  0.00    +0.000 A 
ATOM     21  C   UNL     1      48.982   2.631  16.933  0.00  0.00    +0.000 A 
ATOM     22  C   UNL     1      50.074   1.775  17.105  0.00  0.00    +0.000 A 
BRANCH  17  24
ATOM     23  N   UNL     1      52.165   0.104  18.203  0.00  0.00    +0.000 N 
ATOM     24  C   UNL     1      52.444   1.334  17.678  0.00  0.00    +0.000 C 
ATOM     25  O   UNL     1      53.578   1.623  17.320  0.00  0.00    +0.000 OA
ATOM     26  H   UNL     1      52.927  -0.563  18.207  0.00  0.00    +0.000 HD
ATOM     27  H   UNL     1      51.225  -0.257  18.270  0.00  0.00    +0.000 HD
ENDBRANCH  17  24
ENDBRANCH  16  20
ENDBRANCH   1  16
TORSDOF 4
ENDMDL
MODEL 7
REMARK VINA RESULT:    -6.991      4.580      7.403
REMARK INTER + INTRA:          -9.403
REMARK INTER:                  -8.705
REMARK INTRA:                  -0.698
REMARK UNBOUND:                -0.777
REMARK  Name = 
REMARK  4 active torsions:
REMARK  status: ('A' for Active; 'I' for Inactive)
REMARK    1  A    between atoms: C_2  and  C_4
REMARK    2  A    between atoms: C_7  and  C_8
REMARK    3  A    between atoms: C_8  and  N_9
REMARK    4  A    between atoms: C_12  and  C_13
REMARK                            x       y       z     vdW  Elec       q    Type
REMARK                         _______ _______ _______ _____ _____    ______ ____
ROOT
ATOM      1  N   UNL     1      46.804   3.966  15.392  0.00  0.00    +0.000 N 
ATOM      2  C   UNL     1      46.545   4.745  14.277  0.00  0.00    +0.000 A 
ATOM      3  C   UNL     1      47.369   5.793  13.878  0.00  0.00    +0.000 A 
ATOM      4  C   UNL     1      47.134   6.490  12.680  0.00  0.00    +0.000 A 
ATOM      5  C   UNL     1      46.035   6.078  11.925  0.00  0.00    +0.000 A 
ATOM      6  C   UNL     1      45.249   5.034  12.392  0.00  0.00    +0.000 A 
ATOM      7  N   UNL     1      45.485   4.369  13.543  0.00  0.00    +0.000 NA
ATOM      8  H   UNL     1      45.987   3.387  15.575  0.00  0.00    +0.000 HD
ENDROOT
BRANCH   4   9
ATOM      9  C   UNL     1      48.032   7.586  12.247  0.00  0.00    +0.000 A 
ATOM     10  C   UNL     1      47.591   8.920  12.175  0.00  0.00    +0.000 A 
ATOM     11  C   UNL     1      48.443   9.952  11.759  0.00  0.00    +0.000 A 
ATOM     12  C   UNL     1      49.762   9.671  11.417  0.00  0.00    +0.000 A 
ATOM     13  C   UNL     1      50.214   8.364  11.491  0.00  0.00    +0.000 A 
ATOM     14  F   UNL     1      51.485   8.085  11.173  0.00  0.00    +0.000 F 
ATOM     15  C   UNL     1      49.369   7.332  11.890  0.00  0.00    +0.000 A 
ENDBRANCH   4   9
BRANCH   1  16
ATOM     16  C   UNL     1      47.439   4.551  16.553  0.00  0.00    +0.000 C 
BRANCH  16  20
ATOM     17  C   UNL     1      51.109   2.474  17.508  0.00  0.00    +0.000 A 
ATOM     18  C   UNL     1      51.010   3.853  17.720  0.00  0.00    +0.000 A 
ATOM     19  C   UNL     1      49.826   4.524  17.401  0.00  0.00    +0.000 A 
ATOM     20  C   UNL     1      48.731   3.831  16.862  0.00  0.00    +0.000 A 
ATOM     21  C   UNL     1      48.840   2.450  16.648  0.00  0.00    +0.000 A 
ATOM     22  C   UNL     1      50.023   1.777  16.964  0.00  0.00    +0.000 A 
BRANCH  17  24
ATOM     23  N   UNL     1      52.214   0.396  18.144  0.00  0.00    +0.000 N 
ATOM     24  C   UNL     1      52.350   1.716  17.816  0.00  0.00    +0.000 C 
ATOM     25  O   UNL     1      53.455   2.237  17.744  0.00  0.00    +0.000 OA
ATOM     26  H   UNL     1      53.074  -0.127  18.249  0.00  0.00    +0.000 HD
ATOM     27  H   UNL     1      51.367  -0.122  17.969  0.00  0.00    +0.000 HD
ENDBRANCH  17  24
ENDBRANCH  16  20
ENDBRANCH   1  16
TORSDOF 4
ENDMDL
MODEL 8
REMARK VINA RESULT:    -6.854      4.709      8.317
REMARK INTER + INTRA:          -9.234
REMARK INTER:                  -8.590
REMARK INTRA:                  -0.644
REMARK UNBOUND:                -0.777
REMARK  Name = 
REMARK  4 active torsions:
REMARK  status: ('A' for Active; 'I' for Inactive)
REMARK    1  A    between atoms: C_2  and  C_4
REMARK    2  A    between atoms: C_7  and  C_8
REMARK    3  A    between atoms: C_8  and  N_9
REMARK    4  A    between atoms: C_12  and  C_13
REMARK                            x       y       z     vdW  Elec       q    Type
REMARK                         _______ _______ _______ _____ _____    ______ ____
ROOT
ATOM      1  N   UNL     1      47.492   7.835  14.360  0.00  0.00    +0.000 N 
ATOM      2  C   UNL     1      46.634   7.797  13.275  0.00  0.00    +0.000 A 
ATOM      3  C   UNL     1      46.337   6.626  12.584  0.00  0.00    +0.000 A 
ATOM      4  C   UNL     1      45.377   6.608  11.558  0.00  0.00    +0.000 A 
ATOM      5  C   UNL     1      44.747   7.820  11.272  0.00  0.00    +0.000 A 
ATOM      6  C   UNL     1      45.104   8.951  11.993  0.00  0.00    +0.000 A 
ATOM      7  N   UNL     1      46.026   8.957  12.978  0.00  0.00    +0.000 NA
ATOM      8  H   UNL     1      47.682   8.809  14.585  0.00  0.00    +0.000 HD
ENDROOT
BRANCH   4   9
ATOM      9  C   UNL     1      45.045   5.351  10.846  0.00  0.00    +0.000 A 
ATOM     10  C   UNL     1      45.505   5.096   9.541  0.00  0.00    +0.000 A 
ATOM     11  C   UNL     1      45.184   3.908   8.870  0.00  0.00    +0.000 A 
ATOM     12  C   UNL     1      44.405   2.942   9.498  0.00  0.00    +0.000 A 
ATOM     13  C   UNL     1      43.951   3.174  10.786  0.00  0.00    +0.000 A 
ATOM     14  F   UNL     1      43.208   2.246  11.403  0.00  0.00    +0.000 F 
ATOM     15  C   UNL     1      44.255   4.358  11.453  0.00  0.00    +0.000 A 
ENDBRANCH   4   9
BRANCH   1  16
ATOM     16  C   UNL     1      48.628   6.939  14.417  0.00  0.00    +0.000 C 
BRANCH  16  20
ATOM     17  C   UNL     1      48.725   5.001  18.281  0.00  0.00    +0.000 A 
ATOM     18  C   UNL     1      49.510   6.136  18.047  0.00  0.00    +0.000 A 
ATOM     19  C   UNL     1      49.485   6.754  16.794  0.00  0.00    +0.000 A 
ATOM     20  C   UNL     1      48.683   6.247  15.759  0.00  0.00    +0.000 A 
ATOM     21  C   UNL     1      47.904   5.107  16.000  0.00  0.00    +0.000 A 
ATOM     22  C   UNL     1      47.930   4.485  17.251  0.00  0.00    +0.000 A 
BRANCH  17  24
ATOM     23  N   UNL     1      48.339   2.987  19.598  0.00  0.00    +0.000 N 
ATOM     24  C   UNL     1      48.727   4.297  19.589  0.00  0.00    +0.000 C 
ATOM     25  O   UNL     1      49.096   4.851  20.617  0.00  0.00    +0.000 OA
ATOM     26  H   UNL     1      48.444   2.496  20.477  0.00  0.00    +0.000 HD
ATOM     27  H   UNL     1      48.275   2.435  18.756  0.00  0.00    +0.000 HD
ENDBRANCH  17  24
ENDBRANCH  16  20
ENDBRANCH   1  16
TORSDOF 4
ENDMDL
MODEL 9
REMARK VINA RESULT:    -6.796      4.121      6.171
REMARK INTER + INTRA:          -9.162
REMARK INTER:                  -8.348
REMARK INTRA:                  -0.814
REMARK UNBOUND:                -0.777
REMARK  Name = 
REMARK  4 active torsions:
REMARK  status: ('A' for Active; 'I' for Inactive)
REMARK    1  A    between atoms: C_2  and  C_4
REMARK    2  A    between atoms: C_7  and  C_8
REMARK    3  A    between atoms: C_8  and  N_9
REMARK    4  A    between atoms: C_12  and  C_13
REMARK                            x       y       z     vdW  Elec       q    Type
REMARK                         _______ _______ _______ _____ _____    ______ ____
ROOT
ATOM      1  N   UNL     1      47.826   7.827  12.637  0.00  0.00    +0.000 N 
ATOM      2  C   UNL     1      48.715   7.608  13.675  0.00  0.00    +0.000 A 
ATOM      3  C   UNL     1      48.441   6.756  14.740  0.00  0.00    +0.000 A 
ATOM      4  C   UNL     1      49.411   6.475  15.718  0.00  0.00    +0.000 A 
ATOM      5  C   UNL     1      50.651   7.098  15.563  0.00  0.00    +0.000 A 
ATOM      6  C   UNL     1      50.848   7.947  14.483  0.00  0.00    +0.000 A 
ATOM      7  N   UNL     1      49.910   8.208  13.548  0.00  0.00    +0.000 NA
ATOM      8  H   UNL     1      48.170   8.605  12.078  0.00  0.00    +0.000 HD
ENDROOT
BRANCH   4   9
ATOM      9  C   UNL     1      49.122   5.544  16.834  0.00  0.00    +0.000 A 
ATOM     10  C   UNL     1      49.839   5.592  18.043  0.00  0.00    +0.000 A 
ATOM     11  C   UNL     1      49.566   4.706  19.093  0.00  0.00    +0.000 A 
ATOM     12  C   UNL     1      48.557   3.758  18.960  0.00  0.00    +0.000 A 
ATOM     13  C   UNL     1      47.836   3.703  17.778  0.00  0.00    +0.000 A 
ATOM     14  F   UNL     1      46.855   2.799  17.644  0.00  0.00    +0.000 F 
ATOM     15  C   UNL     1      48.111   4.571  16.726  0.00  0.00    +0.000 A 
ENDBRANCH   4   9
BRANCH   1  16
ATOM     16  C   UNL     1      46.400   7.809  12.888  0.00  0.00    +0.000 C 
BRANCH  16  20
ATOM     17  C   UNL     1      44.613   4.122  11.507  0.00  0.00    +0.000 A 
ATOM     18  C   UNL     1      44.761   4.357  12.878  0.00  0.00    +0.000 A 
ATOM     19  C   UNL     1      45.349   5.545  13.322  0.00  0.00    +0.000 A 
ATOM     20  C   UNL     1      45.800   6.509  12.405  0.00  0.00    +0.000 A 
ATOM     21  C   UNL     1      45.652   6.263  11.034  0.00  0.00    +0.000 A 
ATOM     22  C   UNL     1      45.068   5.075  10.588  0.00  0.00    +0.000 A 
BRANCH  17  24
ATOM     23  N   UNL     1      44.648   2.252   9.943  0.00  0.00    +0.000 N 
ATOM     24  C   UNL     1      44.010   2.869  10.982  0.00  0.00    +0.000 C 
ATOM     25  O   UNL     1      43.002   2.384  11.479  0.00  0.00    +0.000 OA
ATOM     26  H   UNL     1      44.282   1.350   9.668  0.00  0.00    +0.000 HD
ATOM     27  H   UNL     1      45.596   2.475   9.681  0.00  0.00    +0.000 HD
ENDBRANCH  17  24
ENDBRANCH  16  20
ENDBRANCH   1  16
TORSDOF 4
ENDMDL
