MODEL 1
REMARK VINA RESULT:    -8.381      0.000      0.000
REMARK INTER + INTRA:         -13.103
REMARK INTER:                 -11.811
REMARK INTRA:                  -1.292
REMARK UNBOUND:                -1.292
REMARK  Name = 
REMARK  8 active torsions:
REMARK  status: ('A' for Active; 'I' for Inactive)
REMARK    1  A    between atoms: C_1  and  C_2
REMARK    2  A    between atoms: C_2  and  N_3
REMARK    3  A    between atoms: C_2  and  C_16
REMARK    4  A    between atoms: C_4  and  C_6
REMARK    5  A    between atoms: C_19  and  C_20
REMARK    6  A    between atoms: C_20  and  O_21
REMARK    7  A    between atoms: O_21  and  C_22
REMARK    8  A    between atoms: C_22  and  C_24
REMARK                            x       y       z     vdW  Elec       q    Type
REMARK                         _______ _______ _______ _____ _____    ______ ____
ROOT
ATOM      1  C   UNL     1      48.967   7.842  13.103  0.00  0.00    +0.000 C 
ATOM      2  C   UNL     1      48.363   6.563  13.687  0.00  0.00    +0.000 C 
ENDROOT
BRANCH   2   3
ATOM      3  C   UNL     1      47.111   6.128  12.943  0.00  0.00    +0.000 A 
ATOM      4  C   UNL     1      46.268   5.168  13.518  0.00  0.00    +0.000 A 
ATOM      5  C   UNL     1      45.108   4.746  12.863  0.00  0.00    +0.000 A 
ATOM      6  C   UNL     1      44.759   5.278  11.618  0.00  0.00    +0.000 A 
ATOM      7  C   UNL     1      45.588   6.249  11.042  0.00  0.00    +0.000 A 
ATOM      8  C   UNL     1      46.750   6.672  11.698  0.00  0.00    +0.000 A 
BRANCH   6   9
ATOM      9  C   UNL     1      43.504   4.820  10.920  0.00  0.00    +0.000 C 
BRANCH   9  10
ATOM     10  O   UNL     1      43.814   4.263   9.635  0.00  0.00    +0.000 OA
BRANCH  10  11
ATOM     11  C   UNL     1      44.349   3.012   9.659  0.00  0.00    +0.000 C 
ATOM     12  O   UNL     1      43.844   2.038  10.205  0.00  0.00    +0.000 OA
BRANCH  11  13
ATOM     13  C   UNL     1      45.666   2.996   8.907  0.00  0.00    +0.000 C 
ATOM     14  C   UNL     1      45.917   1.613   8.296  0.00  0.00    +0.000 C 
ATOM     15  C   UNL     1      47.122   1.628   7.360  0.00  0.00    +0.000 C 
ATOM     16  C   UNL     1      47.019   2.756   6.336  0.00  0.00    +0.000 C 
ATOM     17  N   UNL     1      46.874   4.050   7.002  0.00  0.00    +0.000 NA
ATOM     18  C   UNL     1      45.656   4.081   7.822  0.00  0.00    +0.000 C 
ATOM     19  H   UNL     1      46.813   4.783   6.296  0.00  0.00    +0.000 HD
ENDBRANCH  11  13
ENDBRANCH  10  11
ENDBRANCH   9  10
ENDBRANCH   6   9
ENDBRANCH   2   3
BRANCH   2  20
ATOM     20  N   UNL     1      48.091   6.725  15.100  0.00  0.00    +0.000 N 
ATOM     21  C   UNL     1      49.045   6.524  16.064  0.00  0.00    +0.000 C 
ATOM     22  O   UNL     1      50.191   6.174  15.793  0.00  0.00    +0.000 OA
ATOM     23  H   UNL     1      47.132   6.917  15.372  0.00  0.00    +0.000 HD
BRANCH  21  24
ATOM     24  C   UNL     1      48.642   6.806  17.442  0.00  0.00    +0.000 A 
ATOM     25  C   UNL     1      48.316   8.103  17.821  0.00  0.00    +0.000 A 
ATOM     26  S   UNL     1      47.845   8.244  19.455  0.00  0.00    +0.000 S 
ATOM     27  C   UNL     1      48.112   6.586  19.733  0.00  0.00    +0.000 A 
ATOM     28  N   UNL     1      47.922   6.041  20.964  0.00  0.00    +0.000 NA
ATOM     29  C   UNL     1      48.213   4.783  21.043  0.00  0.00    +0.000 A 
ATOM     30  N   UNL     1      48.666   4.023  19.997  0.00  0.00    +0.000 N 
ATOM     31  C   UNL     1      48.797   4.510  18.722  0.00  0.00    +0.000 A 
ATOM     32  O   UNL     1      49.072   3.768  17.788  0.00  0.00    +0.000 OA
ATOM     33  C   UNL     1      48.531   5.930  18.588  0.00  0.00    +0.000 A 
ATOM     34  H   UNL     1      48.851   3.036  20.117  0.00  0.00    +0.000 HD
ENDBRANCH  21  24
ENDBRANCH   2  20
TORSDOF 7
ENDMDL
MODEL 2
REMARK VINA RESULT:    -7.588      1.605      2.189
REMARK INTER + INTRA:         -11.986
REMARK INTER:                 -10.666
REMARK INTRA:                  -1.320
REMARK UNBOUND:                -1.292
REMARK  Name = 
REMARK  8 active torsions:
REMARK  status: ('A' for Active; 'I' for Inactive)
REMARK    1  A    between atoms: C_1  and  C_2
REMARK    2  A    between atoms: C_2  and  N_3
REMARK    3  A    between atoms: C_2  and  C_16
REMARK    4  A    between atoms: C_4  and  C_6
REMARK    5  A    between atoms: C_19  and  C_20
REMARK    6  A    between atoms: C_20  and  O_21
REMARK    7  A    between atoms: O_21  and  C_22
REMARK    8  A    between atoms: C_22  and  C_24
REMARK                            x       y       z     vdW  Elec       q    Type
REMARK                         _______ _______ _______ _____ _____    ______ ____
ROOT
ATOM      1  C   UNL     1      49.247   7.804  13.627  0.00  0.00    +0.000 C 
ATOM      2  C   UNL     1      48.541   6.632  14.312  0.00  0.00    +0.000 C 
ENDROOT
BRANCH   2   3
ATOM      3  C   UNL     1      47.210   6.301  13.657  0.00  0.00    +0.000 A 
ATOM      4  C   UNL     1      46.720   4.990  13.720  0.00  0.00    +0.000 A 
ATOM      5  C   UNL     1      45.499   4.650  13.132  0.00  0.00    +0.000 A 
ATOM      6  C   UNL     1      44.735   5.615  12.469  0.00  0.00    +0.000 A 
ATOM      7  C   UNL     1      45.210   6.932  12.414  0.00  0.00    +0.000 A 
ATOM      8  C   UNL     1      46.433   7.272  13.003  0.00  0.00    +0.000 A 
BRANCH   6   9
ATOM      9  C   UNL     1      43.417   5.241  11.839  0.00  0.00    +0.000 C 
BRANCH   9  10
ATOM     10  O   UNL     1      43.615   4.739  10.511  0.00  0.00    +0.000 OA
BRANCH  10  11
ATOM     11  C   UNL     1      43.960   3.425  10.433  0.00  0.00    +0.000 C 
ATOM     12  O   UNL     1      43.348   2.502  10.958  0.00  0.00    +0.000 OA
BRANCH  11  13
ATOM     13  C   UNL     1      45.216   3.266   9.597  0.00  0.00    +0.000 C 
ATOM     14  C   UNL     1      45.256   1.876   8.950  0.00  0.00    +0.000 C 
ATOM     15  C   UNL     1      46.393   1.766   7.939  0.00  0.00    +0.000 C 
ATOM     16  C   UNL     1      46.366   2.921   6.941  0.00  0.00    +0.000 C 
ATOM     17  N   UNL     1      46.423   4.207   7.634  0.00  0.00    +0.000 NA
ATOM     18  C   UNL     1      45.272   4.368   8.532  0.00  0.00    +0.000 C 
ATOM     19  H   UNL     1      46.410   4.958   6.944  0.00  0.00    +0.000 HD
ENDBRANCH  11  13
ENDBRANCH  10  11
ENDBRANCH   9  10
ENDBRANCH   6   9
ENDBRANCH   2   3
BRANCH   2  20
ATOM     20  N   UNL     1      48.368   6.894  15.725  0.00  0.00    +0.000 N 
ATOM     21  C   UNL     1      48.641   5.959  16.689  0.00  0.00    +0.000 C 
ATOM     22  O   UNL     1      49.034   4.827  16.416  0.00  0.00    +0.000 OA
ATOM     23  H   UNL     1      47.952   7.782  15.987  0.00  0.00    +0.000 HD
BRANCH  21  24
ATOM     24  C   UNL     1      48.496   6.398  18.078  0.00  0.00    +0.000 A 
ATOM     25  C   UNL     1      47.680   5.688  18.951  0.00  0.00    +0.000 A 
ATOM     26  S   UNL     1      47.650   6.326  20.533  0.00  0.00    +0.000 S 
ATOM     27  C   UNL     1      48.683   7.606  20.098  0.00  0.00    +0.000 A 
ATOM     28  N   UNL     1      49.042   8.557  21.002  0.00  0.00    +0.000 NA
ATOM     29  C   UNL     1      49.788   9.498  20.520  0.00  0.00    +0.000 A 
ATOM     30  N   UNL     1      50.212   9.565  19.219  0.00  0.00    +0.000 N 
ATOM     31  C   UNL     1      49.940   8.589  18.294  0.00  0.00    +0.000 A 
ATOM     32  O   UNL     1      50.450   8.614  17.181  0.00  0.00    +0.000 OA
ATOM     33  C   UNL     1      49.065   7.534  18.770  0.00  0.00    +0.000 A 
ATOM     34  H   UNL     1      50.816  10.314  18.910  0.00  0.00    +0.000 HD
ENDBRANCH  21  24
ENDBRANCH   2  20
TORSDOF 7
ENDMDL
MODEL 3
REMARK VINA RESULT:    -7.525      3.506      4.754
REMARK INTER + INTRA:         -11.897
REMARK INTER:                 -10.659
REMARK INTRA:                  -1.238
REMARK UNBOUND:                -1.292
REMARK  Name = 
REMARK  8 active torsions:
REMARK  status: ('A' for Active; 'I' for Inactive)
REMARK    1  A    between atoms: C_1  and  C_2
REMARK    2  A    between atoms: C_2  and  N_3
REMARK    3  A    between atoms: C_2  and  C_16
REMARK    4  A    between atoms: C_4  and  C_6
REMARK    5  A    between atoms: C_19  and  C_20
REMARK    6  A    between atoms: C_20  and  O_21
REMARK    7  A    between atoms: O_21  and  C_22
REMARK    8  A    between atoms: C_22  and  C_24
REMARK                            x       y       z     vdW  Elec       q    Type
REMARK                         _______ _______ _______ _____ _____    ______ ____
ROOT
ATOM      1  C   UNL     1      47.513   2.961  17.481  0.00  0.00    +0.000 C 
ATOM      2  C   UNL     1      48.288   4.246  17.183  0.00  0.00    +0.000 C 
ENDROOT
BRANCH   2   3
ATOM      3  C   UNL     1      47.870   4.875  15.864  0.00  0.00    +0.000 A 
ATOM      4  C   UNL     1      48.419   6.108  15.486  0.00  0.00    +0.000 A 
ATOM      5  C   UNL     1      48.059   6.716  14.280  0.00  0.00    +0.000 A 
ATOM      6  C   UNL     1      47.143   6.102  13.419  0.00  0.00    +0.000 A 
ATOM      7  C   UNL     1      46.600   4.863  13.782  0.00  0.00    +0.000 A 
ATOM      8  C   UNL     1      46.961   4.255  14.990  0.00  0.00    +0.000 A 
BRANCH   6   9
ATOM      9  C   UNL     1      46.763   6.763  12.118  0.00  0.00    +0.000 C 
BRANCH   9  10
ATOM     10  O   UNL     1      46.334   5.785  11.161  0.00  0.00    +0.000 OA
BRANCH  10  11
ATOM     11  C   UNL     1      44.995   5.760  10.918  0.00  0.00    +0.000 C 
ATOM     12  O   UNL     1      44.177   6.542  11.388  0.00  0.00    +0.000 OA
BRANCH  11  13
ATOM     13  C   UNL     1      44.660   4.621   9.973  0.00  0.00    +0.000 C 
ATOM     14  C   UNL     1      45.625   4.612   8.782  0.00  0.00    +0.000 C 
ATOM     15  C   UNL     1      45.448   3.358   7.932  0.00  0.00    +0.000 C 
ATOM     16  C   UNL     1      45.495   2.094   8.785  0.00  0.00    +0.000 C 
ATOM     17  N   UNL     1      44.483   2.142   9.840  0.00  0.00    +0.000 NA
ATOM     18  C   UNL     1      44.711   3.288  10.731  0.00  0.00    +0.000 C 
ATOM     19  H   UNL     1      44.534   1.284  10.390  0.00  0.00    +0.000 HD
ENDBRANCH  11  13
ENDBRANCH  10  11
ENDBRANCH   9  10
ENDBRANCH   6   9
ENDBRANCH   2   3
BRANCH   2  20
ATOM     20  N   UNL     1      49.715   4.000  17.205  0.00  0.00    +0.000 N 
ATOM     21  C   UNL     1      50.488   4.233  18.314  0.00  0.00    +0.000 C 
ATOM     22  O   UNL     1      50.022   4.684  19.357  0.00  0.00    +0.000 OA
ATOM     23  H   UNL     1      50.154   3.721  16.334  0.00  0.00    +0.000 HD
BRANCH  21  24
ATOM     24  C   UNL     1      51.898   3.858  18.210  0.00  0.00    +0.000 A 
ATOM     25  C   UNL     1      52.889   4.803  18.451  0.00  0.00    +0.000 A 
ATOM     26  S   UNL     1      54.474   4.186  18.311  0.00  0.00    +0.000 S 
ATOM     27  C   UNL     1      53.897   2.647  17.870  0.00  0.00    +0.000 A 
ATOM     28  N   UNL     1      54.755   1.634  17.574  0.00  0.00    +0.000 NA
ATOM     29  C   UNL     1      54.179   0.537  17.204  0.00  0.00    +0.000 A 
ATOM     30  N   UNL     1      52.822   0.363  17.114  0.00  0.00    +0.000 N 
ATOM     31  C   UNL     1      51.920   1.329  17.477  0.00  0.00    +0.000 A 
ATOM     32  O   UNL     1      50.720   1.091  17.514  0.00  0.00    +0.000 OA
ATOM     33  C   UNL     1      52.514   2.599  17.853  0.00  0.00    +0.000 A 
ATOM     34  H   UNL     1      52.433  -0.530  16.843  0.00  0.00    +0.000 HD
ENDBRANCH  21  24
ENDBRANCH   2  20
TORSDOF 7
ENDMDL
MODEL 4
REMARK VINA RESULT:    -7.441      1.656      2.005
REMARK INTER + INTRA:         -11.779
REMARK INTER:                 -11.262
REMARK INTRA:                  -0.517
REMARK UNBOUND:                -1.292
REMARK  Name = 
REMARK  8 active torsions:
REMARK  status: ('A' for Active; 'I' for Inactive)
REMARK    1  A    between atoms: C_1  and  C_2
REMARK    2  A    between atoms: C_2  and  N_3
REMARK    3  A    between atoms: C_2  and  C_16
REMARK    4  A    between atoms: C_4  and  C_6
REMARK    5  A    between atoms: C_19  and  C_20
REMARK    6  A    between atoms: C_20  and  O_21
REMARK    7  A    between atoms: O_21  and  C_22
REMARK    8  A    between atoms: C_22  and  C_24
REMARK                            x       y       z     vdW  Elec       q    Type
REMARK                         _______ _______ _______ _____ _____    ______ ____
ROOT
ATOM      1  C   UNL     1      45.788   8.974  13.117  0.00  0.00    +0.000 C 
ATOM      2  C   UNL     1      46.649   7.718  12.969  0.00  0.00    +0.000 C 
ENDROOT
BRANCH   2   3
ATOM      3  C   UNL     1      45.874   6.558  12.367  0.00  0.00    +0.000 A 
ATOM      4  C   UNL     1      44.997   5.823  13.178  0.00  0.00    +0.000 A 
ATOM      5  C   UNL     1      44.266   4.752  12.659  0.00  0.00    +0.000 A 
ATOM      6  C   UNL     1      44.389   4.391  11.313  0.00  0.00    +0.000 A 
ATOM      7  C   UNL     1      45.252   5.128  10.492  0.00  0.00    +0.000 A 
ATOM      8  C   UNL     1      45.984   6.201  11.012  0.00  0.00    +0.000 A 
BRANCH   6   9
ATOM      9  C   UNL     1      43.594   3.235  10.760  0.00  0.00    +0.000 C 
BRANCH   9  10
ATOM     10  O   UNL     1      44.412   2.419   9.910  0.00  0.00    +0.000 OA
BRANCH  10  11
ATOM     11  C   UNL     1      44.654   2.931   8.673  0.00  0.00    +0.000 C 
ATOM     12  O   UNL     1      43.832   3.518   7.978  0.00  0.00    +0.000 OA
BRANCH  11  13
ATOM     13  C   UNL     1      46.095   2.673   8.277  0.00  0.00    +0.000 C 
ATOM     14  C   UNL     1      46.282   1.208   7.863  0.00  0.00    +0.000 C 
ATOM     15  C   UNL     1      47.663   0.972   7.259  0.00  0.00    +0.000 C 
ATOM     16  C   UNL     1      47.968   1.979   6.153  0.00  0.00    +0.000 C 
ATOM     17  N   UNL     1      47.857   3.349   6.653  0.00  0.00    +0.000 NA
ATOM     18  C   UNL     1      46.497   3.620   7.138  0.00  0.00    +0.000 C 
ATOM     19  H   UNL     1      48.071   3.998   5.896  0.00  0.00    +0.000 HD
ENDBRANCH  11  13
ENDBRANCH  10  11
ENDBRANCH   9  10
ENDBRANCH   6   9
ENDBRANCH   2   3
BRANCH   2  20
ATOM     20  N   UNL     1      47.231   7.343  14.241  0.00  0.00    +0.000 N 
ATOM     21  C   UNL     1      48.411   6.653  14.339  0.00  0.00    +0.000 C 
ATOM     22  O   UNL     1      49.045   6.289  13.352  0.00  0.00    +0.000 OA
ATOM     23  H   UNL     1      46.689   7.538  15.077  0.00  0.00    +0.000 HD
BRANCH  21  24
ATOM     24  C   UNL     1      48.913   6.418  15.693  0.00  0.00    +0.000 A 
ATOM     25  C   UNL     1      49.915   7.230  16.214  0.00  0.00    +0.000 A 
ATOM     26  S   UNL     1      50.359   6.830  17.813  0.00  0.00    +0.000 S 
ATOM     27  C   UNL     1      49.269   5.524  17.850  0.00  0.00    +0.000 A 
ATOM     28  N   UNL     1      49.168   4.724  18.946  0.00  0.00    +0.000 NA
ATOM     29  C   UNL     1      48.339   3.741  18.815  0.00  0.00    +0.000 A 
ATOM     30  N   UNL     1      47.597   3.494  17.690  0.00  0.00    +0.000 N 
ATOM     31  C   UNL     1      47.607   4.317  16.593  0.00  0.00    +0.000 A 
ATOM     32  O   UNL     1      46.830   4.141  15.664  0.00  0.00    +0.000 OA
ATOM     33  C   UNL     1      48.558   5.410  16.668  0.00  0.00    +0.000 A 
ATOM     34  H   UNL     1      46.945   2.722  17.660  0.00  0.00    +0.000 HD
ENDBRANCH  21  24
ENDBRANCH   2  20
TORSDOF 7
ENDMDL
MODEL 5
REMARK VINA RESULT:    -6.613      4.022      5.605
REMARK INTER + INTRA:         -10.612
REMARK INTER:                  -9.140
REMARK INTRA:                  -1.472
REMARK UNBOUND:                -1.292
REMARK  Name = 
REMARK  8 active torsions:
REMARK  status: ('A' for Active; 'I' for Inactive)
REMARK    1  A    between atoms: C_1  and  C_2
REMARK    2  A    between atoms: C_2  and  N_3
REMARK    3  A    between atoms: C_2  and  C_16
REMARK    4  A    between atoms: C_4  and  C_6
REMARK    5  A    between atoms: C_19  and  C_20
REMARK    6  A    between atoms: C_20  and  O_21
REMARK    7  A    between atoms: O_21  and  C_22
REMARK    8  A    between atoms: C_22  and  C_24
REMARK                            x       y       z     vdW  Elec       q    Type
REMARK                         _______ _______ _______ _____ _____    ______ ____
ROOT
ATOM      1  C   UNL     1      48.202   8.743  15.130  0.00  0.00    +0.000 C 
ATOM      2  C   UNL     1      48.137   8.362  13.649  0.00  0.00    +0.000 C 
ENDROOT
BRANCH   2   3
ATOM      3  C   UNL     1      47.187   7.203  13.397  0.00  0.00    +0.000 A 
ATOM      4  C   UNL     1      45.905   7.462  12.892  0.00  0.00    +0.000 A 
ATOM      5  C   UNL     1      45.006   6.421  12.646  0.00  0.00    +0.000 A 
ATOM      6  C   UNL     1      45.368   5.094  12.894  0.00  0.00    +0.000 A 
ATOM      7  C   UNL     1      46.652   4.824  13.384  0.00  0.00    +0.000 A 
ATOM      8  C   UNL     1      47.552   5.867  13.631  0.00  0.00    +0.000 A 
BRANCH   6   9
ATOM      9  C   UNL     1      44.393   3.976  12.622  0.00  0.00    +0.000 C 
BRANCH   9  10
ATOM     10  O   UNL     1      44.863   3.143  11.553  0.00  0.00    +0.000 OA
BRANCH  10  11
ATOM     11  C   UNL     1      44.523   3.559  10.303  0.00  0.00    +0.000 C 
ATOM     12  O   UNL     1      43.439   4.034   9.986  0.00  0.00    +0.000 OA
BRANCH  11  13
ATOM     13  C   UNL     1      45.688   3.349   9.352  0.00  0.00    +0.000 C 
ATOM     14  C   UNL     1      45.611   1.960   8.709  0.00  0.00    +0.000 C 
ATOM     15  C   UNL     1      46.642   1.805   7.595  0.00  0.00    +0.000 C 
ATOM     16  C   UNL     1      46.568   2.960   6.601  0.00  0.00    +0.000 C 
ATOM     17  N   UNL     1      46.742   4.243   7.282  0.00  0.00    +0.000 NA
ATOM     18  C   UNL     1      45.687   4.450   8.283  0.00  0.00    +0.000 C 
ATOM     19  H   UNL     1      46.694   4.995   6.594  0.00  0.00    +0.000 HD
ENDBRANCH  11  13
ENDBRANCH  10  11
ENDBRANCH   9  10
ENDBRANCH   6   9
ENDBRANCH   2   3
BRANCH   2  20
ATOM     20  N   UNL     1      49.459   8.065  13.139  0.00  0.00    +0.000 N 
ATOM     21  C   UNL     1      49.926   8.574  11.955  0.00  0.00    +0.000 C 
ATOM     22  O   UNL     1      49.245   9.304  11.238  0.00  0.00    +0.000 OA
ATOM     23  H   UNL     1      50.015   7.388  13.651  0.00  0.00    +0.000 HD
BRANCH  21  24
ATOM     24  C   UNL     1      51.311   8.250  11.612  0.00  0.00    +0.000 A 
ATOM     25  C   UNL     1      51.590   7.511  10.468  0.00  0.00    +0.000 A 
ATOM     26  S   UNL     1      53.256   7.249  10.210  0.00  0.00    +0.000 S 
ATOM     27  C   UNL     1      53.665   8.068  11.645  0.00  0.00    +0.000 A 
ATOM     28  N   UNL     1      54.960   8.183  12.043  0.00  0.00    +0.000 NA
ATOM     29  C   UNL     1      55.120   8.783  13.178  0.00  0.00    +0.000 A 
ATOM     30  N   UNL     1      54.099   9.284  13.942  0.00  0.00    +0.000 N 
ATOM     31  C   UNL     1      52.787   9.260  13.544  0.00  0.00    +0.000 A 
ATOM     32  O   UNL     1      51.921   9.839  14.187  0.00  0.00    +0.000 OA
ATOM     33  C   UNL     1      52.546   8.554  12.299  0.00  0.00    +0.000 A 
ATOM     34  H   UNL     1      54.291   9.767  14.809  0.00  0.00    +0.000 HD
ENDBRANCH  21  24
ENDBRANCH   2  20
TORSDOF 7
ENDMDL
MODEL 6
REMARK VINA RESULT:    -6.117      2.393      3.262
REMARK INTER + INTRA:          -9.913
REMARK INTER:                  -8.691
REMARK INTRA:                  -1.221
REMARK UNBOUND:                -1.292
REMARK  Name = 
REMARK  8 active torsions:
REMARK  status: ('A' for Active; 'I' for Inactive)
REMARK    1  A    between atoms: C_1  and  C_2
REMARK    2  A    between atoms: C_2  and  N_3
REMARK    3  A    between atoms: C_2  and  C_16
REMARK    4  A    between atoms: C_4  and  C_6
REMARK    5  A    between atoms: C_19  and  C_20
REMARK    6  A    between atoms: C_20  and  O_21
REMARK    7  A    between atoms: O_21  and  C_22
REMARK    8  A    between atoms: C_22  and  C_24
REMARK                            x       y       z     vdW  Elec       q    Type
REMARK                         _______ _______ _______ _____ _____    ______ ____
ROOT
ATOM      1  C   UNL     1      49.369   4.121  16.940  0.00  0.00    +0.000 C 
ATOM      2  C   UNL     1      48.108   4.987  16.905  0.00  0.00    +0.000 C 
ENDROOT
BRANCH   2   3
ATOM      3  C   UNL     1      47.559   5.144  15.497  0.00  0.00    +0.000 A 
ATOM      4  C   UNL     1      46.705   4.161  14.978  0.00  0.00    +0.000 A 
ATOM      5  C   UNL     1      46.180   4.273  13.688  0.00  0.00    +0.000 A 
ATOM      6  C   UNL     1      46.491   5.375  12.886  0.00  0.00    +0.000 A 
ATOM      7  C   UNL     1      47.331   6.371  13.401  0.00  0.00    +0.000 A 
ATOM      8  C   UNL     1      47.858   6.258  14.693  0.00  0.00    +0.000 A 
BRANCH   6   9
ATOM      9  C   UNL     1      45.917   5.491  11.496  0.00  0.00    +0.000 C 
BRANCH   9  10
ATOM     10  O   UNL     1      45.284   4.264  11.107  0.00  0.00    +0.000 OA
BRANCH  10  11
ATOM     11  C   UNL     1      44.350   4.380  10.124  0.00  0.00    +0.000 C 
ATOM     12  O   UNL     1      43.359   5.099  10.172  0.00  0.00    +0.000 OA
BRANCH  11  13
ATOM     13  C   UNL     1      44.717   3.489   8.952  0.00  0.00    +0.000 C 
ATOM     14  C   UNL     1      45.750   4.181   8.056  0.00  0.00    +0.000 C 
ATOM     15  C   UNL     1      46.294   3.229   6.995  0.00  0.00    +0.000 C 
ATOM     16  C   UNL     1      46.778   1.920   7.614  0.00  0.00    +0.000 C 
ATOM     17  N   UNL     1      45.706   1.279   8.375  0.00  0.00    +0.000 NA
ATOM     18  C   UNL     1      45.250   2.147   9.469  0.00  0.00    +0.000 C 
ATOM     19  H   UNL     1      46.056   0.407   8.772  0.00  0.00    +0.000 HD
ENDBRANCH  11  13
ENDBRANCH  10  11
ENDBRANCH   9  10
ENDBRANCH   6   9
ENDBRANCH   2   3
BRANCH   2  20
ATOM     20  N   UNL     1      48.358   6.280  17.507  0.00  0.00    +0.000 N 
ATOM     21  C   UNL     1      47.774   6.673  18.683  0.00  0.00    +0.000 C 
ATOM     22  O   UNL     1      46.983   5.960  19.296  0.00  0.00    +0.000 OA
ATOM     23  H   UNL     1      48.928   6.936  16.982  0.00  0.00    +0.000 HD
BRANCH  21  24
ATOM     24  C   UNL     1      48.188   7.975  19.209  0.00  0.00    +0.000 A 
ATOM     25  C   UNL     1      47.251   8.989  19.373  0.00  0.00    +0.000 A 
ATOM     26  S   UNL     1      47.904  10.426  20.021  0.00  0.00    +0.000 S 
ATOM     27  C   UNL     1      49.472   9.766  20.054  0.00  0.00    +0.000 A 
ATOM     28  N   UNL     1      50.534  10.501  20.482  0.00  0.00    +0.000 NA
ATOM     29  C   UNL     1      51.672   9.891  20.404  0.00  0.00    +0.000 A 
ATOM     30  N   UNL     1      51.838   8.611  19.945  0.00  0.00    +0.000 N 
ATOM     31  C   UNL     1      50.789   7.807  19.579  0.00  0.00    +0.000 A 
ATOM     32  O   UNL     1      50.963   6.626  19.306  0.00  0.00    +0.000 OA
ATOM     33  C   UNL     1      49.493   8.459  19.601  0.00  0.00    +0.000 A 
ATOM     34  H   UNL     1      52.753   8.181  19.934  0.00  0.00    +0.000 HD
ENDBRANCH  21  24
ENDBRANCH   2  20
TORSDOF 7
ENDMDL
MODEL 7
REMARK VINA RESULT:    -5.652      3.881      9.459
REMARK INTER + INTRA:          -9.256
REMARK INTER:                  -7.603
REMARK INTRA:                  -1.653
REMARK UNBOUND:                -1.292
REMARK  Name = 
REMARK  8 active torsions:
REMARK  status: ('A' for Active; 'I' for Inactive)
REMARK    1  A    between atoms: C_1  and  C_2
REMARK    2  A    between atoms: C_2  and  N_3
REMARK    3  A    between atoms: C_2  and  C_16
REMARK    4  A    between atoms: C_4  and  C_6
REMARK    5  A    between atoms: C_19  and  C_20
REMARK    6  A    between atoms: C_20  and  O_21
REMARK    7  A    between atoms: O_21  and  C_22
REMARK    8  A    between atoms: C_22  and  C_24
REMARK                            x       y       z     vdW  Elec       q    Type
REMARK                         _______ _______ _______ _____ _____    ______ ____
ROOT
ATOM      1  C   UNL     1      46.252   3.876  13.365  0.00  0.00    +0.000 C 
ATOM      2  C   UNL     1      47.171   5.049  13.713  0.00  0.00    +0.000 C 
ENDROOT
BRANCH   2   3
ATOM      3  C   UNL     1      47.554   5.061  15.183  0.00  0.00    +0.000 A 
ATOM      4  C   UNL     1      47.114   4.024  16.017  0.00  0.00    +0.000 A 
ATOM      5  C   UNL     1      47.448   4.000  17.373  0.00  0.00    +0.000 A 
ATOM      6  C   UNL     1      48.237   5.012  17.929  0.00  0.00    +0.000 A 
ATOM      7  C   UNL     1      48.695   6.045  17.101  0.00  0.00    +0.000 A 
ATOM      8  C   UNL     1      48.359   6.068  15.742  0.00  0.00    +0.000 A 
BRANCH   6   9
ATOM      9  C   UNL     1      48.597   4.978  19.393  0.00  0.00    +0.000 C 
BRANCH   9  10
ATOM     10  O   UNL     1      48.201   6.195  20.040  0.00  0.00    +0.000 OA
BRANCH  10  11
ATOM     11  C   UNL     1      49.224   6.997  20.443  0.00  0.00    +0.000 C 
ATOM     12  O   UNL     1      50.247   6.612  20.998  0.00  0.00    +0.000 OA
BRANCH  11  13
ATOM     13  C   UNL     1      48.916   8.443  20.102  0.00  0.00    +0.000 C 
ATOM     14  C   UNL     1      49.829   8.932  18.971  0.00  0.00    +0.000 C 
ATOM     15  C   UNL     1      49.400  10.306  18.465  0.00  0.00    +0.000 C 
ATOM     16  C   UNL     1      47.912  10.336  18.126  0.00  0.00    +0.000 C 
ATOM     17  N   UNL     1      47.108   9.945  19.284  0.00  0.00    +0.000 NA
ATOM     18  C   UNL     1      47.439   8.579  19.713  0.00  0.00    +0.000 C 
ATOM     19  H   UNL     1      46.120   9.979  19.031  0.00  0.00    +0.000 HD
ENDBRANCH  11  13
ENDBRANCH  10  11
ENDBRANCH   9  10
ENDBRANCH   6   9
ENDBRANCH   2   3
BRANCH   2  20
ATOM     20  N   UNL     1      46.562   6.306  13.330  0.00  0.00    +0.000 N 
ATOM     21  C   UNL     1      47.178   7.200  12.492  0.00  0.00    +0.000 C 
ATOM     22  O   UNL     1      48.296   7.001  12.024  0.00  0.00    +0.000 OA
ATOM     23  H   UNL     1      45.683   6.552  13.772  0.00  0.00    +0.000 HD
BRANCH  21  24
ATOM     24  C   UNL     1      46.404   8.388  12.131  0.00  0.00    +0.000 A 
ATOM     25  C   UNL     1      46.958   9.654  12.288  0.00  0.00    +0.000 A 
ATOM     26  S   UNL     1      45.926  10.920  11.794  0.00  0.00    +0.000 S 
ATOM     27  C   UNL     1      44.680   9.828  11.403  0.00  0.00    +0.000 A 
ATOM     28  N   UNL     1      43.480  10.269  10.940  0.00  0.00    +0.000 NA
ATOM     29  C   UNL     1      42.610   9.335  10.734  0.00  0.00    +0.000 A 
ATOM     30  N   UNL     1      42.840   8.000  10.941  0.00  0.00    +0.000 N 
ATOM     31  C   UNL     1      44.057   7.503  11.331  0.00  0.00    +0.000 A 
ATOM     32  O   UNL     1      44.263   6.297  11.372  0.00  0.00    +0.000 OA
ATOM     33  C   UNL     1      45.056   8.514  11.623  0.00  0.00    +0.000 A 
ATOM     34  H   UNL     1      42.125   7.314  10.735  0.00  0.00    +0.000 HD
ENDBRANCH  21  24
ENDBRANCH   2  20
TORSDOF 7
ENDMDL
MODEL 8
REMARK VINA RESULT:    -5.651      3.134      4.056
REMARK INTER + INTRA:          -9.256
REMARK INTER:                  -8.924
REMARK INTRA:                  -0.332
REMARK UNBOUND:                -1.292
REMARK  Name = 
REMARK  8 active torsions:
REMARK  status: ('A' for Active; 'I' for Inactive)
REMARK    1  A    between atoms: C_1  and  C_2
REMARK    2  A    between atoms: C_2  and  N_3
REMARK    3  A    between atoms: C_2  and  C_16
REMARK    4  A    between atoms: C_4  and  C_6
REMARK    5  A    between atoms: C_19  and  C_20
REMARK    6  A    between atoms: C_20  and  O_21
REMARK    7  A    between atoms: O_21  and  C_22
REMARK    8  A    between atoms: C_22  and  C_24
REMARK                            x       y       z     vdW  Elec       q    Type
REMARK                         _______ _______ _______ _____ _____    ______ ____
ROOT
ATOM      1  C   UNL     1      48.267   5.098  16.293  0.00  0.00    +0.000 C 
ATOM      2  C   UNL     1      48.311   6.303  15.350  0.00  0.00    +0.000 C 
ENDROOT
BRANCH   2   3
ATOM      3  C   UNL     1      47.543   6.052  14.063  0.00  0.00    +0.000 A 
ATOM      4  C   UNL     1      47.767   6.882  12.956  0.00  0.00    +0.000 A 
ATOM      5  C   UNL     1      47.080   6.681  11.756  0.00  0.00    +0.000 A 
ATOM      6  C   UNL     1      46.156   5.639  11.631  0.00  0.00    +0.000 A 
ATOM      7  C   UNL     1      45.937   4.795  12.727  0.00  0.00    +0.000 A 
ATOM      8  C   UNL     1      46.624   4.997  13.929  0.00  0.00    +0.000 A 
BRANCH   6   9
ATOM      9  C   UNL     1      45.422   5.426  10.331  0.00  0.00    +0.000 C 
BRANCH   9  10
ATOM     10  O   UNL     1      44.286   4.573  10.525  0.00  0.00    +0.000 OA
BRANCH  10  11
ATOM     11  C   UNL     1      44.411   3.316  10.019  0.00  0.00    +0.000 C 
ATOM     12  O   UNL     1      43.672   2.373  10.276  0.00  0.00    +0.000 OA
BRANCH  11  13
ATOM     13  C   UNL     1      45.603   3.251   9.081  0.00  0.00    +0.000 C 
ATOM     14  C   UNL     1      45.852   1.807   8.632  0.00  0.00    +0.000 C 
ATOM     15  C   UNL     1      46.904   1.741   7.528  0.00  0.00    +0.000 C 
ATOM     16  C   UNL     1      46.579   2.704   6.390  0.00  0.00    +0.000 C 
ATOM     17  N   UNL     1      46.448   4.072   6.889  0.00  0.00    +0.000 NA
ATOM     18  C   UNL     1      45.363   4.167   7.875  0.00  0.00    +0.000 C 
ATOM     19  H   UNL     1      46.237   4.693   6.107  0.00  0.00    +0.000 HD
ENDBRANCH  11  13
ENDBRANCH  10  11
ENDBRANCH   9  10
ENDBRANCH   6   9
ENDBRANCH   2   3
BRANCH   2  20
ATOM     20  N   UNL     1      49.680   6.680  15.067  0.00  0.00    +0.000 N 
ATOM     21  C   UNL     1      50.220   7.869  15.485  0.00  0.00    +0.000 C 
ATOM     22  O   UNL     1      49.571   8.702  16.113  0.00  0.00    +0.000 OA
ATOM     23  H   UNL     1      50.220   6.064  14.467  0.00  0.00    +0.000 HD
BRANCH  21  24
ATOM     24  C   UNL     1      51.640   8.074  15.194  0.00  0.00    +0.000 A 
ATOM     25  C   UNL     1      52.036   9.106  14.352  0.00  0.00    +0.000 A 
ATOM     26  S   UNL     1      53.726   9.212  14.146  0.00  0.00    +0.000 S 
ATOM     27  C   UNL     1      53.989   7.850  15.132  0.00  0.00    +0.000 A 
ATOM     28  N   UNL     1      55.245   7.374  15.352  0.00  0.00    +0.000 NA
ATOM     29  C   UNL     1      55.291   6.304  16.077  0.00  0.00    +0.000 A 
ATOM     30  N   UNL     1      54.195   5.675  16.606  0.00  0.00    +0.000 N 
ATOM     31  C   UNL     1      52.919   6.162  16.476  0.00  0.00    +0.000 A 
ATOM     32  O   UNL     1      51.983   5.651  17.077  0.00  0.00    +0.000 OA
ATOM     33  C   UNL     1      52.805   7.336  15.630  0.00  0.00    +0.000 A 
ATOM     34  H   UNL     1      54.300   4.855  17.187  0.00  0.00    +0.000 HD
ENDBRANCH  21  24
ENDBRANCH   2  20
TORSDOF 7
ENDMDL
MODEL 9
REMARK VINA RESULT:    -5.460      3.234      4.417
REMARK INTER + INTRA:          -8.986
REMARK INTER:                  -7.921
REMARK INTRA:                  -1.065
REMARK UNBOUND:                -1.292
REMARK  Name = 
REMARK  8 active torsions:
REMARK  status: ('A' for Active; 'I' for Inactive)
REMARK    1  A    between atoms: C_1  and  C_2
REMARK    2  A    between atoms: C_2  and  N_3
REMARK    3  A    between atoms: C_2  and  C_16
REMARK    4  A    between atoms: C_4  and  C_6
REMARK    5  A    between atoms: C_19  and  C_20
REMARK    6  A    between atoms: C_20  and  O_21
REMARK    7  A    between atoms: O_21  and  C_22
REMARK    8  A    between atoms: C_22  and  C_24
REMARK                            x       y       z     vdW  Elec       q    Type
REMARK                         _______ _______ _______ _____ _____    ______ ____
ROOT
ATOM      1  C   UNL     1      50.807   3.552  17.997  0.00  0.00    +0.000 C 
ATOM      2  C   UNL     1      49.641   4.516  18.221  0.00  0.00    +0.000 C 
ENDROOT
BRANCH   2   3
ATOM      3  C   UNL     1      48.783   4.679  16.977  0.00  0.00    +0.000 A 
ATOM      4  C   UNL     1      47.959   3.621  16.567  0.00  0.00    +0.000 A 
ATOM      5  C   UNL     1      47.156   3.736  15.430  0.00  0.00    +0.000 A 
ATOM      6  C   UNL     1      47.153   4.913  14.676  0.00  0.00    +0.000 A 
ATOM      7  C   UNL     1      47.962   5.981  15.086  0.00  0.00    +0.000 A 
ATOM      8  C   UNL     1      48.767   5.866  16.225  0.00  0.00    +0.000 A 
BRANCH   6   9
ATOM      9  C   UNL     1      46.280   5.029  13.451  0.00  0.00    +0.000 C 
BRANCH   9  10
ATOM     10  O   UNL     1      45.065   4.288  13.624  0.00  0.00    +0.000 OA
BRANCH  10  11
ATOM     11  C   UNL     1      44.188   4.363  12.586  0.00  0.00    +0.000 C 
ATOM     12  O   UNL     1      42.996   4.630  12.686  0.00  0.00    +0.000 OA
BRANCH  11  13
ATOM     13  C   UNL     1      44.903   4.069  11.280  0.00  0.00    +0.000 C 
ATOM     14  C   UNL     1      44.254   2.874  10.572  0.00  0.00    +0.000 C 
ATOM     15  C   UNL     1      44.812   2.691   9.164  0.00  0.00    +0.000 C 
ATOM     16  C   UNL     1      44.762   3.994   8.370  0.00  0.00    +0.000 C 
ATOM     17  N   UNL     1      45.481   5.057   9.070  0.00  0.00    +0.000 NA
ATOM     18  C   UNL     1      44.881   5.315  10.386  0.00  0.00    +0.000 C 
ATOM     19  H   UNL     1      45.435   5.912   8.515  0.00  0.00    +0.000 HD
ENDBRANCH  11  13
ENDBRANCH  10  11
ENDBRANCH   9  10
ENDBRANCH   6   9
ENDBRANCH   2   3
BRANCH   2  20
ATOM     20  N   UNL     1      50.121   5.801  18.686  0.00  0.00    +0.000 N 
ATOM     21  C   UNL     1      49.601   6.430  19.787  0.00  0.00    +0.000 C 
ATOM     22  O   UNL     1      48.678   5.953  20.443  0.00  0.00    +0.000 OA
ATOM     23  H   UNL     1      50.815   6.274  18.115  0.00  0.00    +0.000 HD
BRANCH  21  24
ATOM     24  C   UNL     1      50.245   7.683  20.182  0.00  0.00    +0.000 A 
ATOM     25  C   UNL     1      49.490   8.844  20.311  0.00  0.00    +0.000 A 
ATOM     26  S   UNL     1      50.398  10.202  20.803  0.00  0.00    +0.000 S 
ATOM     27  C   UNL     1      51.843   9.304  20.810  0.00  0.00    +0.000 A 
ATOM     28  N   UNL     1      53.032   9.888  21.120  0.00  0.00    +0.000 NA
ATOM     29  C   UNL     1      54.054   9.100  21.034  0.00  0.00    +0.000 A 
ATOM     30  N   UNL     1      53.989   7.780  20.675  0.00  0.00    +0.000 N 
ATOM     31  C   UNL     1      52.807   7.129  20.430  0.00  0.00    +0.000 A 
ATOM     32  O   UNL     1      52.777   5.919  20.247  0.00  0.00    +0.000 OA
ATOM     33  C   UNL     1      51.632   7.980  20.465  0.00  0.00    +0.000 A 
ATOM     34  H   UNL     1      54.823   7.209  20.652  0.00  0.00    +0.000 HD
ENDBRANCH  21  24
ENDBRANCH   2  20
TORSDOF 7
ENDMDL
