MODEL 1
REMARK VINA RESULT:    -6.739      0.000      0.000
REMARK INTER + INTRA:         -10.278
REMARK INTER:                  -9.103
REMARK INTRA:                  -1.175
REMARK UNBOUND:                -1.175
REMARK  Name = 
REMARK  7 active torsions:
REMARK  status: ('A' for Active; 'I' for Inactive)
REMARK    1  A    between atoms: C_1  and  C_2
REMARK    2  A    between atoms: C_2  and  N_3
REMARK    3  A    between atoms: C_2  and  C_16
REMARK    4  A    between atoms: C_4  and  C_6
REMARK    5  A    between atoms: C_19  and  C_20
REMARK    6  A    between atoms: C_20  and  N_21
REMARK    7  A    between atoms: C_22  and  C_24
REMARK                            x       y       z     vdW  Elec       q    Type
REMARK                         _______ _______ _______ _____ _____    ______ ____
ROOT
ATOM      1  C   UNL     1      48.190   9.050  15.389  0.00  0.00    +0.000 C 
ATOM      2  C   UNL     1      48.356   7.697  14.684  0.00  0.00    +0.000 C 
ENDROOT
BRANCH   2   3
ATOM      3  C   UNL     1      48.738   6.613  15.689  0.00  0.00    +0.000 A 
ATOM      4  C   UNL     1      49.929   6.706  16.428  0.00  0.00    +0.000 A 
ATOM      5  C   UNL     1      50.279   5.707  17.351  0.00  0.00    +0.000 A 
ATOM      6  C   UNL     1      49.458   4.585  17.535  0.00  0.00    +0.000 A 
ATOM      7  C   UNL     1      48.273   4.493  16.802  0.00  0.00    +0.000 A 
ATOM      8  C   UNL     1      47.934   5.480  15.878  0.00  0.00    +0.000 A 
BRANCH   6   9
ATOM      9  C   UNL     1      49.838   3.471  18.473  0.00  0.00    +0.000 C 
BRANCH   9  10
ATOM     10  N   UNL     1      51.247   3.146  18.422  0.00  0.00    +0.000 N 
ATOM     11  C   UNL     1      51.675   2.085  17.654  0.00  0.00    +0.000 C 
ATOM     12  O   UNL     1      50.886   1.391  17.013  0.00  0.00    +0.000 OA
ATOM     13  H   UNL     1      51.907   3.798  18.821  0.00  0.00    +0.000 HD
BRANCH  11  14
ATOM     14  C   UNL     1      53.174   1.779  17.726  0.00  0.00    +0.000 C 
ATOM     15  C   UNL     1      53.473   0.276  17.768  0.00  0.00    +0.000 C 
ATOM     16  C   UNL     1      54.948   0.010  18.049  0.00  0.00    +0.000 C 
ATOM     17  O   UNL     1      55.365   0.661  19.245  0.00  0.00    +0.000 OA
ATOM     18  C   UNL     1      55.249   2.079  19.147  0.00  0.00    +0.000 C 
ATOM     19  C   UNL     1      53.796   2.478  18.946  0.00  0.00    +0.000 C 
ENDBRANCH  11  14
ENDBRANCH   9  10
ENDBRANCH   6   9
ENDBRANCH   2   3
BRANCH   2  20
ATOM     20  N   UNL     1      47.158   7.289  13.966  0.00  0.00    +0.000 N 
ATOM     21  C   UNL     1      47.161   6.741  12.704  0.00  0.00    +0.000 C 
ATOM     22  O   UNL     1      48.194   6.612  12.056  0.00  0.00    +0.000 OA
ATOM     23  H   UNL     1      46.313   7.227  14.524  0.00  0.00    +0.000 HD
BRANCH  21  24
ATOM     24  C   UNL     1      45.854   6.330  12.147  0.00  0.00    +0.000 A 
ATOM     25  C   UNL     1      45.042   7.284  11.543  0.00  0.00    +0.000 A 
ATOM     26  S   UNL     1      43.541   6.678  11.013  0.00  0.00    +0.000 S 
ATOM     27  C   UNL     1      43.909   5.116  11.576  0.00  0.00    +0.000 A 
ATOM     28  N   UNL     1      43.000   4.105  11.473  0.00  0.00    +0.000 NA
ATOM     29  C   UNL     1      43.401   2.978  11.963  0.00  0.00    +0.000 A 
ATOM     30  N   UNL     1      44.634   2.767  12.515  0.00  0.00    +0.000 N 
ATOM     31  C   UNL     1      45.603   3.738  12.577  0.00  0.00    +0.000 A 
ATOM     32  O   UNL     1      46.734   3.478  12.978  0.00  0.00    +0.000 OA
ATOM     33  C   UNL     1      45.182   5.047  12.116  0.00  0.00    +0.000 A 
ATOM     34  H   UNL     1      44.905   1.848  12.841  0.00  0.00    +0.000 HD
ENDBRANCH  21  24
ENDBRANCH   2  20
TORSDOF 6
ENDMDL
MODEL 2
REMARK VINA RESULT:    -6.537      5.156      7.897
REMARK INTER + INTRA:         -10.005
REMARK INTER:                  -8.755
REMARK INTRA:                  -1.250
REMARK UNBOUND:                -1.175
REMARK  Name = 
REMARK  7 active torsions:
REMARK  status: ('A' for Active; 'I' for Inactive)
REMARK    1  A    between atoms: C_1  and  C_2
REMARK    2  A    between atoms: C_2  and  N_3
REMARK    3  A    between atoms: C_2  and  C_16
REMARK    4  A    between atoms: C_4  and  C_6
REMARK    5  A    between atoms: C_19  and  C_20
REMARK    6  A    between atoms: C_20  and  N_21
REMARK    7  A    between atoms: C_22  and  C_24
REMARK                            x       y       z     vdW  Elec       q    Type
REMARK                         _______ _______ _______ _____ _____    ______ ____
ROOT
ATOM      1  C   UNL     1      48.609   6.832  14.804  0.00  0.00    +0.000 C 
ATOM      2  C   UNL     1      47.960   7.449  13.557  0.00  0.00    +0.000 C 
ENDROOT
BRANCH   2   3
ATOM      3  C   UNL     1      49.009   8.157  12.703  0.00  0.00    +0.000 A 
ATOM      4  C   UNL     1      49.037   9.559  12.616  0.00  0.00    +0.000 A 
ATOM      5  C   UNL     1      50.002  10.208  11.828  0.00  0.00    +0.000 A 
ATOM      6  C   UNL     1      50.940   9.469  11.094  0.00  0.00    +0.000 A 
ATOM      7  C   UNL     1      50.913   8.075  11.181  0.00  0.00    +0.000 A 
ATOM      8  C   UNL     1      49.948   7.432  11.955  0.00  0.00    +0.000 A 
BRANCH   6   9
ATOM      9  C   UNL     1      51.946  10.135  10.194  0.00  0.00    +0.000 C 
BRANCH   9  10
ATOM     10  N   UNL     1      52.743   9.191   9.441  0.00  0.00    +0.000 N 
ATOM     11  C   UNL     1      53.000   9.427   8.108  0.00  0.00    +0.000 C 
ATOM     12  O   UNL     1      52.559  10.420   7.530  0.00  0.00    +0.000 OA
ATOM     13  H   UNL     1      53.228   8.461   9.942  0.00  0.00    +0.000 HD
BRANCH  11  14
ATOM     14  C   UNL     1      53.788   8.332   7.384  0.00  0.00    +0.000 C 
ATOM     15  C   UNL     1      53.650   8.408   5.859  0.00  0.00    +0.000 C 
ATOM     16  C   UNL     1      54.269   7.191   5.182  0.00  0.00    +0.000 C 
ATOM     17  O   UNL     1      53.719   5.983   5.700  0.00  0.00    +0.000 OA
ATOM     18  C   UNL     1      53.995   5.825   7.090  0.00  0.00    +0.000 C 
ATOM     19  C   UNL     1      53.351   6.947   7.888  0.00  0.00    +0.000 C 
ENDBRANCH  11  14
ENDBRANCH   9  10
ENDBRANCH   6   9
ENDBRANCH   2   3
BRANCH   2  20
ATOM     20  N   UNL     1      47.260   6.465  12.745  0.00  0.00    +0.000 N 
ATOM     21  C   UNL     1      46.254   6.768  11.857  0.00  0.00    +0.000 C 
ATOM     22  O   UNL     1      45.825   7.910  11.730  0.00  0.00    +0.000 OA
ATOM     23  H   UNL     1      47.692   5.547  12.702  0.00  0.00    +0.000 HD
BRANCH  21  24
ATOM     24  C   UNL     1      45.693   5.648  11.071  0.00  0.00    +0.000 A 
ATOM     25  C   UNL     1      45.796   5.673   9.684  0.00  0.00    +0.000 A 
ATOM     26  S   UNL     1      45.044   4.354   8.912  0.00  0.00    +0.000 S 
ATOM     27  C   UNL     1      44.543   3.697  10.398  0.00  0.00    +0.000 A 
ATOM     28  N   UNL     1      43.789   2.562  10.440  0.00  0.00    +0.000 NA
ATOM     29  C   UNL     1      43.458   2.188  11.632  0.00  0.00    +0.000 A 
ATOM     30  N   UNL     1      43.836   2.829  12.780  0.00  0.00    +0.000 N 
ATOM     31  C   UNL     1      44.649   3.936  12.786  0.00  0.00    +0.000 A 
ATOM     32  O   UNL     1      45.056   4.415  13.841  0.00  0.00    +0.000 OA
ATOM     33  C   UNL     1      44.987   4.449  11.472  0.00  0.00    +0.000 A 
ATOM     34  H   UNL     1      43.580   2.460  13.687  0.00  0.00    +0.000 HD
ENDBRANCH  21  24
ENDBRANCH   2  20
TORSDOF 6
ENDMDL
MODEL 3
REMARK VINA RESULT:    -6.394      4.243      6.510
REMARK INTER + INTRA:          -9.812
REMARK INTER:                  -8.718
REMARK INTRA:                  -1.093
REMARK UNBOUND:                -1.175
REMARK  Name = 
REMARK  7 active torsions:
REMARK  status: ('A' for Active; 'I' for Inactive)
REMARK    1  A    between atoms: C_1  and  C_2
REMARK    2  A    between atoms: C_2  and  N_3
REMARK    3  A    between atoms: C_2  and  C_16
REMARK    4  A    between atoms: C_4  and  C_6
REMARK    5  A    between atoms: C_19  and  C_20
REMARK    6  A    between atoms: C_20  and  N_21
REMARK    7  A    between atoms: C_22  and  C_24
REMARK                            x       y       z     vdW  Elec       q    Type
REMARK                         _______ _______ _______ _____ _____    ______ ____
ROOT
ATOM      1  C   UNL     1      43.301   3.655  12.930  0.00  0.00    +0.000 C 
ATOM      2  C   UNL     1      44.154   4.352  11.861  0.00  0.00    +0.000 C 
ENDROOT
BRANCH   2   3
ATOM      3  C   UNL     1      45.260   5.178  12.513  0.00  0.00    +0.000 A 
ATOM      4  C   UNL     1      45.319   6.569  12.330  0.00  0.00    +0.000 A 
ATOM      5  C   UNL     1      46.338   7.327  12.930  0.00  0.00    +0.000 A 
ATOM      6  C   UNL     1      47.330   6.707  13.703  0.00  0.00    +0.000 A 
ATOM      7  C   UNL     1      47.270   5.323  13.887  0.00  0.00    +0.000 A 
ATOM      8  C   UNL     1      46.264   4.572  13.281  0.00  0.00    +0.000 A 
BRANCH   6   9
ATOM      9  C   UNL     1      48.467   7.486  14.308  0.00  0.00    +0.000 C 
BRANCH   9  10
ATOM     10  N   UNL     1      48.424   7.517  15.753  0.00  0.00    +0.000 N 
ATOM     11  C   UNL     1      49.385   6.847  16.479  0.00  0.00    +0.000 C 
ATOM     12  O   UNL     1      50.281   6.207  15.929  0.00  0.00    +0.000 OA
ATOM     13  H   UNL     1      47.787   8.159  16.203  0.00  0.00    +0.000 HD
BRANCH  11  14
ATOM     14  C   UNL     1      49.208   6.881  18.000  0.00  0.00    +0.000 C 
ATOM     15  C   UNL     1      48.503   5.634  18.545  0.00  0.00    +0.000 C 
ATOM     16  C   UNL     1      48.156   5.791  20.021  0.00  0.00    +0.000 C 
ATOM     17  O   UNL     1      47.387   6.969  20.243  0.00  0.00    +0.000 OA
ATOM     18  C   UNL     1      48.107   8.149  19.895  0.00  0.00    +0.000 C 
ATOM     19  C   UNL     1      48.441   8.148  18.413  0.00  0.00    +0.000 C 
ENDBRANCH  11  14
ENDBRANCH   9  10
ENDBRANCH   6   9
ENDBRANCH   2   3
BRANCH   2  20
ATOM     20  N   UNL     1      44.745   3.414  10.917  0.00  0.00    +0.000 N 
ATOM     21  C   UNL     1      44.631   3.517   9.550  0.00  0.00    +0.000 C 
ATOM     22  O   UNL     1      43.957   4.394   9.020  0.00  0.00    +0.000 OA
ATOM     23  H   UNL     1      45.436   2.781  11.305  0.00  0.00    +0.000 HD
BRANCH  21  24
ATOM     24  C   UNL     1      45.346   2.507   8.739  0.00  0.00    +0.000 A 
ATOM     25  C   UNL     1      44.999   1.166   8.865  0.00  0.00    +0.000 A 
ATOM     26  S   UNL     1      45.953   0.115   7.923  0.00  0.00    +0.000 S 
ATOM     27  C   UNL     1      46.874   1.407   7.312  0.00  0.00    +0.000 A 
ATOM     28  N   UNL     1      47.918   1.180   6.466  0.00  0.00    +0.000 NA
ATOM     29  C   UNL     1      48.546   2.249   6.099  0.00  0.00    +0.000 A 
ATOM     30  N   UNL     1      48.206   3.518   6.478  0.00  0.00    +0.000 N 
ATOM     31  C   UNL     1      47.122   3.796   7.274  0.00  0.00    +0.000 A 
ATOM     32  O   UNL     1      46.785   4.955   7.499  0.00  0.00    +0.000 OA
ATOM     33  C   UNL     1      46.426   2.630   7.783  0.00  0.00    +0.000 A 
ATOM     34  H   UNL     1      48.711   4.318   6.119  0.00  0.00    +0.000 HD
ENDBRANCH  21  24
ENDBRANCH   2  20
TORSDOF 6
ENDMDL
MODEL 4
REMARK VINA RESULT:    -6.235      2.391      3.581
REMARK INTER + INTRA:          -9.597
REMARK INTER:                  -8.960
REMARK INTRA:                  -0.637
REMARK UNBOUND:                -1.175
REMARK  Name = 
REMARK  7 active torsions:
REMARK  status: ('A' for Active; 'I' for Inactive)
REMARK    1  A    between atoms: C_1  and  C_2
REMARK    2  A    between atoms: C_2  and  N_3
REMARK    3  A    between atoms: C_2  and  C_16
REMARK    4  A    between atoms: C_4  and  C_6
REMARK    5  A    between atoms: C_19  and  C_20
REMARK    6  A    between atoms: C_20  and  N_21
REMARK    7  A    between atoms: C_22  and  C_24
REMARK                            x       y       z     vdW  Elec       q    Type
REMARK                         _______ _______ _______ _____ _____    ______ ____
ROOT
ATOM      1  C   UNL     1      46.224   9.162  11.962  0.00  0.00    +0.000 C 
ATOM      2  C   UNL     1      47.196   7.974  12.010  0.00  0.00    +0.000 C 
ENDROOT
BRANCH   2   3
ATOM      3  C   UNL     1      47.837   7.862  13.390  0.00  0.00    +0.000 A 
ATOM      4  C   UNL     1      47.715   8.903  14.325  0.00  0.00    +0.000 A 
ATOM      5  C   UNL     1      48.307   8.798  15.594  0.00  0.00    +0.000 A 
ATOM      6  C   UNL     1      49.053   7.663  15.944  0.00  0.00    +0.000 A 
ATOM      7  C   UNL     1      49.173   6.627  15.015  0.00  0.00    +0.000 A 
ATOM      8  C   UNL     1      48.594   6.738  13.751  0.00  0.00    +0.000 A 
BRANCH   6   9
ATOM      9  C   UNL     1      49.749   7.550  17.274  0.00  0.00    +0.000 C 
BRANCH   9  10
ATOM     10  N   UNL     1      50.379   6.263  17.473  0.00  0.00    +0.000 N 
ATOM     11  C   UNL     1      49.731   5.292  18.205  0.00  0.00    +0.000 C 
ATOM     12  O   UNL     1      48.626   5.492  18.709  0.00  0.00    +0.000 OA
ATOM     13  H   UNL     1      51.209   6.044  16.940  0.00  0.00    +0.000 HD
BRANCH  11  14
ATOM     14  C   UNL     1      50.514   3.994  18.420  0.00  0.00    +0.000 C 
ATOM     15  C   UNL     1      52.030   4.212  18.456  0.00  0.00    +0.000 C 
ATOM     16  C   UNL     1      52.784   2.887  18.461  0.00  0.00    +0.000 C 
ATOM     17  O   UNL     1      52.396   2.074  17.357  0.00  0.00    +0.000 OA
ATOM     18  C   UNL     1      51.014   1.725  17.413  0.00  0.00    +0.000 C 
ATOM     19  C   UNL     1      50.150   2.973  17.330  0.00  0.00    +0.000 C 
ENDBRANCH  11  14
ENDBRANCH   9  10
ENDBRANCH   6   9
ENDBRANCH   2   3
BRANCH   2  20
ATOM     20  N   UNL     1      46.553   6.712  11.672  0.00  0.00    +0.000 N 
ATOM     21  C   UNL     1      45.326   6.316  12.150  0.00  0.00    +0.000 C 
ATOM     22  O   UNL     1      44.700   6.988  12.963  0.00  0.00    +0.000 OA
ATOM     23  H   UNL     1      46.957   6.213  10.886  0.00  0.00    +0.000 HD
BRANCH  21  24
ATOM     24  C   UNL     1      44.797   5.026  11.656  0.00  0.00    +0.000 A 
ATOM     25  C   UNL     1      44.004   4.251  12.495  0.00  0.00    +0.000 A 
ATOM     26  S   UNL     1      43.528   2.763  11.815  0.00  0.00    +0.000 S 
ATOM     27  C   UNL     1      44.367   3.090  10.373  0.00  0.00    +0.000 A 
ATOM     28  N   UNL     1      44.406   2.172   9.366  0.00  0.00    +0.000 NA
ATOM     29  C   UNL     1      45.100   2.539   8.339  0.00  0.00    +0.000 A 
ATOM     30  N   UNL     1      45.729   3.747   8.220  0.00  0.00    +0.000 N 
ATOM     31  C   UNL     1      45.661   4.725   9.181  0.00  0.00    +0.000 A 
ATOM     32  O   UNL     1      46.146   5.836   8.987  0.00  0.00    +0.000 OA
ATOM     33  C   UNL     1      44.962   4.340  10.392  0.00  0.00    +0.000 A 
ATOM     34  H   UNL     1      46.221   3.993   7.369  0.00  0.00    +0.000 HD
ENDBRANCH  21  24
ENDBRANCH   2  20
TORSDOF 6
ENDMDL
MODEL 5
REMARK VINA RESULT:    -5.949      4.386      8.886
REMARK INTER + INTRA:          -9.210
REMARK INTER:                  -7.892
REMARK INTRA:                  -1.319
REMARK UNBOUND:                -1.175
REMARK  Name = 
REMARK  7 active torsions:
REMARK  status: ('A' for Active; 'I' for Inactive)
REMARK    1  A    between atoms: C_1  and  C_2
REMARK    2  A    between atoms: C_2  and  N_3
REMARK    3  A    between atoms: C_2  and  C_16
REMARK    4  A    between atoms: C_4  and  C_6
REMARK    5  A    between atoms: C_19  and  C_20
REMARK    6  A    between atoms: C_20  and  N_21
REMARK    7  A    between atoms: C_22  and  C_24
REMARK                            x       y       z     vdW  Elec       q    Type
REMARK                         _______ _______ _______ _____ _____    ______ ____
ROOT
ATOM      1  C   UNL     1      44.674   5.636  13.220  0.00  0.00    +0.000 C 
ATOM      2  C   UNL     1      46.209   5.674  13.225  0.00  0.00    +0.000 C 
ENDROOT
BRANCH   2   3
ATOM      3  C   UNL     1      46.713   7.020  12.713  0.00  0.00    +0.000 A 
ATOM      4  C   UNL     1      47.995   7.141  12.152  0.00  0.00    +0.000 A 
ATOM      5  C   UNL     1      48.457   8.382  11.682  0.00  0.00    +0.000 A 
ATOM      6  C   UNL     1      47.657   9.528  11.786  0.00  0.00    +0.000 A 
ATOM      7  C   UNL     1      46.381   9.408  12.342  0.00  0.00    +0.000 A 
ATOM      8  C   UNL     1      45.929   8.179  12.818  0.00  0.00    +0.000 A 
BRANCH   6   9
ATOM      9  C   UNL     1      48.149  10.881  11.347  0.00  0.00    +0.000 C 
BRANCH   9  10
ATOM     10  N   UNL     1      49.408  10.821  10.637  0.00  0.00    +0.000 N 
ATOM     11  C   UNL     1      50.581  11.107  11.301  0.00  0.00    +0.000 C 
ATOM     12  O   UNL     1      50.589  11.428  12.490  0.00  0.00    +0.000 OA
ATOM     13  H   UNL     1      49.422  10.415   9.712  0.00  0.00    +0.000 HD
BRANCH  11  14
ATOM     14  C   UNL     1      51.849  11.087  10.443  0.00  0.00    +0.000 C 
ATOM     15  C   UNL     1      51.585  11.465   8.982  0.00  0.00    +0.000 C 
ATOM     16  C   UNL     1      52.817  11.233   8.115  0.00  0.00    +0.000 C 
ATOM     17  O   UNL     1      53.282   9.892   8.235  0.00  0.00    +0.000 OA
ATOM     18  C   UNL     1      53.692   9.588   9.566  0.00  0.00    +0.000 C 
ATOM     19  C   UNL     1      52.516   9.704  10.522  0.00  0.00    +0.000 C 
ENDBRANCH  11  14
ENDBRANCH   9  10
ENDBRANCH   6   9
ENDBRANCH   2   3
BRANCH   2  20
ATOM     20  N   UNL     1      46.771   5.417  14.543  0.00  0.00    +0.000 N 
ATOM     21  C   UNL     1      47.303   4.211  14.937  0.00  0.00    +0.000 C 
ATOM     22  O   UNL     1      47.284   3.226  14.207  0.00  0.00    +0.000 OA
ATOM     23  H   UNL     1      46.953   6.240  15.108  0.00  0.00    +0.000 HD
BRANCH  21  24
ATOM     24  C   UNL     1      47.884   4.145  16.295  0.00  0.00    +0.000 A 
ATOM     25  C   UNL     1      47.486   3.128  17.156  0.00  0.00    +0.000 A 
ATOM     26  S   UNL     1      48.186   3.222  18.707  0.00  0.00    +0.000 S 
ATOM     27  C   UNL     1      49.047   4.630  18.294  0.00  0.00    +0.000 A 
ATOM     28  N   UNL     1      49.823   5.266  19.216  0.00  0.00    +0.000 NA
ATOM     29  C   UNL     1      50.400   6.337  18.776  0.00  0.00    +0.000 A 
ATOM     30  N   UNL     1      50.293   6.805  17.495  0.00  0.00    +0.000 N 
ATOM     31  C   UNL     1      49.576   6.159  16.519  0.00  0.00    +0.000 A 
ATOM     32  O   UNL     1      49.596   6.551  15.356  0.00  0.00    +0.000 OA
ATOM     33  C   UNL     1      48.840   4.994  16.975  0.00  0.00    +0.000 A 
ATOM     34  H   UNL     1      50.806   7.626  17.200  0.00  0.00    +0.000 HD
ENDBRANCH  21  24
ENDBRANCH   2  20
TORSDOF 6
ENDMDL
MODEL 6
REMARK VINA RESULT:    -5.149     11.175     13.322
REMARK INTER + INTRA:          -8.130
REMARK INTER:                  -6.674
REMARK INTRA:                  -1.456
REMARK UNBOUND:                -1.175
REMARK  Name = 
REMARK  7 active torsions:
REMARK  status: ('A' for Active; 'I' for Inactive)
REMARK    1  A    between atoms: C_1  and  C_2
REMARK    2  A    between atoms: C_2  and  N_3
REMARK    3  A    between atoms: C_2  and  C_16
REMARK    4  A    between atoms: C_4  and  C_6
REMARK    5  A    between atoms: C_19  and  C_20
REMARK    6  A    between atoms: C_20  and  N_21
REMARK    7  A    between atoms: C_22  and  C_24
REMARK                            x       y       z     vdW  Elec       q    Type
REMARK                         _______ _______ _______ _____ _____    ______ ____
ROOT
ATOM      1  C   UNL     1      36.777  -2.831  11.405  0.00  0.00    +0.000 C 
ATOM      2  C   UNL     1      37.975  -2.114  12.045  0.00  0.00    +0.000 C 
ENDROOT
BRANCH   2   3
ATOM      3  C   UNL     1      37.505  -0.926  12.880  0.00  0.00    +0.000 A 
ATOM      4  C   UNL     1      37.052   0.251  12.261  0.00  0.00    +0.000 A 
ATOM      5  C   UNL     1      36.621   1.344  13.031  0.00  0.00    +0.000 A 
ATOM      6  C   UNL     1      36.657   1.290  14.431  0.00  0.00    +0.000 A 
ATOM      7  C   UNL     1      37.105   0.119  15.047  0.00  0.00    +0.000 A 
ATOM      8  C   UNL     1      37.543  -0.960  14.281  0.00  0.00    +0.000 A 
BRANCH   6   9
ATOM      9  C   UNL     1      36.258   2.468  15.281  0.00  0.00    +0.000 C 
BRANCH   9  10
ATOM     10  N   UNL     1      36.570   2.284  16.681  0.00  0.00    +0.000 N 
ATOM     11  C   UNL     1      37.552   3.053  17.268  0.00  0.00    +0.000 C 
ATOM     12  O   UNL     1      38.187   3.891  16.627  0.00  0.00    +0.000 OA
ATOM     13  H   UNL     1      35.955   1.711  17.242  0.00  0.00    +0.000 HD
BRANCH  11  14
ATOM     14  C   UNL     1      37.856   2.731  18.733  0.00  0.00    +0.000 C 
ATOM     15  C   UNL     1      39.179   3.338  19.214  0.00  0.00    +0.000 C 
ATOM     16  C   UNL     1      39.554   2.828  20.601  0.00  0.00    +0.000 C 
ATOM     17  O   UNL     1      39.587   1.405  20.632  0.00  0.00    +0.000 OA
ATOM     18  C   UNL     1      38.310   0.836  20.352  0.00  0.00    +0.000 C 
ATOM     19  C   UNL     1      37.862   1.208  18.948  0.00  0.00    +0.000 C 
ENDBRANCH  11  14
ENDBRANCH   9  10
ENDBRANCH   6   9
ENDBRANCH   2   3
BRANCH   2  20
ATOM     20  N   UNL     1      38.778  -3.000  12.876  0.00  0.00    +0.000 N 
ATOM     21  C   UNL     1      40.150  -2.943  12.966  0.00  0.00    +0.000 C 
ATOM     22  O   UNL     1      40.812  -2.163  12.290  0.00  0.00    +0.000 OA
ATOM     23  H   UNL     1      38.264  -3.539  13.564  0.00  0.00    +0.000 HD
BRANCH  21  24
ATOM     24  C   UNL     1      40.800  -3.883  13.905  0.00  0.00    +0.000 A 
ATOM     25  C   UNL     1      41.218  -5.126  13.442  0.00  0.00    +0.000 A 
ATOM     26  S   UNL     1      41.884  -6.125  14.651  0.00  0.00    +0.000 S 
ATOM     27  C   UNL     1      41.636  -4.940  15.845  0.00  0.00    +0.000 A 
ATOM     28  N   UNL     1      41.953  -5.188  17.148  0.00  0.00    +0.000 NA
ATOM     29  C   UNL     1      41.689  -4.211  17.953  0.00  0.00    +0.000 A 
ATOM     30  N   UNL     1      41.168  -3.007  17.567  0.00  0.00    +0.000 N 
ATOM     31  C   UNL     1      40.897  -2.693  16.259  0.00  0.00    +0.000 A 
ATOM     32  O   UNL     1      40.536  -1.563  15.942  0.00  0.00    +0.000 OA
ATOM     33  C   UNL     1      41.097  -3.779  15.318  0.00  0.00    +0.000 A 
ATOM     34  H   UNL     1      41.026  -2.265  18.241  0.00  0.00    +0.000 HD
ENDBRANCH  21  24
ENDBRANCH   2  20
TORSDOF 6
ENDMDL
MODEL 7
REMARK VINA RESULT:    -5.086     10.430     11.416
REMARK INTER + INTRA:          -8.045
REMARK INTER:                  -6.988
REMARK INTRA:                  -1.058
REMARK UNBOUND:                -1.175
REMARK  Name = 
REMARK  7 active torsions:
REMARK  status: ('A' for Active; 'I' for Inactive)
REMARK    1  A    between atoms: C_1  and  C_2
REMARK    2  A    between atoms: C_2  and  N_3
REMARK    3  A    between atoms: C_2  and  C_16
REMARK    4  A    between atoms: C_4  and  C_6
REMARK    5  A    between atoms: C_19  and  C_20
REMARK    6  A    between atoms: C_20  and  N_21
REMARK    7  A    between atoms: C_22  and  C_24
REMARK                            x       y       z     vdW  Elec       q    Type
REMARK                         _______ _______ _______ _____ _____    ______ ____
ROOT
ATOM      1  C   UNL     1      39.520  -1.127  16.141  0.00  0.00    +0.000 C 
ATOM      2  C   UNL     1      40.506  -2.039  15.397  0.00  0.00    +0.000 C 
ENDROOT
BRANCH   2   3
ATOM      3  C   UNL     1      41.033  -3.129  16.327  0.00  0.00    +0.000 A 
ATOM      4  C   UNL     1      40.846  -3.039  17.716  0.00  0.00    +0.000 A 
ATOM      5  C   UNL     1      41.333  -4.042  18.570  0.00  0.00    +0.000 A 
ATOM      6  C   UNL     1      42.037  -5.140  18.055  0.00  0.00    +0.000 A 
ATOM      7  C   UNL     1      42.223  -5.230  16.674  0.00  0.00    +0.000 A 
ATOM      8  C   UNL     1      41.748  -4.227  15.829  0.00  0.00    +0.000 A 
BRANCH   6   9
ATOM      9  C   UNL     1      42.623  -6.197  18.952  0.00  0.00    +0.000 C 
BRANCH   9  10
ATOM     10  N   UNL     1      43.851  -6.760  18.433  0.00  0.00    +0.000 N 
ATOM     11  C   UNL     1      45.058  -6.187  18.766  0.00  0.00    +0.000 C 
ATOM     12  O   UNL     1      45.125  -5.193  19.490  0.00  0.00    +0.000 OA
ATOM     13  H   UNL     1      43.812  -7.656  17.968  0.00  0.00    +0.000 HD
BRANCH  11  14
ATOM     14  C   UNL     1      46.291  -6.812  18.107  0.00  0.00    +0.000 C 
ATOM     15  C   UNL     1      47.320  -5.768  17.658  0.00  0.00    +0.000 C 
ATOM     16  C   UNL     1      48.428  -6.401  16.825  0.00  0.00    +0.000 C 
ATOM     17  O   UNL     1      47.889  -7.117  15.718  0.00  0.00    +0.000 OA
ATOM     18  C   UNL     1      47.064  -8.202  16.136  0.00  0.00    +0.000 C 
ATOM     19  C   UNL     1      45.865  -7.685  16.915  0.00  0.00    +0.000 C 
ENDBRANCH  11  14
ENDBRANCH   9  10
ENDBRANCH   6   9
ENDBRANCH   2   3
BRANCH   2  20
ATOM     20  N   UNL     1      39.917  -2.655  14.217  0.00  0.00    +0.000 N 
ATOM     21  C   UNL     1      40.528  -2.710  12.986  0.00  0.00    +0.000 C 
ATOM     22  O   UNL     1      41.611  -2.176  12.776  0.00  0.00    +0.000 OA
ATOM     23  H   UNL     1      39.107  -3.243  14.389  0.00  0.00    +0.000 HD
BRANCH  21  24
ATOM     24  C   UNL     1      39.808  -3.427  11.911  0.00  0.00    +0.000 A 
ATOM     25  C   UNL     1      40.008  -4.795  11.755  0.00  0.00    +0.000 A 
ATOM     26  S   UNL     1      39.169  -5.469  10.434  0.00  0.00    +0.000 S 
ATOM     27  C   UNL     1      38.509  -3.960  10.011  0.00  0.00    +0.000 A 
ATOM     28  N   UNL     1      37.715  -3.831   8.910  0.00  0.00    +0.000 NA
ATOM     29  C   UNL     1      37.303  -2.625   8.692  0.00  0.00    +0.000 A 
ATOM     30  N   UNL     1      37.588  -1.551   9.489  0.00  0.00    +0.000 N 
ATOM     31  C   UNL     1      38.326  -1.650  10.642  0.00  0.00    +0.000 A 
ATOM     32  O   UNL     1      38.466  -0.684  11.387  0.00  0.00    +0.000 OA
ATOM     33  C   UNL     1      38.885  -2.964  10.896  0.00  0.00    +0.000 A 
ATOM     34  H   UNL     1      37.197  -0.639   9.288  0.00  0.00    +0.000 HD
ENDBRANCH  21  24
ENDBRANCH   2  20
TORSDOF 6
ENDMDL
MODEL 8
REMARK VINA RESULT:    -5.017     11.481     13.251
REMARK INTER + INTRA:          -7.952
REMARK INTER:                  -6.343
REMARK INTRA:                  -1.609
REMARK UNBOUND:                -1.175
REMARK  Name = 
REMARK  7 active torsions:
REMARK  status: ('A' for Active; 'I' for Inactive)
REMARK    1  A    between atoms: C_1  and  C_2
REMARK    2  A    between atoms: C_2  and  N_3
REMARK    3  A    between atoms: C_2  and  C_16
REMARK    4  A    between atoms: C_4  and  C_6
REMARK    5  A    between atoms: C_19  and  C_20
REMARK    6  A    between atoms: C_20  and  N_21
REMARK    7  A    between atoms: C_22  and  C_24
REMARK                            x       y       z     vdW  Elec       q    Type
REMARK                         _______ _______ _______ _____ _____    ______ ____
ROOT
ATOM      1  C   UNL     1      41.619  -4.425  13.130  0.00  0.00    +0.000 C 
ATOM      2  C   UNL     1      40.117  -4.200  13.358  0.00  0.00    +0.000 C 
ENDROOT
BRANCH   2   3
ATOM      3  C   UNL     1      39.874  -3.549  14.717  0.00  0.00    +0.000 A 
ATOM      4  C   UNL     1      38.993  -4.130  15.644  0.00  0.00    +0.000 A 
ATOM      5  C   UNL     1      38.769  -3.529  16.893  0.00  0.00    +0.000 A 
ATOM      6  C   UNL     1      39.403  -2.325  17.231  0.00  0.00    +0.000 A 
ATOM      7  C   UNL     1      40.281  -1.748  16.310  0.00  0.00    +0.000 A 
ATOM      8  C   UNL     1      40.492  -2.340  15.066  0.00  0.00    +0.000 A 
BRANCH   6   9
ATOM      9  C   UNL     1      39.136  -1.627  18.538  0.00  0.00    +0.000 C 
BRANCH   9  10
ATOM     10  N   UNL     1      38.819  -0.225  18.374  0.00  0.00    +0.000 N 
ATOM     11  C   UNL     1      37.502   0.179  18.349  0.00  0.00    +0.000 C 
ATOM     12  O   UNL     1      36.577  -0.627  18.450  0.00  0.00    +0.000 OA
ATOM     13  H   UNL     1      39.568   0.450  18.442  0.00  0.00    +0.000 HD
BRANCH  11  14
ATOM     14  C   UNL     1      37.273   1.672  18.097  0.00  0.00    +0.000 C 
ATOM     15  C   UNL     1      36.850   1.975  16.656  0.00  0.00    +0.000 C 
ATOM     16  C   UNL     1      36.834   3.475  16.383  0.00  0.00    +0.000 C 
ATOM     17  O   UNL     1      38.092   4.064  16.697  0.00  0.00    +0.000 OA
ATOM     18  C   UNL     1      38.411   3.934  18.080  0.00  0.00    +0.000 C 
ATOM     19  C   UNL     1      38.539   2.467  18.457  0.00  0.00    +0.000 C 
ENDBRANCH  11  14
ENDBRANCH   9  10
ENDBRANCH   6   9
ENDBRANCH   2   3
BRANCH   2  20
ATOM     20  N   UNL     1      39.509  -3.385  12.317  0.00  0.00    +0.000 N 
ATOM     21  C   UNL     1      38.290  -3.653  11.738  0.00  0.00    +0.000 C 
ATOM     22  O   UNL     1      37.643  -4.655  12.023  0.00  0.00    +0.000 OA
ATOM     23  H   UNL     1      39.929  -2.473  12.174  0.00  0.00    +0.000 HD
BRANCH  21  24
ATOM     24  C   UNL     1      37.797  -2.685  10.735  0.00  0.00    +0.000 A 
ATOM     25  C   UNL     1      37.543  -3.120   9.438  0.00  0.00    +0.000 A 
ATOM     26  S   UNL     1      37.049  -1.881   8.378  0.00  0.00    +0.000 S 
ATOM     27  C   UNL     1      37.158  -0.710   9.606  0.00  0.00    +0.000 A 
ATOM     28  N   UNL     1      36.907   0.604   9.341  0.00  0.00    +0.000 NA
ATOM     29  C   UNL     1      37.052   1.388  10.358  0.00  0.00    +0.000 A 
ATOM     30  N   UNL     1      37.394   0.973  11.616  0.00  0.00    +0.000 N 
ATOM     31  C   UNL     1      37.589  -0.347  11.941  0.00  0.00    +0.000 A 
ATOM     32  O   UNL     1      37.785  -0.688  13.104  0.00  0.00    +0.000 OA
ATOM     33  C   UNL     1      37.520  -1.266  10.821  0.00  0.00    +0.000 A 
ATOM     34  H   UNL     1      37.448   1.632  12.382  0.00  0.00    +0.000 HD
ENDBRANCH  21  24
ENDBRANCH   2  20
TORSDOF 6
ENDMDL
MODEL 9
REMARK VINA RESULT:    -4.727     10.442     11.622
REMARK INTER + INTRA:          -7.560
REMARK INTER:                  -6.374
REMARK INTRA:                  -1.186
REMARK UNBOUND:                -1.175
REMARK  Name = 
REMARK  7 active torsions:
REMARK  status: ('A' for Active; 'I' for Inactive)
REMARK    1  A    between atoms: C_1  and  C_2
REMARK    2  A    between atoms: C_2  and  N_3
REMARK    3  A    between atoms: C_2  and  C_16
REMARK    4  A    between atoms: C_4  and  C_6
REMARK    5  A    between atoms: C_19  and  C_20
REMARK    6  A    between atoms: C_20  and  N_21
REMARK    7  A    between atoms: C_22  and  C_24
REMARK                            x       y       z     vdW  Elec       q    Type
REMARK                         _______ _______ _______ _____ _____    ______ ____
ROOT
ATOM      1  C   UNL     1      39.083  -1.244  16.022  0.00  0.00    +0.000 C 
ATOM      2  C   UNL     1      40.216  -2.008  15.322  0.00  0.00    +0.000 C 
ENDROOT
BRANCH   2   3
ATOM      3  C   UNL     1      40.880  -2.985  16.288  0.00  0.00    +0.000 A 
ATOM      4  C   UNL     1      41.714  -4.010  15.812  0.00  0.00    +0.000 A 
ATOM      5  C   UNL     1      42.323  -4.909  16.703  0.00  0.00    +0.000 A 
ATOM      6  C   UNL     1      42.092  -4.815  18.083  0.00  0.00    +0.000 A 
ATOM      7  C   UNL     1      41.264  -3.794  18.557  0.00  0.00    +0.000 A 
ATOM      8  C   UNL     1      40.652  -2.910  17.670  0.00  0.00    +0.000 A 
BRANCH   6   9
ATOM      9  C   UNL     1      42.683  -5.801  19.055  0.00  0.00    +0.000 C 
BRANCH   9  10
ATOM     10  N   UNL     1      43.863  -6.462  18.541  0.00  0.00    +0.000 N 
ATOM     11  C   UNL     1      45.110  -5.965  18.847  0.00  0.00    +0.000 C 
ATOM     12  O   UNL     1      45.253  -4.958  19.542  0.00  0.00    +0.000 OA
ATOM     13  H   UNL     1      43.757  -7.365  18.102  0.00  0.00    +0.000 HD
BRANCH  11  14
ATOM     14  C   UNL     1      46.290  -6.692  18.195  0.00  0.00    +0.000 C 
ATOM     15  C   UNL     1      47.374  -5.733  17.690  0.00  0.00    +0.000 C 
ATOM     16  C   UNL     1      48.426  -6.467  16.866  0.00  0.00    +0.000 C 
ATOM     17  O   UNL     1      47.824  -7.190  15.796  0.00  0.00    +0.000 OA
ATOM     18  C   UNL     1      46.939  -8.202  16.269  0.00  0.00    +0.000 C 
ATOM     19  C   UNL     1      45.789  -7.580  17.044  0.00  0.00    +0.000 C 
ENDBRANCH  11  14
ENDBRANCH   9  10
ENDBRANCH   6   9
ENDBRANCH   2   3
BRANCH   2  20
ATOM     20  N   UNL     1      39.759  -2.730  14.143  0.00  0.00    +0.000 N 
ATOM     21  C   UNL     1      40.430  -2.757  12.943  0.00  0.00    +0.000 C 
ATOM     22  O   UNL     1      41.455  -2.108  12.759  0.00  0.00    +0.000 OA
ATOM     23  H   UNL     1      39.015  -3.401  14.303  0.00  0.00    +0.000 HD
BRANCH  21  24
ATOM     24  C   UNL     1      39.850  -3.591  11.868  0.00  0.00    +0.000 A 
ATOM     25  C   UNL     1      38.927  -3.026  10.994  0.00  0.00    +0.000 A 
ATOM     26  S   UNL     1      38.294  -4.124   9.855  0.00  0.00    +0.000 S 
ATOM     27  C   UNL     1      39.223  -5.401  10.486  0.00  0.00    +0.000 A 
ATOM     28  N   UNL     1      39.111  -6.661   9.978  0.00  0.00    +0.000 NA
ATOM     29  C   UNL     1      39.855  -7.539  10.567  0.00  0.00    +0.000 A 
ATOM     30  N   UNL     1      40.717  -7.263  11.593  0.00  0.00    +0.000 N 
ATOM     31  C   UNL     1      40.910  -5.997  12.088  0.00  0.00    +0.000 A 
ATOM     32  O   UNL     1      41.773  -5.774  12.932  0.00  0.00    +0.000 OA
ATOM     33  C   UNL     1      40.042  -4.983  11.521  0.00  0.00    +0.000 A 
ATOM     34  H   UNL     1      41.307  -7.988  11.983  0.00  0.00    +0.000 HD
ENDBRANCH  21  24
ENDBRANCH   2  20
TORSDOF 6
ENDMDL
